
     RDKit          3D

 29 31  0  0  0  0  0  0  0  0999 V2000
    4.9119    1.7833   16.9942 H   0  0  0  0  0  0  0  0  0  0  0  0
    5.4001    1.2958   17.8352 C   0  0  0  0  0  0  0  0  0  0  0  0
    6.5668    0.6795   17.5732 N   0  0  0  0  0  0  0  0  0  0  0  0
    7.1737    0.0614   18.5907 C   0  0  0  0  0  0  0  0  0  0  0  0
    8.1220   -0.4282   18.3703 H   0  0  0  0  0  0  0  0  0  0  0  0
    6.6689   -0.0063   19.9140 C   0  0  0  0  0  0  0  0  0  0  0  0
    7.3296   -0.7389   20.9151 N   0  0  0  0  0  0  0  0  0  0  0  0
    8.1866   -1.2189   20.6816 H   0  0  0  0  0  0  0  0  0  0  0  0
    7.0443   -0.5880   22.5660 S   0  0  0  0  0  0  0  0  0  0  0  0
    8.0264    0.8568   22.9017 C   0  0  0  0  0  0  0  0  0  0  0  0
    9.4120    0.6852   23.2124 C   0  0  0  0  0  0  0  0  0  0  0  0
    9.8011   -0.3264   23.3179 H   0  0  0  0  0  0  0  0  0  0  0  0
   10.2597    1.6745   23.3897 N   0  0  0  0  0  0  0  0  0  0  0  0
    9.7691    2.9571   23.2499 C   0  0  0  0  0  0  0  0  0  0  0  0
   10.6498    4.0632   23.4432 C   0  0  0  0  0  0  0  0  0  0  0  0
   11.6823    3.8399   23.6919 H   0  0  0  0  0  0  0  0  0  0  0  0
   10.1909    5.3598   23.3079 C   0  0  0  0  0  0  0  0  0  0  0  0
   10.8641    6.2046   23.4495 H   0  0  0  0  0  0  0  0  0  0  0  0
    8.8283    5.6178   22.9741 C   0  0  0  0  0  0  0  0  0  0  0  0
    8.4828    6.6455   22.8673 H   0  0  0  0  0  0  0  0  0  0  0  0
    7.9513    4.5760   22.7832 C   0  0  0  0  0  0  0  0  0  0  0  0
    6.9047    4.7500   22.5250 H   0  0  0  0  0  0  0  0  0  0  0  0
    8.3985    3.2296   22.9211 C   0  0  0  0  0  0  0  0  0  0  0  0
    7.5204    2.1251   22.7469 C   0  0  0  0  0  0  0  0  0  0  0  0
    6.4802    2.3110   22.4746 H   0  0  0  0  0  0  0  0  0  0  0  0
    5.4529    0.6483   20.1654 C   0  0  0  0  0  0  0  0  0  0  0  0
    5.0167    0.6211   21.1642 H   0  0  0  0  0  0  0  0  0  0  0  0
    4.8175    1.3063   19.1078 C   0  0  0  0  0  0  0  0  0  0  0  0
    3.8834    1.8355   19.2652 H   0  0  0  0  0  0  0  0  0  0  0  0
  1  2  1  0
  2  3  2  0
  3  4  1  0
  4  5  1  0
  4  6  2  0
  6  7  1  0
  7  8  1  0
  7  9  1  0
  9 10  1  0
 10 11  2  0
 11 12  1  0
 11 13  1  0
 13 14  2  0
 14 15  1  0
 15 16  1  0
 15 17  2  0
 17 18  1  0
 17 19  1  0
 19 20  1  0
 19 21  2  0
 21 22  1  0
 21 23  1  0
 23 24  2  0
 24 25  1  0
  6 26  1  0
 26 27  1  0
 26 28  2  0
 28 29  1  0
 28  2  1  0
 24 10  1  0
 23 14  1  0
M  END
>  <cnnaffinity>  (1) 
-5.1404

>  <filename>  (1) 
c1cncc(NSc2cnc3ccccc3c2)c1

$$$$
