
     RDKit          3D

 34 37  0  0  0  0  0  0  0  0999 V2000
    4.9159    1.7759   17.0033 H   0  0  0  0  0  0  0  0  0  0  0  0
    5.4052    1.2891   17.8449 C   0  0  0  0  0  0  0  0  0  0  0  0
    6.5713    0.6806   17.5832 N   0  0  0  0  0  0  0  0  0  0  0  0
    7.1774    0.0526   18.5960 C   0  0  0  0  0  0  0  0  0  0  0  0
    8.1245   -0.4341   18.3752 H   0  0  0  0  0  0  0  0  0  0  0  0
    6.6600   -0.0050   19.8980 C   0  0  0  0  0  0  0  0  0  0  0  0
    7.4051   -0.7213   20.9672 C   0  0  0  0  0  0  0  0  0  0  0  0
    8.1099   -1.8176   20.6342 N   0  0  0  0  0  0  0  0  0  0  0  0
    8.7614   -2.5155   21.5710 N   0  0  0  0  0  0  0  0  0  0  0  0
    8.7505   -2.1066   22.8467 C   0  0  0  0  0  0  0  0  0  0  0  0
    9.3053   -2.7410   23.5226 H   0  0  0  0  0  0  0  0  0  0  0  0
    8.0575   -0.9587   23.2783 C   0  0  0  0  0  0  0  0  0  0  0  0
    8.0349   -0.5094   24.7019 C   0  0  0  0  0  0  0  0  0  0  0  0
    6.9784    0.1838   25.0885 N   0  0  0  0  0  0  0  0  0  0  0  0
    6.9216    0.6148   26.3867 C   0  0  0  0  0  0  0  0  0  0  0  0
    5.7828    1.3565   26.8294 C   0  0  0  0  0  0  0  0  0  0  0  0
    4.9923    1.5415   26.1058 H   0  0  0  0  0  0  0  0  0  0  0  0
    5.7027    1.8139   28.1272 C   0  0  0  0  0  0  0  0  0  0  0  0
    4.8341    2.3766   28.4678 H   0  0  0  0  0  0  0  0  0  0  0  0
    6.7578    1.5574   29.0546 C   0  0  0  0  0  0  0  0  0  0  0  0
    6.6791    1.9228   30.0770 H   0  0  0  0  0  0  0  0  0  0  0  0
    7.8683    0.8498   28.6619 C   0  0  0  0  0  0  0  0  0  0  0  0
    8.6874    0.6441   29.3532 H   0  0  0  0  0  0  0  0  0  0  0  0
    7.9776    0.3648   27.3256 C   0  0  0  0  0  0  0  0  0  0  0  0
    9.1096   -0.3623   26.8642 C   0  0  0  0  0  0  0  0  0  0  0  0
    9.9317   -0.5600   27.5555 H   0  0  0  0  0  0  0  0  0  0  0  0
    9.1427   -0.7986   25.5662 C   0  0  0  0  0  0  0  0  0  0  0  0
   10.0082   -1.3294   25.1839 H   0  0  0  0  0  0  0  0  0  0  0  0
    7.3724   -0.2581   22.2925 C   0  0  0  0  0  0  0  0  0  0  0  0
    6.8290    0.6485   22.5456 H   0  0  0  0  0  0  0  0  0  0  0  0
    5.4456    0.6483   20.1588 C   0  0  0  0  0  0  0  0  0  0  0  0
    5.0025    0.6296   21.1590 H   0  0  0  0  0  0  0  0  0  0  0  0
    4.8061    1.3055   19.1102 C   0  0  0  0  0  0  0  0  0  0  0  0
    3.8748    1.8426   19.2635 H   0  0  0  0  0  0  0  0  0  0  0  0
  1  2  1  0
  2  3  2  0
  3  4  1  0
  4  5  1  0
  4  6  2  0
  6  7  1  0
  7  8  2  0
  8  9  1  0
  9 10  2  0
 10 11  1  0
 10 12  1  0
 12 13  1  0
 13 14  2  0
 14 15  1  0
 15 16  2  0
 16 17  1  0
 16 18  1  0
 18 19  1  0
 18 20  2  0
 20 21  1  0
 20 22  1  0
 22 23  1  0
 22 24  2  0
 24 25  1  0
 25 26  1  0
 25 27  2  0
 27 28  1  0
 12 29  2  0
 29 30  1  0
  6 31  1  0
 31 32  1  0
 31 33  2  0
 33 34  1  0
 33  2  1  0
 29  7  1  0
 27 13  1  0
 24 15  1  0
M  END
>  <cnnaffinity>  (1) 
-5.1323

>  <filename>  (1) 
c1cncc(-c2cc(-c3ccc4ccccc4n3)cnn2)c1

$$$$
