
     RDKit          3D

 33 36  0  0  0  0  0  0  0  0999 V2000
    4.9145    2.2391   16.2640 H   0  0  0  0  0  0  0  0  0  0  0  0
    5.1590    1.7432   17.2007 C   0  0  0  0  0  0  0  0  0  0  0  0
    6.2692    0.9919   17.1856 N   0  0  0  0  0  0  0  0  0  0  0  0
    6.5969    0.3605   18.3149 C   0  0  0  0  0  0  0  0  0  0  0  0
    7.4957   -0.2531   18.2883 H   0  0  0  0  0  0  0  0  0  0  0  0
    5.8545    0.4636   19.4997 C   0  0  0  0  0  0  0  0  0  0  0  0
    6.3473   -0.2299   20.6790 C   0  0  0  0  0  0  0  0  0  0  0  0
    5.9309    0.0179   21.9461 N   0  0  0  0  0  0  0  0  0  0  0  0
    6.6794   -0.7908   22.6633 C   0  0  0  0  0  0  0  0  0  0  0  0
    6.6507   -0.9251   23.7386 H   0  0  0  0  0  0  0  0  0  0  0  0
    7.5151   -1.5067   21.8676 N   0  0  0  0  0  0  0  0  0  0  0  0
    8.7293   -2.1792   22.2219 C   0  0  0  0  0  0  0  0  0  0  0  0
    9.9027   -1.7467   21.6325 C   0  0  0  0  0  0  0  0  0  0  0  0
    9.8536   -1.0502   20.7996 H   0  0  0  0  0  0  0  0  0  0  0  0
   11.1576   -2.2065   22.1016 C   0  0  0  0  0  0  0  0  0  0  0  0
   12.0696   -1.8064   21.6611 H   0  0  0  0  0  0  0  0  0  0  0  0
   11.2053   -3.1256   23.1224 C   0  0  0  0  0  0  0  0  0  0  0  0
   12.1577   -3.5328   23.4423 H   0  0  0  0  0  0  0  0  0  0  0  0
   10.0141   -3.6292   23.7233 C   0  0  0  0  0  0  0  0  0  0  0  0
   10.0743   -4.5739   24.7931 C   0  0  0  0  0  0  0  0  0  0  0  0
   11.0482   -4.8287   25.2066 H   0  0  0  0  0  0  0  0  0  0  0  0
    8.9263   -5.1163   25.3157 C   0  0  0  0  0  0  0  0  0  0  0  0
    8.9814   -5.8378   26.1300 H   0  0  0  0  0  0  0  0  0  0  0  0
    7.6581   -4.7152   24.8153 C   0  0  0  0  0  0  0  0  0  0  0  0
    6.7596   -5.1498   25.2410 H   0  0  0  0  0  0  0  0  0  0  0  0
    7.5554   -3.7912   23.7984 C   0  0  0  0  0  0  0  0  0  0  0  0
    6.5864   -3.4954   23.4040 H   0  0  0  0  0  0  0  0  0  0  0  0
    8.7374   -3.1987   23.2358 C   0  0  0  0  0  0  0  0  0  0  0  0
    7.3077   -1.1278   20.5812 N   0  0  0  0  0  0  0  0  0  0  0  0
    4.6946    1.2485   19.5093 C   0  0  0  0  0  0  0  0  0  0  0  0
    4.1117    1.3726   20.4238 H   0  0  0  0  0  0  0  0  0  0  0  0
    4.3339    1.8822   18.3251 C   0  0  0  0  0  0  0  0  0  0  0  0
    3.4386    2.4868   18.2534 H   0  0  0  0  0  0  0  0  0  0  0  0
  1  2  1  0
  2  3  2  0
  3  4  1  0
  4  5  1  0
  4  6  2  0
  6  7  1  0
  7  8  1  0
  8  9  2  0
  9 10  1  0
  9 11  1  0
 11 12  1  0
 12 13  2  0
 13 14  1  0
 13 15  1  0
 15 16  1  0
 15 17  2  0
 17 18  1  0
 17 19  1  0
 19 20  2  0
 20 21  1  0
 20 22  1  0
 22 23  1  0
 22 24  2  0
 24 25  1  0
 24 26  1  0
 26 27  1  0
 26 28  2  0
 11 29  1  0
  6 30  1  0
 30 31  1  0
 30 32  2  0
 32 33  1  0
 32  2  1  0
 29  7  2  0
 28 12  1  0
 28 19  1  0
M  END
>  <cnnaffinity>  (1) 
-5.41268

>  <filename>  (1) 
c1cncc(-c2ncn(-c3cccc4ccccc34)n2)c1

$$$$
