
     RDKit          3D

 35 38  0  0  0  0  0  0  0  0999 V2000
    4.9136    1.8607   16.9831 H   0  0  0  0  0  0  0  0  0  0  0  0
    5.3871    1.3211   17.7984 C   0  0  0  0  0  0  0  0  0  0  0  0
    6.5390    0.6937   17.5072 N   0  0  0  0  0  0  0  0  0  0  0  0
    7.1598    0.0572   18.5117 C   0  0  0  0  0  0  0  0  0  0  0  0
    8.0837   -0.4662   18.2686 H   0  0  0  0  0  0  0  0  0  0  0  0
    6.6831    0.0080   19.8466 C   0  0  0  0  0  0  0  0  0  0  0  0
    7.3788   -0.6431   20.8759 N   0  0  0  0  0  0  0  0  0  0  0  0
    6.8459   -0.8894   21.7006 H   0  0  0  0  0  0  0  0  0  0  0  0
    8.7718   -0.6352   21.0646 C   0  0  0  0  0  0  0  0  0  0  0  0
    9.7259    0.3283   20.6719 C   0  0  0  0  0  0  0  0  0  0  0  0
    9.5379    1.2033   20.0844 H   0  0  0  0  0  0  0  0  0  0  0  0
   10.9509    0.0247   21.0840 N   0  0  0  0  0  0  0  0  0  0  0  0
   10.7952   -1.1269   21.7509 N   0  0  0  0  0  0  0  0  0  0  0  0
   11.6215   -1.6375   22.0394 H   0  0  0  0  0  0  0  0  0  0  0  0
    9.5115   -1.5724   21.7706 C   0  0  0  0  0  0  0  0  0  0  0  0
    9.0840   -2.7770   22.4736 C   0  0  0  0  0  0  0  0  0  0  0  0
    8.0047   -3.5545   21.9394 C   0  0  0  0  0  0  0  0  0  0  0  0
    7.6274   -3.2710   20.9569 H   0  0  0  0  0  0  0  0  0  0  0  0
    7.4293   -4.5582   22.5560 N   0  0  0  0  0  0  0  0  0  0  0  0
    7.9144   -4.8664   23.8083 C   0  0  0  0  0  0  0  0  0  0  0  0
    7.1982   -5.8195   24.5786 C   0  0  0  0  0  0  0  0  0  0  0  0
    6.2910   -6.2127   24.1301 H   0  0  0  0  0  0  0  0  0  0  0  0
    7.6593   -6.2032   25.8189 C   0  0  0  0  0  0  0  0  0  0  0  0
    7.0960   -6.9020   26.4360 H   0  0  0  0  0  0  0  0  0  0  0  0
    8.8889   -5.6910   26.3214 C   0  0  0  0  0  0  0  0  0  0  0  0
    9.2519   -6.0350   27.2867 H   0  0  0  0  0  0  0  0  0  0  0  0
    9.6003   -4.7528   25.6127 C   0  0  0  0  0  0  0  0  0  0  0  0
   10.5383   -4.3525   25.9955 H   0  0  0  0  0  0  0  0  0  0  0  0
    9.0883   -4.2635   24.3707 C   0  0  0  0  0  0  0  0  0  0  0  0
    9.6502   -3.1697   23.6737 C   0  0  0  0  0  0  0  0  0  0  0  0
   10.4823   -2.6225   24.1148 H   0  0  0  0  0  0  0  0  0  0  0  0
    5.4492    0.6192   20.1107 C   0  0  0  0  0  0  0  0  0  0  0  0
    5.0284    0.5750   21.1172 H   0  0  0  0  0  0  0  0  0  0  0  0
    4.8037    1.2983   19.0728 C   0  0  0  0  0  0  0  0  0  0  0  0
    3.8715    1.8259   19.2451 H   0  0  0  0  0  0  0  0  0  0  0  0
  1  2  1  0
  2  3  2  0
  3  4  1  0
  4  5  1  0
  4  6  2  0
  6  7  1  0
  7  8  1  0
  7  9  1  0
  9 10  1  0
 10 11  1  0
 10 12  2  0
 12 13  1  0
 13 14  1  0
 13 15  1  0
 15 16  1  0
 16 17  2  0
 17 18  1  0
 17 19  1  0
 19 20  2  0
 20 21  1  0
 21 22  1  0
 21 23  2  0
 23 24  1  0
 23 25  1  0
 25 26  1  0
 25 27  2  0
 27 28  1  0
 27 29  1  0
 29 30  2  0
 30 31  1  0
  6 32  1  0
 32 33  1  0
 32 34  2  0
 34 35  1  0
 34  2  1  0
 15  9  2  0
 30 16  1  0
 29 20  1  0
M  END
>  <cnnaffinity>  (1) 
-6.09019

>  <filename>  (1) 
c1cncc(Nc2cn[nH]c2-c2cnc3ccccc3c2)c1

$$$$
