
     RDKit          3D

 36 38  0  0  0  0  0  0  0  0999 V2000
    9.2087   -2.9184   22.0482 H   0  0  0  0  0  0  0  0  0  0  0  0
    8.5691   -2.0583   21.9026 C   0  0  0  0  0  0  0  0  0  0  0  0
    8.2097   -1.2239   22.9252 N   0  0  0  0  0  0  0  0  0  0  0  0
    7.4587   -0.3540   22.2917 C   0  0  0  0  0  0  0  0  0  0  0  0
    6.8470    0.7178   22.7778 O   0  0  0  0  0  0  0  0  0  0  0  0
    6.9979    1.0349   24.1810 C   0  0  0  0  0  0  0  0  0  0  0  0
    8.0577    1.1906   24.4138 H   0  0  0  0  0  0  0  0  0  0  0  0
    6.6334    0.1940   24.7812 H   0  0  0  0  0  0  0  0  0  0  0  0
    6.2039    2.3081   24.4994 C   0  0  0  0  0  0  0  0  0  0  0  0
    5.1541    2.1318   24.2228 H   0  0  0  0  0  0  0  0  0  0  0  0
    6.2420    2.6252   26.0102 C   0  0  0  0  0  0  0  0  0  0  0  0
    5.7871    1.8109   26.5855 H   0  0  0  0  0  0  0  0  0  0  0  0
    7.2836    2.7031   26.3473 H   0  0  0  0  0  0  0  0  0  0  0  0
    5.5284    3.9380   26.3461 C   0  0  0  0  0  0  0  0  0  0  0  0
    4.4464    3.8142   26.1433 H   0  0  0  0  0  0  0  0  0  0  0  0
    5.6300    4.1617   27.4147 H   0  0  0  0  0  0  0  0  0  0  0  0
    6.1130    5.0376   25.5764 N   0  0  0  0  0  0  0  0  0  0  0  0
    5.6292    5.8982   25.8174 H   0  0  0  0  0  0  0  0  0  0  0  0
    5.9712    4.8158   24.1356 C   0  0  0  0  0  0  0  0  0  0  0  0
    4.9113    4.7315   23.8256 H   0  0  0  0  0  0  0  0  0  0  0  0
    6.3931    5.6739   23.6003 H   0  0  0  0  0  0  0  0  0  0  0  0
    6.7003    3.5387   23.7188 C   0  0  0  0  0  0  0  0  0  0  0  0
    7.7734    3.6757   23.8964 H   0  0  0  0  0  0  0  0  0  0  0  0
    6.5757    3.3774   22.6451 H   0  0  0  0  0  0  0  0  0  0  0  0
    7.3591   -0.6484   20.9575 N   0  0  0  0  0  0  0  0  0  0  0  0
    6.6558    0.0094   19.9063 C   0  0  0  0  0  0  0  0  0  0  0  0
    7.1800    0.0469   18.5999 C   0  0  0  0  0  0  0  0  0  0  0  0
    8.1252   -0.4385   18.3743 H   0  0  0  0  0  0  0  0  0  0  0  0
    6.5719    0.6719   17.5888 N   0  0  0  0  0  0  0  0  0  0  0  0
    5.4045    1.2901   17.8403 C   0  0  0  0  0  0  0  0  0  0  0  0
    4.9202    1.7798   16.9958 H   0  0  0  0  0  0  0  0  0  0  0  0
    4.8064    1.3028   19.1035 C   0  0  0  0  0  0  0  0  0  0  0  0
    3.8761    1.8398   19.2602 H   0  0  0  0  0  0  0  0  0  0  0  0
    5.4363    0.6469   20.1637 C   0  0  0  0  0  0  0  0  0  0  0  0
    5.0112    0.6319   21.1665 H   0  0  0  0  0  0  0  0  0  0  0  0
    8.1081   -1.7672   20.7142 N   0  0  0  0  0  0  0  0  0  0  0  0
  1  2  1  0
  2  3  1  0
  3  4  2  0
  4  5  1  0
  5  6  1  0
  6  7  1  0
  6  8  1  0
  6  9  1  0
  9 10  1  0
  9 11  1  0
 11 12  1  0
 11 13  1  0
 11 14  1  0
 14 15  1  0
 14 16  1  0
 14 17  1  0
 17 18  1  0
 17 19  1  0
 19 20  1  0
 19 21  1  0
 19 22  1  0
 22 23  1  0
 22 24  1  0
  4 25  1  0
 25 26  1  0
 26 27  2  0
 27 28  1  0
 27 29  1  0
 29 30  2  0
 30 31  1  0
 30 32  1  0
 32 33  1  0
 32 34  2  0
 34 35  1  0
 25 36  1  0
 36  2  2  0
 22  9  1  0
 34 26  1  0
M  END
>  <cnnaffinity>  (1) 
-4.70379

>  <filename>  (1) 
c1cncc(-n2ncnc2OCC2CCNCC2)c1

$$$$
