
     RDKit          3D

 24 26  0  0  0  0  0  0  0  0999 V2000
    8.7282   -3.1842   22.2494 H   0  0  0  0  0  0  0  0  0  0  0  0
    8.2863   -2.2229   22.0278 C   0  0  0  0  0  0  0  0  0  0  0  0
    7.8531   -1.9008   20.7735 N   0  0  0  0  0  0  0  0  0  0  0  0
    7.3659   -0.7037   20.9337 C   0  0  0  0  0  0  0  0  0  0  0  0
    6.6408    0.0300   19.9057 C   0  0  0  0  0  0  0  0  0  0  0  0
    7.1595    0.0489   18.6023 C   0  0  0  0  0  0  0  0  0  0  0  0
    8.1051   -0.4413   18.3800 H   0  0  0  0  0  0  0  0  0  0  0  0
    6.5675    0.6727   17.5810 N   0  0  0  0  0  0  0  0  0  0  0  0
    5.4048    1.2959   17.8349 C   0  0  0  0  0  0  0  0  0  0  0  0
    4.9345    1.7889   16.9886 H   0  0  0  0  0  0  0  0  0  0  0  0
    4.7952    1.3132   19.0944 C   0  0  0  0  0  0  0  0  0  0  0  0
    3.8663    1.8459   19.2417 H   0  0  0  0  0  0  0  0  0  0  0  0
    5.4133    0.6610   20.1570 C   0  0  0  0  0  0  0  0  0  0  0  0
    4.9871    0.6475   21.1646 H   0  0  0  0  0  0  0  0  0  0  0  0
    7.5486   -0.2887   22.2387 N   0  0  0  0  0  0  0  0  0  0  0  0
    7.3445    0.9789   22.7852 C   0  0  0  0  0  0  0  0  0  0  0  0
    6.9851    1.1538   24.4681 S   0  0  0  0  0  0  0  0  0  0  0  0
    6.9153    2.8719   24.2789 C   0  0  0  0  0  0  0  0  0  0  0  0
    6.7261    3.4926   25.1417 H   0  0  0  0  0  0  0  0  0  0  0  0
    7.1474    3.2772   22.9982 C   0  0  0  0  0  0  0  0  0  0  0  0
    7.1489    4.3202   22.6866 H   0  0  0  0  0  0  0  0  0  0  0  0
    7.3964    2.1789   22.1257 C   0  0  0  0  0  0  0  0  0  0  0  0
    7.5873    2.2750   21.0633 H   0  0  0  0  0  0  0  0  0  0  0  0
    8.1292   -1.2953   22.9425 N   0  0  0  0  0  0  0  0  0  0  0  0
  1  2  1  0
  2  3  1  0
  3  4  2  0
  4  5  1  0
  5  6  2  0
  6  7  1  0
  6  8  1  0
  8  9  2  0
  9 10  1  0
  9 11  1  0
 11 12  1  0
 11 13  2  0
 13 14  1  0
  4 15  1  0
 15 16  1  0
 16 17  1  0
 17 18  1  0
 18 19  1  0
 18 20  2  0
 20 21  1  0
 20 22  1  0
 22 23  1  0
 15 24  1  0
 24  2  2  0
 13  5  1  0
 22 16  2  0
M  END
>  <cnnaffinity>  (1) 
-4.56634

>  <filename>  (1) 
c1cncc(-c2ncnn2-c2cccs2)c1

$$$$
