
     RDKit          3D

 37 39  0  0  0  0  0  0  0  0999 V2000
    4.8054    1.3121   19.0820 C   0  0  0  0  0  0  0  0  0  0  0  0
    5.4140    1.2938   17.8212 C   0  0  0  0  0  0  0  0  0  0  0  0
    6.5728    0.6647   17.5709 N   0  0  0  0  0  0  0  0  0  0  0  0
    7.1790    0.0485   18.5872 C   0  0  0  0  0  0  0  0  0  0  0  0
    6.6602    0.0207   19.8898 C   0  0  0  0  0  0  0  0  0  0  0  0
    7.4158   -0.6759   20.9368 C   0  0  0  0  0  0  0  0  0  0  0  0
    8.5285   -1.3538   20.7063 N   0  0  0  0  0  0  0  0  0  0  0  0
    8.8244   -1.8536   21.9274 N   0  0  0  0  0  0  0  0  0  0  0  0
    7.9085   -1.4653   22.8295 C   0  0  0  0  0  0  0  0  0  0  0  0
    7.8909   -1.9215   24.2738 C   0  0  0  0  0  0  0  0  0  0  0  0
    7.4390   -3.3656   24.4729 N   0  0  0  0  0  4  0  0  0  0  0  0
    5.9829   -3.5657   24.0863 C   0  0  0  0  0  0  0  0  0  0  0  0
    5.4822   -4.9878   24.3516 C   0  0  0  0  0  0  0  0  0  0  0  0
    6.0989   -6.0864   23.4686 C   0  0  0  0  0  0  0  0  0  0  0  0
    5.2034   -7.3257   23.5607 C   0  0  0  0  0  0  0  0  0  0  0  0
    3.4839   -6.7171   23.5839 S   0  0  0  0  0  0  0  0  0  0  0  0
    3.9646   -5.0294   24.0814 C   0  0  0  0  0  0  0  0  0  0  0  0
    3.3701   -4.7347   24.9516 H   0  0  0  0  0  0  0  0  0  0  0  0
    3.7032   -4.3638   23.2517 H   0  0  0  0  0  0  0  0  0  0  0  0
    5.3882   -7.9841   22.7145 H   0  0  0  0  0  0  0  0  0  0  0  0
    5.3617   -7.9086   24.4735 H   0  0  0  0  0  0  0  0  0  0  0  0
    6.0972   -5.7411   22.4248 H   0  0  0  0  0  0  0  0  0  0  0  0
    7.1416   -6.3214   23.7302 H   0  0  0  0  0  0  0  0  0  0  0  0
    5.6637   -5.2323   25.4097 H   0  0  0  0  0  0  0  0  0  0  0  0
    5.8754   -3.3216   23.0224 H   0  0  0  0  0  0  0  0  0  0  0  0
    5.3623   -2.8375   24.6285 H   0  0  0  0  0  0  0  0  0  0  0  0
    7.5332   -3.7040   25.4612 H   0  0  0  0  0  0  0  0  0  0  0  0
    8.0081   -4.0123   23.8699 H   0  0  0  0  0  0  0  0  0  0  0  0
    7.1919   -1.2520   24.7775 H   0  0  0  0  0  0  0  0  0  0  0  0
    8.8731   -1.7757   24.7148 H   0  0  0  0  0  0  0  0  0  0  0  0
    7.0125   -0.7053   22.2376 N   0  0  0  0  0  0  0  0  0  0  0  0
    9.7092   -2.3186   22.0825 H   0  0  0  0  0  0  0  0  0  0  0  0
    5.4380    0.6639   20.1387 C   0  0  0  0  0  0  0  0  0  0  0  0
    5.0089    0.6595   21.1428 H   0  0  0  0  0  0  0  0  0  0  0  0
    8.1252   -0.4425   18.3580 H   0  0  0  0  0  0  0  0  0  0  0  0
    4.9513    1.8081   16.9806 H   0  0  0  0  0  0  0  0  0  0  0  0
    3.8697    1.8469   19.2219 H   0  0  0  0  0  0  0  0  0  0  0  0
  1  2  2  0
  2  3  1  0
  3  4  2  0
  4  5  1  0
  5  6  1  0
  6  7  2  0
  7  8  1  0
  8  9  1  0
  9 10  1  0
 10 11  1  0
 11 12  1  0
 12 13  1  0
 13 14  1  0
 14 15  1  0
 15 16  1  0
 16 17  1  0
 17 18  1  0
 17 19  1  0
 15 20  1  0
 15 21  1  0
 14 22  1  0
 14 23  1  0
 13 24  1  0
 12 25  1  0
 12 26  1  0
 11 27  1  0
 11 28  1  0
 10 29  1  0
 10 30  1  0
  9 31  2  0
  8 32  1  0
  5 33  2  0
 33 34  1  0
  4 35  1  0
  2 36  1  0
  1 37  1  0
 33  1  1  0
 31  6  1  0
 17 13  1  0
M  CHG  1  11   1
M  END
>  <cnnaffinity>  (1) 
-4.91022

>  <filename>  (1) 
c1cncc(-c2n[nH]c(C[NH2+]CC3CCSC3)n2)c1

$$$$
