
     RDKit          3D

 31 34  0  0  0  0  0  0  0  0999 V2000
    5.0497    1.8094   16.9319 H   0  0  0  0  0  0  0  0  0  0  0  0
    5.4234    1.2360   17.7775 C   0  0  0  0  0  0  0  0  0  0  0  0
    6.5269    0.5033   17.5568 N   0  0  0  0  0  0  0  0  0  0  0  0
    7.0272   -0.1800   18.5878 C   0  0  0  0  0  0  0  0  0  0  0  0
    7.9160   -0.7780   18.3868 H   0  0  0  0  0  0  0  0  0  0  0  0
    6.4806   -0.1397   19.8813 C   0  0  0  0  0  0  0  0  0  0  0  0
    7.2529   -0.7654   20.9607 C   0  0  0  0  0  0  0  0  0  0  0  0
    8.1300   -1.7271   20.7995 N   0  0  0  0  0  0  0  0  0  0  0  0
    8.5908   -2.0367   22.0292 N   0  0  0  0  0  0  0  0  0  0  0  0
    8.0643   -1.2903   22.9245 N   0  0  0  0  0  0  0  0  0  0  0  0
    7.2150   -0.4497   22.2891 N   0  0  0  0  0  0  0  0  0  0  0  0
    6.7351    0.7120   22.9940 C   0  0  0  0  0  0  0  0  0  0  0  0
    5.9435    0.5300   24.1263 C   0  0  0  0  0  0  0  0  0  0  0  0
    5.7788   -0.4633   24.5269 H   0  0  0  0  0  0  0  0  0  0  0  0
    5.3592    1.5567   24.7806 N   0  0  0  0  0  0  0  0  0  0  0  0
    5.6080    2.7837   24.3677 C   0  0  0  0  0  0  0  0  0  0  0  0
    5.1450    3.5948   24.9297 H   0  0  0  0  0  0  0  0  0  0  0  0
    6.5295    3.0954   23.3055 C   0  0  0  0  0  0  0  0  0  0  0  0
    6.9374    4.4326   23.0387 C   0  0  0  0  0  0  0  0  0  0  0  0
    6.3733    5.2616   23.4511 H   0  0  0  0  0  0  0  0  0  0  0  0
    8.0913    4.6947   22.2354 C   0  0  0  0  0  0  0  0  0  0  0  0
    8.4222    5.7343   22.1057 H   0  0  0  0  0  0  0  0  0  0  0  0
    8.6678    3.6170   21.6760 C   0  0  0  0  0  0  0  0  0  0  0  0
    7.9368    2.0072   20.5000 H   0  0  0  0  0  0  0  0  0  0  0  0
    8.2694    2.2304   21.5665 C   0  0  0  0  0  0  0  0  0  0  0  0
    9.1239    1.5262   21.7859 H   0  0  0  0  0  0  0  0  0  0  0  0
    7.1334    2.0008   22.6222 C   0  0  0  0  0  0  0  0  0  0  0  0
    5.2809    0.5606   20.0836 C   0  0  0  0  0  0  0  0  0  0  0  0
    4.7957    0.5669   21.0627 H   0  0  0  0  0  0  0  0  0  0  0  0
    4.7545    1.2696   19.0064 C   0  0  0  0  0  0  0  0  0  0  0  0
    3.8549    1.8654   19.1082 H   0  0  0  0  0  0  0  0  0  0  0  0
  1  2  1  0
  2  3  2  0
  3  4  1  0
  4  5  1  0
  4  6  2  0
  6  7  1  0
  7  8  2  0
  8  9  1  0
  9 10  2  0
 10 11  1  0
 11 12  1  0
 12 13  2  0
 13 14  1  0
 13 15  1  0
 15 16  2  0
 16 17  1  0
 16 18  1  0
 18 19  2  0
 19 20  1  0
 19 21  1  0
 21 22  1  0
 21 23  2  0
 23 24  1  0
 23 25  1  0
 25 26  1  0
 25 27  2  0
  6 28  1  0
 28 29  1  0
 28 30  2  0
 30 31  1  0
 30  2  1  0
 11  7  1  0
 27 12  1  0
 27 18  1  0
M  END
>  <cnnaffinity>  (1) 
-4.52542

>  <filename>  (1) 
c1cncc(-c2nnnn2-c2cncc3ccccc23)c1

$$$$
