
     RDKit          3D

 35 39  0  0  0  0  0  0  0  0999 V2000
    4.7132    1.4044   18.9066 C   0  0  0  0  0  0  0  0  0  0  0  0
    5.4133    1.3354   17.6961 C   0  0  0  0  0  0  0  0  0  0  0  0
    6.5589    0.6557   17.5386 N   0  0  0  0  0  0  0  0  0  0  0  0
    7.0647    0.0444   18.6149 C   0  0  0  0  0  0  0  0  0  0  0  0
    6.4523    0.0766   19.8761 C   0  0  0  0  0  0  0  0  0  0  0  0
    7.1241   -0.5811   20.9911 C   0  0  0  0  0  0  0  0  0  0  0  0
    6.6251   -0.6145   22.2115 N   0  0  0  0  0  0  0  0  0  0  0  0
    7.5639   -1.2849   22.9101 N   0  0  0  0  0  0  0  0  0  0  0  0
    7.4678   -1.4405   24.3506 C   0  0  0  0  0  0  0  0  0  0  0  0
    8.6832   -1.1447   25.1891 C   0  0  0  0  0  0  0  0  0  0  0  0
    7.4897   -0.2416   25.2710 C   0  0  0  0  0  0  0  0  0  0  0  0
    6.8845   -0.2876   26.1765 H   0  0  0  0  0  0  0  0  0  0  0  0
    7.5473    0.7464   24.8236 H   0  0  0  0  0  0  0  0  0  0  0  0
    9.5463   -0.7697   24.6436 H   0  0  0  0  0  0  0  0  0  0  0  0
    8.9287   -1.7967   26.0234 H   0  0  0  0  0  0  0  0  0  0  0  0
    6.7940   -2.2481   24.6218 H   0  0  0  0  0  0  0  0  0  0  0  0
    8.5524   -1.6676   22.0608 C   0  0  0  0  0  0  0  0  0  0  0  0
    9.6763   -2.4538   22.5022 C   0  0  0  0  0  0  0  0  0  0  0  0
    9.6640   -3.4752   23.4598 C   0  0  0  0  0  0  0  0  0  0  0  0
    8.5957   -4.6591   24.1845 S   0  0  0  0  0  0  0  0  0  0  0  0
    9.9384   -5.3620   25.0584 C   0  0  0  0  0  0  0  0  0  0  0  0
   11.1036   -4.7794   24.7316 C   0  0  0  0  0  0  0  0  0  0  0  0
   10.9548   -3.7616   23.7852 N   0  0  0  0  0  0  0  0  0  0  0  0
   11.7871   -3.0759   22.9211 C   0  0  0  0  0  0  0  0  0  0  0  0
   11.0421   -2.2495   22.1488 C   0  0  0  0  0  0  0  0  0  0  0  0
   11.4510   -1.5782   21.4053 H   0  0  0  0  0  0  0  0  0  0  0  0
   12.8112   -3.3632   22.7759 H   0  0  0  0  0  0  0  0  0  0  0  0
   12.0795   -4.9871   25.1435 H   0  0  0  0  0  0  0  0  0  0  0  0
    9.8010   -6.1845   25.7534 H   0  0  0  0  0  0  0  0  0  0  0  0
    8.3176   -1.2082   20.8458 N   0  0  0  0  0  0  0  0  0  0  0  0
    5.2292    0.7547   20.0219 C   0  0  0  0  0  0  0  0  0  0  0  0
    4.7120    0.7703   20.9855 H   0  0  0  0  0  0  0  0  0  0  0  0
    8.0014   -0.4910   18.4640 H   0  0  0  0  0  0  0  0  0  0  0  0
    5.0356    1.8484   16.8158 H   0  0  0  0  0  0  0  0  0  0  0  0
    3.7951    1.9778   18.9643 H   0  0  0  0  0  0  0  0  0  0  0  0
  1  2  2  0
  2  3  1  0
  3  4  2  0
  4  5  1  0
  5  6  1  0
  6  7  2  0
  7  8  1  0
  8  9  1  0
  9 10  1  0
 10 11  1  0
 11 12  1  0
 11 13  1  0
 10 14  1  0
 10 15  1  0
  9 16  1  0
  8 17  1  0
 17 18  1  0
 18 19  2  0
 19 20  1  0
 20 21  1  0
 21 22  2  0
 22 23  1  0
 23 24  1  0
 24 25  2  0
 25 26  1  0
 24 27  1  0
 22 28  1  0
 21 29  1  0
 17 30  2  0
  5 31  2  0
 31 32  1  0
  4 33  1  0
  2 34  1  0
  1 35  1  0
 31  1  1  0
 30  6  1  0
 11  9  1  0
 25 18  1  0
 23 19  1  0
M  END
>  <cnnaffinity>  (1) 
-5.88613

>  <filename>  (1) 
c1cncc(-c2nc(-c3ccn4ccsc34)n(C3CC3)n2)c1

$$$$
