
     RDKit          3D

 38 40  0  0  0  0  0  0  0  0999 V2000
    4.9156    1.8324   16.9604 H   0  0  0  0  0  0  0  0  0  0  0  0
    5.3860    1.3172   17.7982 C   0  0  0  0  0  0  0  0  0  0  0  0
    6.5484    0.6998   17.5382 N   0  0  0  0  0  0  0  0  0  0  0  0
    7.1619    0.0852   18.5613 C   0  0  0  0  0  0  0  0  0  0  0  0
    8.1097   -0.3860   18.3006 H   0  0  0  0  0  0  0  0  0  0  0  0
    6.6637    0.0514   19.8875 C   0  0  0  0  0  0  0  0  0  0  0  0
    7.3717   -0.6323   20.9957 C   0  0  0  0  0  0  0  0  0  0  0  0
    7.5674   -0.3019   22.3341 C   0  0  0  0  0  0  0  0  0  0  0  0
    7.0397    0.8436   22.9639 N   0  0  0  0  0  0  0  0  0  0  0  0
    7.1105    1.6733   22.3884 H   0  0  0  0  0  0  0  0  0  0  0  0
    7.4178    1.1761   24.3179 C   0  0  0  0  0  0  0  0  0  0  0  0
    6.8955    0.5132   25.0219 H   0  0  0  0  0  0  0  0  0  0  0  0
    8.4949    1.0195   24.5149 H   0  0  0  0  0  0  0  0  0  0  0  0
    7.0134    2.5425   24.5033 N   0  0  0  0  0  0  0  0  0  0  0  0
    6.1888    2.6047   23.9200 H   0  0  0  0  0  0  0  0  0  0  0  0
    7.9758    3.5752   24.1140 C   0  0  0  0  0  0  0  0  0  0  0  0
    8.3256    3.4778   23.0635 H   0  0  0  0  0  0  0  0  0  0  0  0
    9.2106    3.6130   25.0280 C   0  0  0  0  0  0  0  0  0  0  0  0
    9.9810    2.9102   24.6950 H   0  0  0  0  0  0  0  0  0  0  0  0
    8.8924    3.3064   26.0293 H   0  0  0  0  0  0  0  0  0  0  0  0
    9.7012    5.0807   25.0412 C   0  0  0  0  0  0  0  0  0  0  0  0
    9.9122    5.4012   26.0653 H   0  0  0  0  0  0  0  0  0  0  0  0
   10.6290    5.1950   24.4743 H   0  0  0  0  0  0  0  0  0  0  0  0
    8.5673    5.9190   24.3990 C   0  0  0  0  0  0  0  0  0  0  0  0
    8.8694    6.2564   23.4015 H   0  0  0  0  0  0  0  0  0  0  0  0
    8.3299    6.8148   24.9797 H   0  0  0  0  0  0  0  0  0  0  0  0
    7.3672    4.9661   24.2909 C   0  0  0  0  0  0  0  0  0  0  0  0
    6.7918    4.9620   25.2247 H   0  0  0  0  0  0  0  0  0  0  0  0
    6.6875    5.2252   23.4718 H   0  0  0  0  0  0  0  0  0  0  0  0
    8.3073   -1.3922   22.8769 C   0  0  0  0  0  0  0  0  0  0  0  0
    8.6728   -1.5306   23.8889 H   0  0  0  0  0  0  0  0  0  0  0  0
    8.5372   -2.3324   21.9625 N   0  0  0  0  0  0  0  0  0  0  0  0
    7.9804   -1.8446   20.8472 N   0  0  0  0  0  0  0  0  0  0  0  0
    7.9102   -2.4462   20.0407 H   0  0  0  0  0  0  0  0  0  0  0  0
    5.4318    0.6895   20.1182 C   0  0  0  0  0  0  0  0  0  0  0  0
    4.9924    0.6643   21.1173 H   0  0  0  0  0  0  0  0  0  0  0  0
    4.7853    1.3309   19.0592 C   0  0  0  0  0  0  0  0  0  0  0  0
    3.8464    1.8479   19.2006 H   0  0  0  0  0  0  0  0  0  0  0  0
  1  2  1  0
  2  3  2  0
  3  4  1  0
  4  5  1  0
  4  6  2  0
  6  7  1  0
  7  8  2  0
  8  9  1  0
  9 10  1  0
  9 11  1  0
 11 12  1  0
 11 13  1  0
 11 14  1  0
 14 15  1  0
 14 16  1  0
 16 17  1  0
 16 18  1  0
 18 19  1  0
 18 20  1  0
 18 21  1  0
 21 22  1  0
 21 23  1  0
 21 24  1  0
 24 25  1  0
 24 26  1  0
 24 27  1  0
 27 28  1  0
 27 29  1  0
  8 30  1  0
 30 31  1  0
 30 32  2  0
 32 33  1  0
 33 34  1  0
  6 35  1  0
 35 36  1  0
 35 37  2  0
 37 38  1  0
 37  2  1  0
 33  7  1  0
 27 16  1  0
M  END
>  <cnnaffinity>  (1) 
-5.06761

>  <filename>  (1) 
c1cncc(-c2[nH]ncc2NCNC2CCCC2)c1

$$$$
