
     RDKit          3D

 33 36  0  0  0  0  0  0  0  0999 V2000
    8.5857   -3.7133   21.4417 H   0  0  0  0  0  0  0  0  0  0  0  0
    8.3172   -2.6867   21.6584 C   0  0  0  0  0  0  0  0  0  0  0  0
    8.6119   -2.2399   22.8786 N   0  0  0  0  0  0  0  0  0  0  0  0
    8.2895   -0.9736   23.1181 C   0  0  0  0  0  0  0  0  0  0  0  0
    8.5461   -0.5826   24.1016 H   0  0  0  0  0  0  0  0  0  0  0  0
    7.6871   -0.1304   22.1817 C   0  0  0  0  0  0  0  0  0  0  0  0
    7.4523    1.2884   22.4725 C   0  0  0  0  0  0  0  0  0  0  0  0
    7.7730    2.3567   21.6792 C   0  0  0  0  0  0  0  0  0  0  0  0
    8.2438    2.3340   20.6991 H   0  0  0  0  0  0  0  0  0  0  0  0
    7.3957    3.5215   22.3046 N   0  0  0  0  0  0  0  0  0  0  0  0
    7.5103    4.4555   21.9521 H   0  0  0  0  0  0  0  0  0  0  0  0
    6.8107    3.2192   23.5092 C   0  0  0  0  0  0  0  0  0  0  0  0
    6.2663    4.0619   24.4883 C   0  0  0  0  0  0  0  0  0  0  0  0
    6.2810    5.1413   24.3410 H   0  0  0  0  0  0  0  0  0  0  0  0
    5.7191    3.4596   25.6165 C   0  0  0  0  0  0  0  0  0  0  0  0
    5.2887    4.0856   26.3933 H   0  0  0  0  0  0  0  0  0  0  0  0
    5.7054    2.0454   25.7709 C   0  0  0  0  0  0  0  0  0  0  0  0
    5.2654    1.6036   26.6613 H   0  0  0  0  0  0  0  0  0  0  0  0
    6.2478    1.2224   24.7924 C   0  0  0  0  0  0  0  0  0  0  0  0
    6.2287    0.1364   24.8818 H   0  0  0  0  0  0  0  0  0  0  0  0
    6.8239    1.8169   23.6511 C   0  0  0  0  0  0  0  0  0  0  0  0
    7.3885   -0.7414   20.9458 C   0  0  0  0  0  0  0  0  0  0  0  0
    6.6471   -0.0203   19.8977 C   0  0  0  0  0  0  0  0  0  0  0  0
    7.1726    0.0395   18.6051 C   0  0  0  0  0  0  0  0  0  0  0  0
    8.1237   -0.4374   18.3741 H   0  0  0  0  0  0  0  0  0  0  0  0
    6.5774    0.6761   17.5925 N   0  0  0  0  0  0  0  0  0  0  0  0
    5.4091    1.2881   17.8465 C   0  0  0  0  0  0  0  0  0  0  0  0
    4.9210    1.7758   17.0034 H   0  0  0  0  0  0  0  0  0  0  0  0
    4.8055    1.3016   19.1093 C   0  0  0  0  0  0  0  0  0  0  0  0
    3.8757    1.8414   19.2595 H   0  0  0  0  0  0  0  0  0  0  0  0
    5.4337    0.6370   20.1591 C   0  0  0  0  0  0  0  0  0  0  0  0
    5.0060    0.6375   21.1669 H   0  0  0  0  0  0  0  0  0  0  0  0
    7.7421   -2.0020   20.6778 N   0  0  0  0  0  0  0  0  0  0  0  0
  1  2  1  0
  2  3  2  0
  3  4  1  0
  4  5  1  0
  4  6  2  0
  6  7  1  0
  7  8  2  0
  8  9  1  0
  8 10  1  0
 10 11  1  0
 10 12  1  0
 12 13  2  0
 13 14  1  0
 13 15  1  0
 15 16  1  0
 15 17  2  0
 17 18  1  0
 17 19  1  0
 19 20  1  0
 19 21  2  0
  6 22  1  0
 22 23  1  0
 23 24  2  0
 24 25  1  0
 24 26  1  0
 26 27  2  0
 27 28  1  0
 27 29  1  0
 29 30  1  0
 29 31  2  0
 31 32  1  0
 22 33  2  0
 33  2  1  0
 21  7  1  0
 31 23  1  0
 21 12  1  0
M  END
>  <cnnaffinity>  (1) 
-5.32224

>  <filename>  (1) 
c1cncc(-c2ncncc2-c2c[nH]c3ccccc23)c1

$$$$
