
     RDKit          3D

 32 35  0  0  0  0  0  0  0  0999 V2000
    5.2420    1.7799   16.9252 H   0  0  0  0  0  0  0  0  0  0  0  0
    5.5950    1.2729   17.8226 C   0  0  0  0  0  0  0  0  0  0  0  0
    6.7476    0.5976   17.6963 N   0  0  0  0  0  0  0  0  0  0  0  0
    7.1990   -0.0499   18.7765 C   0  0  0  0  0  0  0  0  0  0  0  0
    8.1601   -0.5498   18.6762 H   0  0  0  0  0  0  0  0  0  0  0  0
    6.5145   -0.1066   20.0092 C   0  0  0  0  0  0  0  0  0  0  0  0
    6.9946   -0.9453   21.1276 C   0  0  0  0  0  0  0  0  0  0  0  0
    6.3008   -1.8477   21.8464 C   0  0  0  0  0  0  0  0  0  0  0  0
    5.2711   -2.1282   21.6833 H   0  0  0  0  0  0  0  0  0  0  0  0
    7.2405   -2.6091   23.1051 S   0  0  0  0  0  0  0  0  0  0  0  0
    8.6290   -1.6732   22.6229 C   0  0  0  0  0  0  0  0  0  0  0  0
    9.9155   -1.5809   22.9108 N   0  0  0  0  0  0  0  0  0  0  0  0
   10.3498   -0.7464   21.9246 C   0  0  0  0  0  0  0  0  0  0  0  0
   11.7765   -0.4343   21.7112 C   0  0  1  0  0  0  0  0  0  0  0  0
   11.7684    0.2921   20.9004 H   0  0  0  0  0  0  0  0  0  0  0  0
   12.5415    0.1692   22.8844 C   0  0  0  0  0  0  0  0  0  0  0  0
   12.3030    1.2261   23.0340 H   0  0  0  0  0  0  0  0  0  0  0  0
   12.3070   -0.3538   23.8291 H   0  0  0  0  0  0  0  0  0  0  0  0
   13.9109    0.0295   22.4056 N   0  0  0  0  0  0  0  0  0  0  0  0
   14.6125    0.1382   23.1261 H   0  0  0  0  0  0  0  0  0  0  0  0
   14.0704   -1.2211   21.6673 C   0  0  0  0  0  0  0  0  0  0  0  0
   14.6041   -1.9840   22.2467 H   0  0  0  0  0  0  0  0  0  0  0  0
   14.6339   -1.0635   20.7361 H   0  0  0  0  0  0  0  0  0  0  0  0
   12.6406   -1.6736   21.3950 C   0  0  0  0  0  0  0  0  0  0  0  0
   12.3703   -2.4732   22.0945 H   0  0  0  0  0  0  0  0  0  0  0  0
   12.5063   -2.0644   20.3887 H   0  0  0  0  0  0  0  0  0  0  0  0
    9.4322   -0.3066   21.0804 N   0  0  0  0  0  0  0  0  0  0  0  0
    8.3164   -0.9042   21.5623 N   0  0  0  0  0  0  0  0  0  0  0  0
    5.3310    0.6408   20.1307 C   0  0  0  0  0  0  0  0  0  0  0  0
    4.8130    0.6988   21.0904 H   0  0  0  0  0  0  0  0  0  0  0  0
    4.8684    1.3396   19.0144 C   0  0  0  0  0  0  0  0  0  0  0  0
    3.9648    1.9368   19.0541 H   0  0  0  0  0  0  0  0  0  0  0  0
  1  2  1  0
  2  3  2  0
  3  4  1  0
  4  5  1  0
  4  6  2  0
  6  7  1  0
  7  8  2  0
  8  9  1  0
  8 10  1  0
 10 11  1  0
 11 12  2  0
 12 13  1  0
 13 14  1  0
 14 15  1  6
 14 16  1  0
 16 17  1  0
 16 18  1  0
 16 19  1  0
 19 20  1  0
 19 21  1  0
 21 22  1  0
 21 23  1  0
 21 24  1  0
 24 25  1  0
 24 26  1  0
 13 27  2  0
 27 28  1  0
  6 29  1  0
 29 30  1  0
 29 31  2  0
 31 32  1  0
 31  2  1  0
 28  7  1  0
 28 11  1  0
 24 14  1  0
M  END
>  <cnnaffinity>  (1) 
-5.26722

>  <filename>  (1) 
c1cncc(-c2csc3nc([C@@H]4CCNC4)nn23)c1

$$$$
