
     RDKit          3D

 47 49  0  0  0  0  0  0  0  0999 V2000
    5.1712    1.6437   16.9313 H   0  0  0  0  0  0  0  0  0  0  0  0
    5.5580    1.1920   17.8424 C   0  0  0  0  0  0  0  0  0  0  0  0
    6.7113    0.5220   17.7317 N   0  0  0  0  0  0  0  0  0  0  0  0
    7.2310   -0.0183   18.8478 C   0  0  0  0  0  0  0  0  0  0  0  0
    8.1738   -0.5448   18.7046 H   0  0  0  0  0  0  0  0  0  0  0  0
    6.6454    0.0688   20.1232 C   0  0  0  0  0  0  0  0  0  0  0  0
    7.2122   -0.5189   21.4219 C   0  0  1  0  0  0  0  0  0  0  0  0
    7.0052    0.2369   22.1867 H   0  0  0  0  0  0  0  0  0  0  0  0
    6.4643   -1.8050   21.8414 C   0  0  0  0  0  0  0  0  0  0  0  0
    5.3956   -1.6803   21.6391 H   0  0  0  0  0  0  0  0  0  0  0  0
    6.6031   -1.9579   22.9209 H   0  0  0  0  0  0  0  0  0  0  0  0
    6.9596   -3.0346   21.0807 C   0  0  0  0  0  0  0  0  0  0  0  0
    6.7246   -2.9121   20.0160 H   0  0  0  0  0  0  0  0  0  0  0  0
    6.4217   -3.9311   21.4052 H   0  0  0  0  0  0  0  0  0  0  0  0
    8.3955   -3.2879   21.2412 N   0  0  0  0  0  0  0  0  0  0  0  0
    8.5575   -3.5325   22.2185 H   0  0  0  0  0  0  0  0  0  0  0  0
    9.2098   -2.0904   20.9338 C   0  0  0  0  0  0  0  0  0  0  0  0
   10.2313   -2.2912   21.2819 H   0  0  0  0  0  0  0  0  0  0  0  0
    9.2877   -1.9599   19.8491 H   0  0  0  0  0  0  0  0  0  0  0  0
    8.7561   -0.7182   21.5130 C   0  0  2  0  0  0  0  0  0  0  0  0
    9.1998    0.0551   20.8694 H   0  0  0  0  0  0  0  0  0  0  0  0
    9.2010   -0.5032   22.9077 N   0  0  0  0  0  0  0  0  0  0  0  0
    9.5077   -1.3645   23.3499 H   0  0  0  0  0  0  0  0  0  0  0  0
   10.0849    0.6193   23.1747 C   0  0  0  0  0  0  0  0  0  0  0  0
   10.2752    0.6302   24.2563 H   0  0  0  0  0  0  0  0  0  0  0  0
    9.5401    1.5497   22.9495 H   0  0  0  0  0  0  0  0  0  0  0  0
   11.4485    0.6815   22.4258 C   0  0  0  0  0  0  0  0  0  0  0  0
   12.0980   -0.1129   22.8195 H   0  0  0  0  0  0  0  0  0  0  0  0
   11.2942    0.4313   21.3644 H   0  0  0  0  0  0  0  0  0  0  0  0
   12.1475    1.9857   22.4940 N   0  0  0  0  0  0  0  0  0  0  0  0
   11.6956    2.9317   21.4549 C   0  0  0  0  0  0  0  0  0  0  0  0
   11.8152    2.4772   20.4656 H   0  0  0  0  0  0  0  0  0  0  0  0
   10.6266    3.1831   21.5898 H   0  0  0  0  0  0  0  0  0  0  0  0
   12.5103    4.2277   21.5337 C   0  0  0  0  0  0  0  0  0  0  0  0
   13.5814    3.9996   21.4122 H   0  0  0  0  0  0  0  0  0  0  0  0
   12.2325    4.9437   20.7560 H   0  0  0  0  0  0  0  0  0  0  0  0
   12.2803    4.8868   22.7733 O   0  0  0  0  0  0  0  0  0  0  0  0
   12.6725    4.0549   23.8507 C   0  0  0  0  0  0  0  0  0  0  0  0
   13.7728    3.9815   23.8847 H   0  0  0  0  0  0  0  0  0  0  0  0
   12.3260    4.5719   24.7542 H   0  0  0  0  0  0  0  0  0  0  0  0
   12.0364    2.6496   23.8113 C   0  0  0  0  0  0  0  0  0  0  0  0
   12.5164    2.0223   24.5724 H   0  0  0  0  0  0  0  0  0  0  0  0
   10.9788    2.7831   24.1010 H   0  0  0  0  0  0  0  0  0  0  0  0
    5.4093    0.7430   20.1958 C   0  0  0  0  0  0  0  0  0  0  0  0
    4.8836    0.8118   21.1517 H   0  0  0  0  0  0  0  0  0  0  0  0
    4.8612    1.3221   19.0514 C   0  0  0  0  0  0  0  0  0  0  0  0
    3.9289    1.8740   19.0796 H   0  0  0  0  0  0  0  0  0  0  0  0
  1  2  1  0
  2  3  2  0
  3  4  1  0
  4  5  1  0
  4  6  2  0
  6  7  1  0
  7  8  1  1
  7  9  1  0
  9 10  1  0
  9 11  1  0
  9 12  1  0
 12 13  1  0
 12 14  1  0
 12 15  1  0
 15 16  1  0
 15 17  1  0
 17 18  1  0
 17 19  1  0
 17 20  1  0
 20 21  1  6
 20 22  1  0
 22 23  1  0
 22 24  1  0
 24 25  1  0
 24 26  1  0
 24 27  1  0
 27 28  1  0
 27 29  1  0
 27 30  1  0
 30 31  1  0
 31 32  1  0
 31 33  1  0
 31 34  1  0
 34 35  1  0
 34 36  1  0
 34 37  1  0
 37 38  1  0
 38 39  1  0
 38 40  1  0
 38 41  1  0
 41 42  1  0
 41 43  1  0
  6 44  1  0
 44 45  1  0
 44 46  2  0
 46 47  1  0
 46  2  1  0
 20  7  1  0
 41 30  1  0
M  END
>  <cnnaffinity>  (1) 
-4.16883

>  <filename>  (1) 
c1cncc([C@H]2CCNC[C@@H]2NCCN2CCOCC2)c1

$$$$
