
     RDKit          3D

 32 35  0  0  0  0  0  0  0  0999 V2000
    4.9294    1.8361   16.9342 H   0  0  0  0  0  0  0  0  0  0  0  0
    5.4058    1.3257   17.7694 C   0  0  0  0  0  0  0  0  0  0  0  0
    6.5644    0.6996   17.5054 N   0  0  0  0  0  0  0  0  0  0  0  0
    7.1705    0.0715   18.5173 C   0  0  0  0  0  0  0  0  0  0  0  0
    8.1041   -0.4340   18.2658 H   0  0  0  0  0  0  0  0  0  0  0  0
    6.6640    0.0337   19.8192 C   0  0  0  0  0  0  0  0  0  0  0  0
    7.3622   -0.6543   20.9031 C   0  0  0  0  0  0  0  0  0  0  0  0
    6.8133   -0.9215   22.0644 N   0  0  0  0  0  0  0  0  0  0  0  0
    7.7804   -1.5657   22.7726 C   0  0  0  0  0  0  0  0  0  0  0  0
    7.6000   -2.1369   24.1676 C   0  0  0  0  0  0  0  0  0  0  0  0
    6.4193   -2.0243   24.7518 N   0  0  0  0  0  0  0  0  0  0  0  0
    6.2337   -2.5814   25.9800 C   0  0  0  0  0  0  0  0  0  0  0  0
    4.9864   -2.3347   26.6237 C   0  0  0  0  0  0  0  0  0  0  0  0
    4.3057   -1.6780   26.0942 H   0  0  0  0  0  0  0  0  0  0  0  0
    4.6918   -2.9529   27.8159 C   0  0  0  0  0  0  0  0  0  0  0  0
    3.7499   -2.7479   28.3193 H   0  0  0  0  0  0  0  0  0  0  0  0
    5.6143   -3.8774   28.3919 C   0  0  0  0  0  0  0  0  0  0  0  0
    5.3507   -4.3772   29.3216 H   0  0  0  0  0  0  0  0  0  0  0  0
    6.8323   -4.1246   27.7927 C   0  0  0  0  0  0  0  0  0  0  0  0
    7.5341   -4.8312   28.2284 H   0  0  0  0  0  0  0  0  0  0  0  0
    7.2087   -3.4079   26.6185 C   0  0  0  0  0  0  0  0  0  0  0  0
    8.5071   -3.4308   26.0174 C   0  0  0  0  0  0  0  0  0  0  0  0
    9.3233   -3.9408   26.5284 H   0  0  0  0  0  0  0  0  0  0  0  0
    8.7134   -2.7899   24.8209 C   0  0  0  0  0  0  0  0  0  0  0  0
    9.6931   -2.7759   24.3514 H   0  0  0  0  0  0  0  0  0  0  0  0
    8.9225   -1.6877   22.0938 N   0  0  0  0  0  0  0  0  0  0  0  0
    8.6306   -1.1161   20.9089 N   0  0  0  0  0  0  0  0  0  0  0  0
    9.3530   -1.0131   20.2138 H   0  0  0  0  0  0  0  0  0  0  0  0
    5.4416    0.6756   20.0801 C   0  0  0  0  0  0  0  0  0  0  0  0
    5.0178    0.6531   21.0870 H   0  0  0  0  0  0  0  0  0  0  0  0
    4.8071    1.3336   19.0341 C   0  0  0  0  0  0  0  0  0  0  0  0
    3.8717    1.8584   19.1864 H   0  0  0  0  0  0  0  0  0  0  0  0
  1  2  1  0
  2  3  2  0
  3  4  1  0
  4  5  1  0
  4  6  2  0
  6  7  1  0
  7  8  2  0
  8  9  1  0
  9 10  1  0
 10 11  2  0
 11 12  1  0
 12 13  2  0
 13 14  1  0
 13 15  1  0
 15 16  1  0
 15 17  2  0
 17 18  1  0
 17 19  1  0
 19 20  1  0
 19 21  2  0
 21 22  1  0
 22 23  1  0
 22 24  2  0
 24 25  1  0
  9 26  2  0
 26 27  1  0
 27 28  1  0
  6 29  1  0
 29 30  1  0
 29 31  2  0
 31 32  1  0
 31  2  1  0
 27  7  1  0
 24 10  1  0
 21 12  1  0
M  END
>  <cnnaffinity>  (1) 
-5.15383

>  <filename>  (1) 
c1cncc(-c2nc(-c3ccc4ccccc4n3)n[nH]2)c1

$$$$
