
     RDKit          3D

 37 40  0  0  0  0  0  0  0  0999 V2000
    4.8088    1.2957   19.0903 C   0  0  0  0  0  0  0  0  0  0  0  0
    5.3995    1.2905   17.8215 C   0  0  0  0  0  0  0  0  0  0  0  0
    6.5638    0.6703   17.5627 N   0  0  0  0  0  0  0  0  0  0  0  0
    7.1727    0.0369   18.5772 C   0  0  0  0  0  0  0  0  0  0  0  0
    6.6654   -0.0242   19.8978 C   0  0  0  0  0  0  0  0  0  0  0  0
    7.3097   -0.7082   20.9636 N   0  0  0  0  0  0  0  0  0  0  0  0
    7.3723   -0.2537   22.2558 C   0  0  0  0  0  0  0  0  0  0  0  0
    7.0342    0.9235   22.7096 N   0  0  0  0  0  0  0  0  0  0  0  0
    7.2236    0.9035   24.0750 N   0  0  0  0  0  0  0  0  0  0  0  0
    7.6627   -0.2803   24.3798 C   0  0  0  0  0  0  0  0  0  0  0  0
    7.8316   -1.0664   23.2660 N   0  0  0  0  0  0  0  0  0  0  0  0
    8.0532   -2.5164   23.2654 C   0  0  0  0  0  0  0  0  0  0  0  0
    6.7652   -3.3182   23.1665 C   0  0  0  0  0  0  0  0  0  0  0  0
    6.3885   -3.9036   21.9231 C   0  0  0  0  0  0  0  0  0  0  0  0
    5.2186   -4.6135   21.7790 C   0  0  0  0  0  0  0  0  0  0  0  0
    4.3302   -4.7573   22.8801 C   0  0  0  0  0  0  0  0  0  0  0  0
    3.0899   -5.4579   22.8102 C   0  0  0  0  0  0  0  0  0  0  0  0
    2.3130   -5.5481   23.9416 C   0  0  0  0  0  0  0  0  0  0  0  0
    2.7722   -4.9377   25.1467 C   0  0  0  0  0  0  0  0  0  0  0  0
    3.9047   -4.2815   25.2550 N   0  0  0  0  0  0  0  0  0  0  0  0
    4.6929   -4.1794   24.1399 C   0  0  0  0  0  0  0  0  0  0  0  0
    5.9224   -3.4712   24.2527 C   0  0  0  0  0  0  0  0  0  0  0  0
    6.1304   -3.0552   25.2330 H   0  0  0  0  0  0  0  0  0  0  0  0
    2.1663   -5.0054   26.0513 H   0  0  0  0  0  0  0  0  0  0  0  0
    1.3650   -6.0720   23.9521 H   0  0  0  0  0  0  0  0  0  0  0  0
    2.7925   -5.9094   21.8641 H   0  0  0  0  0  0  0  0  0  0  0  0
    4.9656   -5.0921   20.8369 H   0  0  0  0  0  0  0  0  0  0  0  0
    7.0425   -3.7793   21.0632 H   0  0  0  0  0  0  0  0  0  0  0  0
    8.7307   -2.7913   22.4489 H   0  0  0  0  0  0  0  0  0  0  0  0
    8.5855   -2.7627   24.1930 H   0  0  0  0  0  0  0  0  0  0  0  0
    7.8644   -0.6255   25.3857 H   0  0  0  0  0  0  0  0  0  0  0  0
    7.9650   -1.4465   20.7800 H   0  0  0  0  0  0  0  0  0  0  0  0
    5.4521    0.6382   20.1449 C   0  0  0  0  0  0  0  0  0  0  0  0
    5.0768    0.6405   21.1680 H   0  0  0  0  0  0  0  0  0  0  0  0
    8.1259   -0.4322   18.3382 H   0  0  0  0  0  0  0  0  0  0  0  0
    4.9320    1.8044   16.9837 H   0  0  0  0  0  0  0  0  0  0  0  0
    3.8778    1.8351   19.2459 H   0  0  0  0  0  0  0  0  0  0  0  0
  1  2  2  0
  2  3  1  0
  3  4  2  0
  4  5  1  0
  5  6  1  0
  6  7  1  0
  7  8  2  0
  8  9  1  0
  9 10  2  0
 10 11  1  0
 11 12  1  0
 12 13  1  0
 13 14  2  0
 14 15  1  0
 15 16  2  0
 16 17  1  0
 17 18  2  0
 18 19  1  0
 19 20  2  0
 20 21  1  0
 21 22  2  0
 22 23  1  0
 19 24  1  0
 18 25  1  0
 17 26  1  0
 15 27  1  0
 14 28  1  0
 12 29  1  0
 12 30  1  0
 10 31  1  0
  6 32  1  0
  5 33  2  0
 33 34  1  0
  4 35  1  0
  2 36  1  0
  1 37  1  0
 33  1  1  0
 11  7  1  0
 22 13  1  0
 21 16  1  0
M  END
>  <cnnaffinity>  (1) 
-5.65954

>  <filename>  (1) 
c1cncc(Nc2nncn2Cc2ccc3cccnc3c2)c1

$$$$
