
     RDKit          3D

 37 40  0  0  0  0  0  0  0  0999 V2000
    4.9140    1.8121   16.9644 H   0  0  0  0  0  0  0  0  0  0  0  0
    5.3855    1.3097   17.8091 C   0  0  0  0  0  0  0  0  0  0  0  0
    6.5446    0.6813   17.5533 N   0  0  0  0  0  0  0  0  0  0  0  0
    7.1568    0.0746   18.5792 C   0  0  0  0  0  0  0  0  0  0  0  0
    8.0955   -0.4214   18.3355 H   0  0  0  0  0  0  0  0  0  0  0  0
    6.6582    0.0353   19.9017 C   0  0  0  0  0  0  0  0  0  0  0  0
    7.2989   -0.7160   20.9997 C   0  0  0  0  0  0  0  0  0  0  0  0
    6.7439   -1.6964   21.7888 C   0  0  0  0  0  0  0  0  0  0  0  0
    5.7070   -1.9900   21.7087 H   0  0  0  0  0  0  0  0  0  0  0  0
    7.7597   -2.2026   22.6442 C   0  0  0  0  0  0  0  0  0  0  0  0
    7.6604   -2.9636   23.4086 H   0  0  0  0  0  0  0  0  0  0  0  0
    8.9008   -1.4991   22.3479 C   0  0  0  0  0  0  0  0  0  0  0  0
    9.9039   -1.5088   22.7497 H   0  0  0  0  0  0  0  0  0  0  0  0
    8.6174   -0.5841   21.3716 N   0  0  0  0  0  0  0  0  0  0  0  0
    9.6181    0.3104   20.8092 C   0  0  0  0  0  0  0  0  0  0  0  0
   10.3137   -0.3183   20.2429 H   0  0  0  0  0  0  0  0  0  0  0  0
    9.1069    0.9875   20.1251 H   0  0  0  0  0  0  0  0  0  0  0  0
   10.3548    1.1187   21.8474 C   0  0  0  0  0  0  0  0  0  0  0  0
   11.6671    0.8326   22.1504 C   0  0  0  0  0  0  0  0  0  0  0  0
   12.2180    0.0686   21.5967 H   0  0  0  0  0  0  0  0  0  0  0  0
   12.3813    1.4352   23.1381 N   0  0  0  0  0  0  0  0  0  0  0  0
   11.7728    2.3634   23.8455 C   0  0  0  0  0  0  0  0  0  0  0  0
   12.3496    2.8225   24.6401 H   0  0  0  0  0  0  0  0  0  0  0  0
   10.4280    2.7920   23.6387 C   0  0  0  0  0  0  0  0  0  0  0  0
    9.8063    3.8133   24.4214 C   0  0  0  0  0  0  0  0  0  0  0  0
   10.3800    4.3485   25.1720 H   0  0  0  0  0  0  0  0  0  0  0  0
    8.4952    4.1532   24.2066 C   0  0  0  0  0  0  0  0  0  0  0  0
    8.0391    4.9185   24.8228 H   0  0  0  0  0  0  0  0  0  0  0  0
    7.7476    3.5211   23.1800 C   0  0  0  0  0  0  0  0  0  0  0  0
    6.7164    3.8226   23.0141 H   0  0  0  0  0  0  0  0  0  0  0  0
    8.3308    2.5504   22.3920 C   0  0  0  0  0  0  0  0  0  0  0  0
    7.7473    2.0725   21.6097 H   0  0  0  0  0  0  0  0  0  0  0  0
    9.6868    2.1444   22.6017 C   0  0  0  0  0  0  0  0  0  0  0  0
    5.4307    0.6714   20.1289 C   0  0  0  0  0  0  0  0  0  0  0  0
    4.9971    0.6481   21.1277 H   0  0  0  0  0  0  0  0  0  0  0  0
    4.7934    1.3305   19.0777 C   0  0  0  0  0  0  0  0  0  0  0  0
    3.8563    1.8567   19.2255 H   0  0  0  0  0  0  0  0  0  0  0  0
  1  2  1  0
  2  3  2  0
  3  4  1  0
  4  5  1  0
  4  6  2  0
  6  7  1  0
  7  8  2  0
  8  9  1  0
  8 10  1  0
 10 11  1  0
 10 12  2  0
 12 13  1  0
 12 14  1  0
 14 15  1  0
 15 16  1  0
 15 17  1  0
 15 18  1  0
 18 19  2  0
 19 20  1  0
 19 21  1  0
 21 22  2  0
 22 23  1  0
 22 24  1  0
 24 25  2  0
 25 26  1  0
 25 27  1  0
 27 28  1  0
 27 29  2  0
 29 30  1  0
 29 31  1  0
 31 32  1  0
 31 33  2  0
  6 34  1  0
 34 35  1  0
 34 36  2  0
 36 37  1  0
 36  2  1  0
 14  7  1  0
 33 18  1  0
 33 24  1  0
M  END
>  <cnnaffinity>  (1) 
-5.4196

>  <filename>  (1) 
c1cncc(-c2cccn2Cc2cncc3ccccc23)c1

$$$$
