
     RDKit          3D

 30 32  0  0  0  0  0  0  0  0999 V2000
    4.9202    1.7988   16.9482 H   0  0  0  0  0  0  0  0  0  0  0  0
    5.3764    1.3120   17.8053 C   0  0  0  0  0  0  0  0  0  0  0  0
    6.5429    0.6928   17.5674 N   0  0  0  0  0  0  0  0  0  0  0  0
    7.1468    0.1207   18.6189 C   0  0  0  0  0  0  0  0  0  0  0  0
    8.0965   -0.3678   18.4021 H   0  0  0  0  0  0  0  0  0  0  0  0
    6.6452    0.1328   19.9455 C   0  0  0  0  0  0  0  0  0  0  0  0
    7.3615   -0.5292   21.0719 C   0  0  0  0  0  0  0  0  0  0  0  0
    8.0238   -1.7969   21.0304 C   0  0  0  0  0  0  0  0  0  0  0  0
    8.0128   -2.4263   20.1715 H   0  0  0  0  0  0  0  0  0  0  0  0
    8.5769   -2.2752   22.0984 N   0  0  0  0  0  0  0  0  0  0  0  0
    8.3363   -1.2041   23.3488 S   0  0  0  0  0  0  0  0  0  0  0  0
    7.4264   -0.0897   22.3691 C   0  0  0  0  0  0  0  0  0  0  0  0
    6.8175    1.0073   22.8186 O   0  0  0  0  0  0  0  0  0  0  0  0
    7.1304    1.4628   24.1510 C   0  0  0  0  0  0  0  0  0  0  0  0
    6.3944    2.2473   24.3214 H   0  0  0  0  0  0  0  0  0  0  0  0
    6.9349    0.6607   24.8665 H   0  0  0  0  0  0  0  0  0  0  0  0
    8.5663    1.9340   24.2844 C   0  0  0  0  0  0  0  0  0  0  0  0
    9.1037    2.9377   23.4715 C   0  0  0  0  0  0  0  0  0  0  0  0
    8.5079    3.4293   22.7133 H   0  0  0  0  0  0  0  0  0  0  0  0
   10.4541    3.2832   23.6082 C   0  0  0  0  0  0  0  0  0  0  0  0
   10.8752    4.0969   23.0243 H   0  0  0  0  0  0  0  0  0  0  0  0
   11.3009    2.6678   24.4401 N   0  0  0  0  0  0  0  0  0  0  0  0
   10.7936    1.6771   25.1797 C   0  0  0  0  0  0  0  0  0  0  0  0
   11.4903    1.1348   25.8055 H   0  0  0  0  0  0  0  0  0  0  0  0
    9.4491    1.3044   25.1676 C   0  0  0  0  0  0  0  0  0  0  0  0
    9.1338    0.4714   25.7839 H   0  0  0  0  0  0  0  0  0  0  0  0
    5.4064    0.7675   20.1502 C   0  0  0  0  0  0  0  0  0  0  0  0
    4.9661    0.7781   21.1473 H   0  0  0  0  0  0  0  0  0  0  0  0
    4.7602    1.3592   19.0605 C   0  0  0  0  0  0  0  0  0  0  0  0
    3.8025    1.8585   19.1711 H   0  0  0  0  0  0  0  0  0  0  0  0
  1  2  1  0
  2  3  2  0
  3  4  1  0
  4  5  1  0
  4  6  2  0
  6  7  1  0
  7  8  1  0
  8  9  1  0
  8 10  2  0
 10 11  1  0
 11 12  1  0
 12 13  1  0
 13 14  1  0
 14 15  1  0
 14 16  1  0
 14 17  1  0
 17 18  2  0
 18 19  1  0
 18 20  1  0
 20 21  1  0
 20 22  2  0
 22 23  1  0
 23 24  1  0
 23 25  2  0
 25 26  1  0
  6 27  1  0
 27 28  1  0
 27 29  2  0
 29 30  1  0
 29  2  1  0
 12  7  2  0
 25 17  1  0
M  END
>  <cnnaffinity>  (1) 
-5.03835

>  <filename>  (1) 
c1cncc(-c2cnsc2OCc2ccncc2)c1

$$$$
