
     RDKit          3D

 38 42  0  0  0  0  0  0  0  0999 V2000
    4.9627    1.8372   16.9481 H   0  0  0  0  0  0  0  0  0  0  0  0
    5.3880    1.3072   17.7955 C   0  0  0  0  0  0  0  0  0  0  0  0
    6.5450    0.6602   17.5865 N   0  0  0  0  0  0  0  0  0  0  0  0
    7.0980    0.0295   18.6333 C   0  0  0  0  0  0  0  0  0  0  0  0
    8.0466   -0.4641   18.4130 H   0  0  0  0  0  0  0  0  0  0  0  0
    6.5189   -0.0227   19.9212 C   0  0  0  0  0  0  0  0  0  0  0  0
    7.2568   -0.6601   21.0338 C   0  0  0  0  0  0  0  0  0  0  0  0
    8.6111   -0.6332   21.2565 C   0  0  0  0  0  0  0  0  0  0  0  0
    8.8205   -1.1946   22.5103 C   0  0  0  0  0  0  0  0  0  0  0  0
    7.7067   -1.6529   23.0492 N   0  0  0  0  0  0  0  0  0  0  0  0
    6.7548   -1.2990   22.1395 N   0  0  0  0  0  0  0  0  0  0  0  0
    5.7890   -1.4651   22.3861 H   0  0  0  0  0  0  0  0  0  0  0  0
   10.2337   -1.0331   22.9854 C   0  0  0  0  0  0  0  0  0  0  0  0
   10.3023   -0.4864   23.9332 H   0  0  0  0  0  0  0  0  0  0  0  0
   10.7069   -2.0006   23.1541 H   0  0  0  0  0  0  0  0  0  0  0  0
   10.9219   -0.2315   21.8154 C   0  0  2  0  0  0  0  0  0  0  0  0
   11.7254   -0.8575   21.4132 H   0  0  0  0  0  0  0  0  0  0  0  0
   11.5360    1.0705   22.2738 C   0  0  0  0  0  0  0  0  0  0  0  0
   12.8595    1.3588   22.2443 C   0  0  0  0  0  0  0  0  0  0  0  0
   13.6618    0.7272   21.8885 H   0  0  0  0  0  0  0  0  0  0  0  0
   13.2710    2.9220   22.8607 S   0  0  0  0  0  0  0  0  0  0  0  0
   11.6044    3.2621   23.2052 C   0  0  0  0  0  0  0  0  0  0  0  0
   11.0863    4.4431   23.7793 C   0  0  0  0  0  0  0  0  0  0  0  0
   11.7423    5.2703   24.0352 H   0  0  0  0  0  0  0  0  0  0  0  0
    9.7194    4.5267   24.0087 C   0  0  0  0  0  0  0  0  0  0  0  0
    9.2946    5.4259   24.4573 H   0  0  0  0  0  0  0  0  0  0  0  0
    8.8741    3.4509   23.6613 C   0  0  0  0  0  0  0  0  0  0  0  0
    7.8066    3.5258   23.8482 H   0  0  0  0  0  0  0  0  0  0  0  0
    9.3829    2.2968   23.0813 C   0  0  0  0  0  0  0  0  0  0  0  0
    8.7223    1.4753   22.8059 H   0  0  0  0  0  0  0  0  0  0  0  0
   10.7746    2.1799   22.8430 C   0  0  0  0  0  0  0  0  0  0  0  0
    9.8493   -0.0432   20.6837 C   0  0  0  0  0  0  0  0  0  0  0  0
    9.7270    1.0078   20.3860 H   0  0  0  0  0  0  0  0  0  0  0  0
   10.1456   -0.5775   19.7811 H   0  0  0  0  0  0  0  0  0  0  0  0
    5.3030    0.6600   20.1038 C   0  0  0  0  0  0  0  0  0  0  0  0
    4.8455    0.7046   21.0905 H   0  0  0  0  0  0  0  0  0  0  0  0
    4.7298    1.3341   19.0281 C   0  0  0  0  0  0  0  0  0  0  0  0
    3.8132    1.9048   19.1466 H   0  0  0  0  0  0  0  0  0  0  0  0
  1  2  1  0
  2  3  2  0
  3  4  1  0
  4  5  1  0
  4  6  2  0
  6  7  1  0
  7  8  2  0
  8  9  1  0
  9 10  2  0
 10 11  1  0
 11 12  1  0
  9 13  1  0
 13 14  1  0
 13 15  1  0
 13 16  1  0
 16 17  1  6
 16 18  1  0
 18 19  2  0
 19 20  1  0
 19 21  1  0
 21 22  1  0
 22 23  2  0
 23 24  1  0
 23 25  1  0
 25 26  1  0
 25 27  2  0
 27 28  1  0
 27 29  1  0
 29 30  1  0
 29 31  2  0
 16 32  1  0
 32 33  1  0
 32 34  1  0
  6 35  1  0
 35 36  1  0
 35 37  2  0
 37 38  1  0
 37  2  1  0
 11  7  1  0
 31 18  1  0
 32  8  1  0
 31 22  1  0
M  END
>  <cnnaffinity>  (1) 
-6.21527

>  <filename>  (1) 
c1cncc(-c2[nH]nc3c2C[C@@H](c2csc4ccccc24)C3)c1

$$$$
