
     RDKit          3D

 30 32  0  0  0  0  0  0  0  0999 V2000
    4.9198    1.7762   17.0013 H   0  0  0  0  0  0  0  0  0  0  0  0
    5.4065    1.2887   17.8416 C   0  0  0  0  0  0  0  0  0  0  0  0
    6.5713    0.6734   17.5815 N   0  0  0  0  0  0  0  0  0  0  0  0
    7.1810    0.0554   18.5974 C   0  0  0  0  0  0  0  0  0  0  0  0
    8.1264   -0.4326   18.3780 H   0  0  0  0  0  0  0  0  0  0  0  0
    6.6610    0.0079   19.9008 C   0  0  0  0  0  0  0  0  0  0  0  0
    7.3791   -0.6926   20.9622 C   0  0  0  0  0  0  0  0  0  0  0  0
    8.5252   -1.4210   20.7398 N   0  0  0  0  0  0  0  0  0  0  0  0
    8.8657   -1.8923   21.9107 C   0  0  0  0  0  0  0  0  0  0  0  0
    9.7355   -2.5081   22.1205 H   0  0  0  0  0  0  0  0  0  0  0  0
    7.9854   -1.5403   22.8929 N   0  0  0  0  0  0  0  0  0  0  0  0
    8.1102   -1.7688   24.3271 C   0  0  0  0  0  0  0  0  0  0  0  0
    8.5831   -2.7379   24.4925 H   0  0  0  0  0  0  0  0  0  0  0  0
    7.1093   -1.8180   24.7631 H   0  0  0  0  0  0  0  0  0  0  0  0
    8.9038   -0.6800   25.0034 C   0  0  0  0  0  0  0  0  0  0  0  0
    8.2921    0.4860   25.4676 C   0  0  0  0  0  0  0  0  0  0  0  0
    7.2179    0.6190   25.3932 H   0  0  0  0  0  0  0  0  0  0  0  0
    9.0865    1.4967   26.0044 C   0  0  0  0  0  0  0  0  0  0  0  0
    8.6233    2.4001   26.3867 H   0  0  0  0  0  0  0  0  0  0  0  0
   10.4213    1.4332   26.0805 N   0  0  0  0  0  0  0  0  0  0  0  0
   10.9984    0.3100   25.6429 C   0  0  0  0  0  0  0  0  0  0  0  0
   12.0780    0.2542   25.7295 H   0  0  0  0  0  0  0  0  0  0  0  0
   10.2929   -0.7547   25.0908 C   0  0  0  0  0  0  0  0  0  0  0  0
   10.8184   -1.6235   24.7155 H   0  0  0  0  0  0  0  0  0  0  0  0
    7.0440   -0.7382   22.2899 C   0  0  0  0  0  0  0  0  0  0  0  0
    6.2417   -0.2613   22.8363 H   0  0  0  0  0  0  0  0  0  0  0  0
    5.4386    0.6537   20.1555 C   0  0  0  0  0  0  0  0  0  0  0  0
    4.9943    0.6394   21.1555 H   0  0  0  0  0  0  0  0  0  0  0  0
    4.8072    1.3088   19.1064 C   0  0  0  0  0  0  0  0  0  0  0  0
    3.8754    1.8416   19.2617 H   0  0  0  0  0  0  0  0  0  0  0  0
  1  2  1  0
  2  3  2  0
  3  4  1  0
  4  5  1  0
  4  6  2  0
  6  7  1  0
  7  8  1  0
  8  9  2  0
  9 10  1  0
  9 11  1  0
 11 12  1  0
 12 13  1  0
 12 14  1  0
 12 15  1  0
 15 16  2  0
 16 17  1  0
 16 18  1  0
 18 19  1  0
 18 20  2  0
 20 21  1  0
 21 22  1  0
 21 23  2  0
 23 24  1  0
 11 25  1  0
 25 26  1  0
  6 27  1  0
 27 28  1  0
 27 29  2  0
 29 30  1  0
 29  2  1  0
 25  7  2  0
 23 15  1  0
M  END
>  <cnnaffinity>  (1) 
-5.12086

>  <filename>  (1) 
c1cncc(-c2cn(Cc3ccncc3)cn2)c1

$$$$
