
     RDKit          3D

 30 32  0  0  0  0  0  0  0  0999 V2000
    4.9578    1.8178   16.9869 H   0  0  0  0  0  0  0  0  0  0  0  0
    5.4212    1.2902   17.8165 C   0  0  0  0  0  0  0  0  0  0  0  0
    6.5827    0.6635   17.5595 N   0  0  0  0  0  0  0  0  0  0  0  0
    7.1813    0.0183   18.5732 C   0  0  0  0  0  0  0  0  0  0  0  0
    8.1335   -0.4643   18.3391 H   0  0  0  0  0  0  0  0  0  0  0  0
    6.6611   -0.0416   19.8888 C   0  0  0  0  0  0  0  0  0  0  0  0
    7.2888   -0.7177   20.9340 N   0  0  0  0  0  0  0  0  0  0  0  0
    8.0622   -1.3543   20.7262 H   0  0  0  0  0  0  0  0  0  0  0  0
    7.3301   -0.2375   22.2491 C   0  0  0  0  0  0  0  0  0  0  0  0
    7.2462    1.0742   22.7944 C   0  0  0  0  0  0  0  0  0  0  0  0
    7.0112    1.9932   22.2770 H   0  0  0  0  0  0  0  0  0  0  0  0
    7.5489    1.0933   24.0898 N   0  0  0  0  0  0  0  0  0  0  0  0
    7.8041   -0.1929   24.3832 N   0  0  0  0  0  0  0  0  0  0  0  0
    8.1130   -0.4364   25.3139 H   0  0  0  0  0  0  0  0  0  0  0  0
    7.6605   -1.0330   23.3304 C   0  0  0  0  0  0  0  0  0  0  0  0
    8.1189   -2.4618   23.3305 C   0  0  0  0  0  0  0  0  0  0  0  0
    8.0344   -2.9128   24.3268 H   0  0  0  0  0  0  0  0  0  0  0  0
    7.4758   -3.0397   22.6615 H   0  0  0  0  0  0  0  0  0  0  0  0
    9.5335   -2.5087   22.8285 C   0  0  0  0  0  0  0  0  0  0  0  0
    9.8360   -2.2200   21.5128 N   0  0  0  0  0  0  0  0  0  0  0  0
   11.1430   -2.1339   21.4714 C   0  0  0  0  0  0  0  0  0  0  0  0
   11.7431   -1.8963   20.6078 H   0  0  0  0  0  0  0  0  0  0  0  0
   11.7008   -2.3824   22.6773 N   0  0  0  0  0  0  0  0  0  0  0  0
   12.6880   -2.4345   22.8742 H   0  0  0  0  0  0  0  0  0  0  0  0
   10.6729   -2.6067   23.5707 C   0  0  0  0  0  0  0  0  0  0  0  0
   10.8185   -2.7112   24.6401 H   0  0  0  0  0  0  0  0  0  0  0  0
    5.4388    0.6073   20.1234 C   0  0  0  0  0  0  0  0  0  0  0  0
    5.0394    0.5850   21.1361 H   0  0  0  0  0  0  0  0  0  0  0  0
    4.8139    1.2848   19.0766 C   0  0  0  0  0  0  0  0  0  0  0  0
    3.8870    1.8224   19.2394 H   0  0  0  0  0  0  0  0  0  0  0  0
  1  2  1  0
  2  3  2  0
  3  4  1  0
  4  5  1  0
  4  6  2  0
  6  7  1  0
  7  8  1  0
  7  9  1  0
  9 10  1  0
 10 11  1  0
 10 12  2  0
 12 13  1  0
 13 14  1  0
 13 15  1  0
 15 16  1  0
 16 17  1  0
 16 18  1  0
 16 19  1  0
 19 20  1  0
 20 21  2  0
 21 22  1  0
 21 23  1  0
 23 24  1  0
 23 25  1  0
 25 26  1  0
  6 27  1  0
 27 28  1  0
 27 29  2  0
 29 30  1  0
 29  2  1  0
 15  9  2  0
 25 19  2  0
M  END
>  <cnnaffinity>  (1) 
-5.60553

>  <filename>  (1) 
c1cncc(Nc2cn[nH]c2Cc2c[nH]cn2)c1

$$$$
