
     RDKit          3D

 38 40  0  0  0  0  0  0  0  0999 V2000
    4.8030    1.3149   19.0996 C   0  0  0  0  0  0  0  0  0  0  0  0
    5.3956    1.2978   17.8326 C   0  0  0  0  0  0  0  0  0  0  0  0
    6.5609    0.6823   17.5662 N   0  0  0  0  0  0  0  0  0  0  0  0
    7.1709    0.0751   18.5888 C   0  0  0  0  0  0  0  0  0  0  0  0
    6.6574    0.0113   19.8994 C   0  0  0  0  0  0  0  0  0  0  0  0
    7.3900   -0.6940   20.9781 C   0  0  0  0  0  0  0  0  0  0  0  0
    8.7717   -0.5426   21.1160 C   0  0  0  0  0  0  0  0  0  0  0  0
    9.4347   -1.1878   22.1635 C   0  0  0  0  0  0  0  0  0  0  0  0
   10.9143   -1.0557   22.3336 C   0  0  0  0  0  0  0  0  0  0  0  0
   11.1999    0.1086   23.1798 N   0  0  0  0  0  4  0  0  0  0  0  0
   12.6296    0.3273   23.3683 C   0  0  0  0  0  0  0  0  0  0  0  0
   12.8761    1.5029   24.2859 C   0  0  0  0  0  0  0  0  0  0  0  0
   12.4695    2.8097   23.7015 C   0  0  0  0  0  0  0  0  0  0  0  0
   13.1711    3.4833   22.7573 C   0  0  0  0  0  0  0  0  0  0  0  0
   12.3444    4.9140   22.3007 S   0  0  0  0  0  0  0  0  0  0  0  0
   11.1118    4.5031   23.4302 C   0  0  0  0  0  0  0  0  0  0  0  0
   11.2913    3.3944   24.0808 N   0  0  0  0  0  0  0  0  0  0  0  0
   10.2581    5.1486   23.5679 H   0  0  0  0  0  0  0  0  0  0  0  0
   14.1159    3.1926   22.3288 H   0  0  0  0  0  0  0  0  0  0  0  0
   13.9482    1.5106   24.4496 H   0  0  0  0  0  0  0  0  0  0  0  0
   12.3836    1.3496   25.2461 H   0  0  0  0  0  0  0  0  0  0  0  0
   13.1105   -0.5659   23.7859 H   0  0  0  0  0  0  0  0  0  0  0  0
   13.1304    0.5086   22.4067 H   0  0  0  0  0  0  0  0  0  0  0  0
   10.7136   -0.0172   24.1063 H   0  0  0  0  0  0  0  0  0  0  0  0
   10.7606    0.9751   22.7591 H   0  0  0  0  0  0  0  0  0  0  0  0
   11.3391   -1.9647   22.7801 H   0  0  0  0  0  0  0  0  0  0  0  0
   11.3961   -0.9378   21.3536 H   0  0  0  0  0  0  0  0  0  0  0  0
    8.6697   -2.0010   23.0122 C   0  0  0  0  0  0  0  0  0  0  0  0
    7.3501   -2.1873   22.8912 N   0  0  0  0  0  0  0  0  0  0  0  0
    6.7343   -1.5290   21.9042 C   0  0  0  0  0  0  0  0  0  0  0  0
    5.6617   -1.6875   21.7968 H   0  0  0  0  0  0  0  0  0  0  0  0
    9.1442   -2.5534   23.8205 H   0  0  0  0  0  0  0  0  0  0  0  0
    9.3107    0.1081   20.4236 H   0  0  0  0  0  0  0  0  0  0  0  0
    5.4327    0.6479   20.1493 C   0  0  0  0  0  0  0  0  0  0  0  0
    5.0105    0.6376   21.1567 H   0  0  0  0  0  0  0  0  0  0  0  0
    8.1135   -0.4247   18.3651 H   0  0  0  0  0  0  0  0  0  0  0  0
    4.9122    1.7861   16.9908 H   0  0  0  0  0  0  0  0  0  0  0  0
    3.8721    1.8454   19.2548 H   0  0  0  0  0  0  0  0  0  0  0  0
  1  2  2  0
  2  3  1  0
  3  4  2  0
  4  5  1  0
  5  6  1  0
  6  7  2  0
  7  8  1  0
  8  9  1  0
  9 10  1  0
 10 11  1  0
 11 12  1  0
 12 13  1  0
 13 14  2  0
 14 15  1  0
 15 16  1  0
 16 17  2  0
 16 18  1  0
 14 19  1  0
 12 20  1  0
 12 21  1  0
 11 22  1  0
 11 23  1  0
 10 24  1  0
 10 25  1  0
  9 26  1  0
  9 27  1  0
  8 28  2  0
 28 29  1  0
 29 30  2  0
 30 31  1  0
 28 32  1  0
  7 33  1  0
  5 34  2  0
 34 35  1  0
  4 36  1  0
  2 37  1  0
  1 38  1  0
 34  1  1  0
 30  6  1  0
 17 13  1  0
M  CHG  1  10   1
M  END
>  <cnnaffinity>  (1) 
-5.46294

>  <filename>  (1) 
c1cncc(-c2cncc(C[NH2+]CCc3cscn3)c2)c1

$$$$
