
     RDKit          3D

 38 40  0  0  0  0  0  0  0  0999 V2000
    4.9262    1.8223   16.9702 H   0  0  0  0  0  0  0  0  0  0  0  0
    5.3842    1.3025   17.8096 C   0  0  0  0  0  0  0  0  0  0  0  0
    6.5474    0.6839   17.5581 N   0  0  0  0  0  0  0  0  0  0  0  0
    7.1498    0.0538   18.5776 C   0  0  0  0  0  0  0  0  0  0  0  0
    8.1012   -0.4197   18.3289 H   0  0  0  0  0  0  0  0  0  0  0  0
    6.6398   -0.0192   19.8912 C   0  0  0  0  0  0  0  0  0  0  0  0
    7.3621   -0.7379   21.0059 C   0  0  0  0  0  0  0  0  0  0  0  0
    7.8908   -1.6105   20.5998 H   0  0  0  0  0  0  0  0  0  0  0  0
    6.6143   -1.1398   21.7027 H   0  0  0  0  0  0  0  0  0  0  0  0
    8.4134    0.0501   21.8595 C   0  0  1  0  0  0  0  0  0  0  0  0
    7.7901    1.3385   22.4849 C   0  0  1  0  0  0  0  0  0  0  0  0
    6.8133    1.0488   22.9126 H   0  0  0  0  0  0  0  0  0  0  0  0
    8.6123    1.8675   23.6015 N   0  0  0  0  0  0  0  0  0  0  0  0
    9.5830    1.7099   23.3342 H   0  0  0  0  0  0  0  0  0  0  0  0
    8.4108    3.3227   23.6367 C   0  0  0  0  0  0  0  0  0  0  0  0
    9.2656    3.8009   24.1293 H   0  0  0  0  0  0  0  0  0  0  0  0
    7.5189    3.5770   24.2314 H   0  0  0  0  0  0  0  0  0  0  0  0
    8.2936    3.7233   22.1634 C   0  0  0  0  0  0  0  0  0  0  0  0
    9.3186    3.7938   21.7932 H   0  0  0  0  0  0  0  0  0  0  0  0
    7.7970    4.6813   21.9822 H   0  0  0  0  0  0  0  0  0  0  0  0
    7.5798    2.5287   21.5065 C   0  0  0  0  0  0  0  0  0  0  0  0
    6.5065    2.7069   21.3680 H   0  0  0  0  0  0  0  0  0  0  0  0
    7.9731    2.3021   20.5080 H   0  0  0  0  0  0  0  0  0  0  0  0
    8.9305   -0.9130   22.9840 C   0  0  0  0  0  0  0  0  0  0  0  0
    8.4928   -1.9149   22.8654 H   0  0  0  0  0  0  0  0  0  0  0  0
    8.6570   -0.5818   23.9909 H   0  0  0  0  0  0  0  0  0  0  0  0
   10.3853   -1.0326   22.8719 N   0  0  0  0  0  0  0  0  0  0  0  0
   10.8102   -0.3220   23.4594 H   0  0  0  0  0  0  0  0  0  0  0  0
   10.7092   -0.7541   21.4739 C   0  0  0  0  0  0  0  0  0  0  0  0
   10.5827   -1.6737   20.8837 H   0  0  0  0  0  0  0  0  0  0  0  0
   11.7618   -0.4628   21.3723 H   0  0  0  0  0  0  0  0  0  0  0  0
    9.7124    0.3336   21.0348 C   0  0  0  0  0  0  0  0  0  0  0  0
   10.1089    1.3300   21.2800 H   0  0  0  0  0  0  0  0  0  0  0  0
    9.5174    0.3399   19.9566 H   0  0  0  0  0  0  0  0  0  0  0  0
    5.4130    0.6264   20.1159 C   0  0  0  0  0  0  0  0  0  0  0  0
    4.9873    0.6348   21.1228 H   0  0  0  0  0  0  0  0  0  0  0  0
    4.7784    1.3028   19.0707 C   0  0  0  0  0  0  0  0  0  0  0  0
    3.8505    1.8476   19.2161 H   0  0  0  0  0  0  0  0  0  0  0  0
  1  2  1  0
  2  3  2  0
  3  4  1  0
  4  5  1  0
  4  6  2  0
  6  7  1  0
  7  8  1  0
  7  9  1  0
 10  7  1  6
 10 11  1  0
 11 12  1  1
 11 13  1  0
 13 14  1  0
 13 15  1  0
 15 16  1  0
 15 17  1  0
 15 18  1  0
 18 19  1  0
 18 20  1  0
 18 21  1  0
 21 22  1  0
 21 23  1  0
 10 24  1  0
 24 25  1  0
 24 26  1  0
 24 27  1  0
 27 28  1  0
 27 29  1  0
 29 30  1  0
 29 31  1  0
 29 32  1  0
 32 33  1  0
 32 34  1  0
  6 35  1  0
 35 36  1  0
 35 37  2  0
 37 38  1  0
 37  2  1  0
 32 10  1  0
 21 11  1  0
M  END
>  <cnnaffinity>  (1) 
-4.43883

>  <filename>  (1) 
c1cncc(C[C@]2([C@@H]3CCCN3)CCNC2)c1

$$$$
