
     RDKit          3D

 50 54  0  0  0  0  0  0  0  0999 V2000
    4.7466    1.2959   18.8882 C   0  0  0  0  0  0  0  0  0  0  0  0
    5.3808    1.2582   17.6416 C   0  0  0  0  0  0  0  0  0  0  0  0
    6.4841    0.5366   17.3943 N   0  0  0  0  0  0  0  0  0  0  0  0
    7.0200   -0.1411   18.4189 C   0  0  0  0  0  0  0  0  0  0  0  0
    6.4995   -0.1326   19.7244 C   0  0  0  0  0  0  0  0  0  0  0  0
    7.2781   -0.6549   20.9219 C   0  0  0  0  0  0  0  0  0  0  0  0
    7.9653    0.4853   21.6165 C   0  0  0  0  0  0  0  0  0  0  0  0
    9.1062    0.9519   21.1621 N   0  0  0  0  0  0  0  0  0  0  0  0
    9.4030    1.9486   22.0294 N   0  0  0  0  0  0  0  0  0  0  0  0
   10.7725    2.4632   22.0057 C   0  0  0  0  0  0  0  0  0  0  0  0
   11.7866    1.4233   22.5136 C   0  0  0  0  0  0  0  0  0  0  0  0
   13.1661    2.0223   22.8065 C   0  0  0  0  0  0  0  0  0  0  0  0
   14.2649    0.9411   22.9753 C   0  0  0  0  0  0  0  0  0  0  0  0
   14.0973   -0.3189   22.0954 C   0  0  0  0  0  0  0  0  0  0  0  0
   12.6278   -0.7069   21.9297 C   0  0  0  0  0  0  0  0  0  0  0  0
   11.8799    0.4189   21.5177 O   0  0  0  0  0  0  0  0  0  0  0  0
   12.2099   -1.1112   22.8693 H   0  0  0  0  0  0  0  0  0  0  0  0
   12.5022   -1.4664   21.1487 H   0  0  0  0  0  0  0  0  0  0  0  0
   14.6627   -1.1568   22.5247 H   0  0  0  0  0  0  0  0  0  0  0  0
   14.5222   -0.1442   21.1013 H   0  0  0  0  0  0  0  0  0  0  0  0
   15.2251    1.4046   22.7266 H   0  0  0  0  0  0  0  0  0  0  0  0
   14.3129    0.6346   24.0290 H   0  0  0  0  0  0  0  0  0  0  0  0
   13.0929    2.6211   23.7239 H   0  0  0  0  0  0  0  0  0  0  0  0
   13.4095    2.7327   22.0079 H   0  0  0  0  0  0  0  0  0  0  0  0
   11.3920    0.9568   23.4332 H   0  0  0  0  0  0  0  0  0  0  0  0
   11.0059    2.7203   20.9712 H   0  0  0  0  0  0  0  0  0  0  0  0
   10.8044    3.3793   22.5950 H   0  0  0  0  0  0  0  0  0  0  0  0
    8.3720    2.0923   22.9026 C   0  0  0  0  0  0  0  0  0  0  0  0
    8.2766    3.1599   23.8937 C   0  0  0  0  0  0  0  0  0  0  0  0
    9.2228    3.3217   24.8980 C   0  0  0  0  0  0  0  0  0  0  0  0
    9.2201    4.3323   25.7915 N   0  0  0  0  0  0  0  0  0  0  0  0
    8.2428    5.2378   25.7303 C   0  0  0  0  0  0  0  0  0  0  0  0
    7.2140    5.1495   24.7698 C   0  0  0  0  0  0  0  0  0  0  0  0
    7.2186    4.0941   23.8379 C   0  0  0  0  0  0  0  0  0  0  0  0
    6.0953    4.2843   22.9827 C   0  0  0  0  0  0  0  0  0  0  0  0
    5.4506    5.4104   23.4028 C   0  0  0  0  0  0  0  0  0  0  0  0
    6.1174    5.9361   24.4844 N   0  0  0  0  0  0  0  0  0  0  0  0
    5.8421    6.7729   24.9747 H   0  0  0  0  0  0  0  0  0  0  0  0
    4.5777    5.9041   22.9957 H   0  0  0  0  0  0  0  0  0  0  0  0
    5.8320    3.6332   22.1639 H   0  0  0  0  0  0  0  0  0  0  0  0
    8.2866    6.0552   26.4455 H   0  0  0  0  0  0  0  0  0  0  0  0
   10.0376    2.6059   25.0047 H   0  0  0  0  0  0  0  0  0  0  0  0
    7.4612    1.1574   22.6793 N   0  0  0  0  0  0  0  0  0  0  0  0
    8.0431   -1.3769   20.6174 H   0  0  0  0  0  0  0  0  0  0  0  0
    6.6229   -1.1391   21.6522 H   0  0  0  0  0  0  0  0  0  0  0  0
    5.3161    0.5826   19.9434 C   0  0  0  0  0  0  0  0  0  0  0  0
    4.8789    0.6064   20.9442 H   0  0  0  0  0  0  0  0  0  0  0  0
    7.9317   -0.7007   18.1976 H   0  0  0  0  0  0  0  0  0  0  0  0
    4.9878    1.8344   16.8062 H   0  0  0  0  0  0  0  0  0  0  0  0
    3.8610    1.9071   19.0238 H   0  0  0  0  0  0  0  0  0  0  0  0
  1  2  2  0
  2  3  1  0
  3  4  2  0
  4  5  1  0
  5  6  1  0
  6  7  1  0
  7  8  2  0
  8  9  1  0
  9 10  1  0
 10 11  1  0
 11 12  1  0
 12 13  1  0
 13 14  1  0
 14 15  1  0
 15 16  1  0
 15 17  1  0
 15 18  1  0
 14 19  1  0
 14 20  1  0
 13 21  1  0
 13 22  1  0
 12 23  1  0
 12 24  1  0
 11 25  1  0
 10 26  1  0
 10 27  1  0
  9 28  1  0
 28 29  1  0
 29 30  2  0
 30 31  1  0
 31 32  2  0
 32 33  1  0
 33 34  2  0
 34 35  1  0
 35 36  2  0
 36 37  1  0
 37 38  1  0
 36 39  1  0
 35 40  1  0
 32 41  1  0
 30 42  1  0
 28 43  2  0
  6 44  1  0
  6 45  1  0
  5 46  2  0
 46 47  1  0
  4 48  1  0
  2 49  1  0
  1 50  1  0
 46  1  1  0
 43  7  1  0
 16 11  1  0
 34 29  1  0
 37 33  1  0
M  END
>  <cnnaffinity>  (1) 
-6.79611

>  <filename>  (1) 
c1cncc(Cc2nc(-c3cncc4[nH]ccc34)n(CC3CCCCO3)n2)c1

$$$$
