
     RDKit          3D

 31 33  0  0  0  0  0  0  0  0999 V2000
    4.9221    1.8105   16.9726 H   0  0  0  0  0  0  0  0  0  0  0  0
    5.3836    1.2986   17.8145 C   0  0  0  0  0  0  0  0  0  0  0  0
    6.5455    0.6762   17.5602 N   0  0  0  0  0  0  0  0  0  0  0  0
    7.1484    0.0612   18.5870 C   0  0  0  0  0  0  0  0  0  0  0  0
    8.1003   -0.4162   18.3519 H   0  0  0  0  0  0  0  0  0  0  0  0
    6.6322   -0.0049   19.8935 C   0  0  0  0  0  0  0  0  0  0  0  0
    7.4172   -0.6841   20.9467 C   0  0  0  0  0  0  0  0  0  0  0  0
    8.7193   -0.4512   21.3196 C   0  0  0  0  0  0  0  0  0  0  0  0
    9.3404    0.3096   20.8663 H   0  0  0  0  0  0  0  0  0  0  0  0
    9.0419   -1.3531   22.3700 C   0  0  0  0  0  0  0  0  0  0  0  0
    9.9869   -1.4357   22.8935 H   0  0  0  0  0  0  0  0  0  0  0  0
    7.9272   -2.1192   22.5914 C   0  0  0  0  0  0  0  0  0  0  0  0
    7.7544   -2.9285   23.2899 H   0  0  0  0  0  0  0  0  0  0  0  0
    6.9319   -1.7139   21.7280 N   0  0  0  0  0  0  0  0  0  0  0  0
    5.6782   -2.4024   21.5084 C   0  0  0  0  0  0  0  0  0  0  0  0
    4.8988   -1.6496   21.4308 H   0  0  0  0  0  0  0  0  0  0  0  0
    5.4731   -3.0231   22.3877 H   0  0  0  0  0  0  0  0  0  0  0  0
    5.6222   -3.2170   20.3093 N   0  0  0  0  0  0  0  0  0  0  0  0
    5.8871   -2.6337   19.5149 H   0  0  0  0  0  0  0  0  0  0  0  0
    6.4710   -4.3745   20.3732 C   0  0  0  0  0  0  0  0  0  0  0  0
    7.5528   -4.2354   20.5001 H   0  0  0  0  0  0  0  0  0  0  0  0
    5.8701   -5.5301   21.1109 C   0  0  0  0  0  0  0  0  0  0  0  0
    6.5713   -6.1660   21.6435 H   0  0  0  0  0  0  0  0  0  0  0  0
    4.9247   -5.3649   21.6127 H   0  0  0  0  0  0  0  0  0  0  0  0
    5.9282   -5.5373   19.6072 C   0  0  0  0  0  0  0  0  0  0  0  0
    6.5370   -6.2683   19.0958 H   0  0  0  0  0  0  0  0  0  0  0  0
    5.0228   -5.3083   19.0696 H   0  0  0  0  0  0  0  0  0  0  0  0
    5.4086    0.6480   20.1313 C   0  0  0  0  0  0  0  0  0  0  0  0
    4.9879    0.6589   21.1371 H   0  0  0  0  0  0  0  0  0  0  0  0
    4.7805    1.3155   19.0771 C   0  0  0  0  0  0  0  0  0  0  0  0
    3.8528    1.8571   19.2236 H   0  0  0  0  0  0  0  0  0  0  0  0
  1  2  1  0
  2  3  2  0
  3  4  1  0
  4  5  1  0
  4  6  2  0
  6  7  1  0
  7  8  2  0
  8  9  1  0
  8 10  1  0
 10 11  1  0
 10 12  2  0
 12 13  1  0
 12 14  1  0
 14 15  1  0
 15 16  1  0
 15 17  1  0
 15 18  1  0
 18 19  1  0
 18 20  1  0
 20 21  1  0
 20 22  1  0
 22 23  1  0
 22 24  1  0
 22 25  1  0
 25 26  1  0
 25 27  1  0
  6 28  1  0
 28 29  1  0
 28 30  2  0
 30 31  1  0
 30  2  1  0
 14  7  1  0
 25 20  1  0
M  END
>  <cnnaffinity>  (1) 
-3.82119

>  <filename>  (1) 
c1cncc(-c2cccn2CNC2CC2)c1

$$$$
