
     RDKit          3D

 41 45  0  0  0  0  0  0  0  0999 V2000
    4.7050    1.3272   18.8797 C   0  0  0  0  0  0  0  0  0  0  0  0
    5.3405    1.2909   17.6360 C   0  0  0  0  0  0  0  0  0  0  0  0
    6.4282    0.5491   17.3810 N   0  0  0  0  0  0  0  0  0  0  0  0
    6.9418   -0.1520   18.3990 C   0  0  0  0  0  0  0  0  0  0  0  0
    6.4211   -0.1492   19.7054 C   0  0  0  0  0  0  0  0  0  0  0  0
    7.2121   -0.7167   20.8798 C   0  0  0  0  0  0  0  0  0  0  0  0
    8.0845    0.3434   21.5020 C   0  0  0  0  0  0  0  0  0  0  0  0
    9.2418    0.6853   20.9716 N   0  0  0  0  0  0  0  0  0  0  0  0
    9.6842    1.6574   21.8051 N   0  0  0  0  0  0  0  0  0  0  0  0
   11.0606    2.0621   21.8068 C   0  0  0  0  0  0  0  0  0  0  0  0
   11.6174    2.9784   20.9144 C   0  0  0  0  0  0  0  0  0  0  0  0
   12.7460    3.7463   21.2768 C   0  0  0  0  0  0  0  0  0  0  0  0
   13.4792    3.4359   22.4253 C   0  0  0  0  0  0  0  0  0  0  0  0
   13.0538    2.3336   23.1973 C   0  0  0  0  0  0  0  0  0  0  0  0
   11.8613    1.6727   22.8866 C   0  0  0  0  0  0  0  0  0  0  0  0
   11.7049    0.7094   23.8560 N   0  0  0  0  0  0  0  0  0  0  0  0
   12.7749    0.8206   24.6876 C   0  0  0  0  0  0  0  0  0  0  0  0
   13.5943    1.7592   24.3244 N   0  0  0  0  0  0  0  0  0  0  0  0
   12.8747    0.2124   25.5798 H   0  0  0  0  0  0  0  0  0  0  0  0
   11.0164   -0.0197   23.8657 H   0  0  0  0  0  0  0  0  0  0  0  0
   14.4047    3.9380   22.6837 H   0  0  0  0  0  0  0  0  0  0  0  0
   13.0170    4.6048   20.6620 H   0  0  0  0  0  0  0  0  0  0  0  0
   11.1693    3.1417   19.9476 H   0  0  0  0  0  0  0  0  0  0  0  0
    8.7423    1.8750   22.7876 C   0  0  0  0  0  0  0  0  0  0  0  0
    8.8496    2.9085   23.8285 C   0  0  0  0  0  0  0  0  0  0  0  0
    8.1140    2.9422   24.9985 C   0  0  0  0  0  0  0  0  0  0  0  0
    8.5095    4.0306   25.7164 N   0  0  0  0  0  0  0  0  0  0  0  0
    9.4657    4.7313   25.0229 C   0  0  0  0  0  0  0  0  0  0  0  0
    9.6956    4.0718   23.8500 C   0  0  0  0  0  0  0  0  0  0  0  0
   10.3962    4.3561   23.0746 H   0  0  0  0  0  0  0  0  0  0  0  0
    9.8901    5.6523   25.4003 H   0  0  0  0  0  0  0  0  0  0  0  0
    8.1404    4.2944   26.6168 H   0  0  0  0  0  0  0  0  0  0  0  0
    7.3477    2.2694   25.3616 H   0  0  0  0  0  0  0  0  0  0  0  0
    7.7357    1.0306   22.6160 N   0  0  0  0  0  0  0  0  0  0  0  0
    7.8535   -1.5477   20.5581 H   0  0  0  0  0  0  0  0  0  0  0  0
    6.5476   -1.0819   21.6706 H   0  0  0  0  0  0  0  0  0  0  0  0
    5.2508    0.5882   19.9301 C   0  0  0  0  0  0  0  0  0  0  0  0
    4.7824    0.5962   20.9164 H   0  0  0  0  0  0  0  0  0  0  0  0
    7.8332   -0.7413   18.1740 H   0  0  0  0  0  0  0  0  0  0  0  0
    4.9643    1.8840   16.8059 H   0  0  0  0  0  0  0  0  0  0  0  0
    3.8239    1.9437   19.0148 H   0  0  0  0  0  0  0  0  0  0  0  0
  1  2  2  0
  2  3  1  0
  3  4  2  0
  4  5  1  0
  5  6  1  0
  6  7  1  0
  7  8  2  0
  8  9  1  0
  9 10  1  0
 10 11  2  0
 11 12  1  0
 12 13  2  0
 13 14  1  0
 14 15  2  0
 15 16  1  0
 16 17  1  0
 17 18  2  0
 17 19  1  0
 16 20  1  0
 13 21  1  0
 12 22  1  0
 11 23  1  0
  9 24  1  0
 24 25  1  0
 25 26  2  0
 26 27  1  0
 27 28  1  0
 28 29  2  0
 29 30  1  0
 28 31  1  0
 27 32  1  0
 26 33  1  0
 24 34  2  0
  6 35  1  0
  6 36  1  0
  5 37  2  0
 37 38  1  0
  4 39  1  0
  2 40  1  0
  1 41  1  0
 37  1  1  0
 34  7  1  0
 15 10  1  0
 29 25  1  0
 18 14  1  0
M  END
>  <cnnaffinity>  (1) 
-6.09482

>  <filename>  (1) 
c1cncc(Cc2nc(-c3cc[nH]c3)n(-c3cccc4nc[nH]c34)n2)c1

$$$$
