
     RDKit          3D

 39 41  0  0  0  0  0  0  0  0999 V2000
    4.7815    1.3306   19.0487 C   0  0  0  0  0  0  0  0  0  0  0  0
    5.3898    1.3217   17.7920 C   0  0  0  0  0  0  0  0  0  0  0  0
    6.5479    0.6918   17.5385 N   0  0  0  0  0  0  0  0  0  0  0  0
    7.1505    0.0713   18.5619 C   0  0  0  0  0  0  0  0  0  0  0  0
    6.6324    0.0130   19.8789 C   0  0  0  0  0  0  0  0  0  0  0  0
    7.3624   -0.6925   20.9831 C   0  0  0  0  0  0  0  0  0  0  0  0
    8.7525   -0.5645   21.1033 C   0  0  0  0  0  0  0  0  0  0  0  0
    9.4366   -1.2427   22.1167 C   0  0  0  0  0  0  0  0  0  0  0  0
   10.9271   -1.1900   22.2500 C   0  0  0  0  0  0  0  0  0  0  0  0
   11.2238   -0.0440   23.1248 N   0  0  0  0  0  4  0  0  0  0  0  0
   12.6465    0.2594   23.3300 C   0  0  0  0  0  0  0  0  0  0  0  0
   12.8520    1.4406   24.2736 C   0  0  0  0  0  0  0  0  0  0  0  0
   12.4356    2.7914   23.7377 C   0  0  0  0  0  0  0  0  0  0  0  0
   11.3170    3.5153   24.0210 C   0  0  0  0  0  0  0  0  0  0  0  0
   11.2649    4.6487   23.2738 O   0  0  0  0  0  0  0  0  0  0  0  0
   12.3781    4.6641   22.5024 C   0  0  0  0  0  0  0  0  0  0  0  0
   13.1422    3.5759   22.7507 C   0  0  0  0  0  0  0  0  0  0  0  0
   14.1113    3.3743   22.3130 H   0  0  0  0  0  0  0  0  0  0  0  0
   12.4824    5.5029   21.8275 H   0  0  0  0  0  0  0  0  0  0  0  0
   10.4742    3.3720   24.6880 H   0  0  0  0  0  0  0  0  0  0  0  0
   13.9206    1.4382   24.4887 H   0  0  0  0  0  0  0  0  0  0  0  0
   12.3569    1.2230   25.2246 H   0  0  0  0  0  0  0  0  0  0  0  0
   13.1724   -0.6135   23.7336 H   0  0  0  0  0  0  0  0  0  0  0  0
   13.1358    0.4916   22.3764 H   0  0  0  0  0  0  0  0  0  0  0  0
   10.7264   -0.2003   24.0386 H   0  0  0  0  0  0  0  0  0  0  0  0
   10.7635    0.7965   22.6900 H   0  0  0  0  0  0  0  0  0  0  0  0
   11.4014   -1.0615   21.2679 H   0  0  0  0  0  0  0  0  0  0  0  0
   11.3135   -2.1247   22.6793 H   0  0  0  0  0  0  0  0  0  0  0  0
    8.6809   -1.9989   23.0194 C   0  0  0  0  0  0  0  0  0  0  0  0
    7.3566   -2.1585   22.9358 N   0  0  0  0  0  0  0  0  0  0  0  0
    6.7247   -1.5208   21.9396 C   0  0  0  0  0  0  0  0  0  0  0  0
    5.6628   -1.7294   21.8483 H   0  0  0  0  0  0  0  0  0  0  0  0
    9.1859   -2.5194   23.8297 H   0  0  0  0  0  0  0  0  0  0  0  0
    9.2973    0.0836   20.4161 H   0  0  0  0  0  0  0  0  0  0  0  0
    5.4081    0.6628   20.1040 C   0  0  0  0  0  0  0  0  0  0  0  0
    4.9794    0.6783   21.1051 H   0  0  0  0  0  0  0  0  0  0  0  0
    8.0921   -0.4276   18.3197 H   0  0  0  0  0  0  0  0  0  0  0  0
    4.9314    1.8448   16.9546 H   0  0  0  0  0  0  0  0  0  0  0  0
    3.8485    1.8586   19.1904 H   0  0  0  0  0  0  0  0  0  0  0  0
  1  2  2  0
  2  3  1  0
  3  4  2  0
  4  5  1  0
  5  6  1  0
  6  7  2  0
  7  8  1  0
  8  9  1  0
  9 10  1  0
 10 11  1  0
 11 12  1  0
 12 13  1  0
 13 14  2  0
 14 15  1  0
 15 16  1  0
 16 17  2  0
 17 18  1  0
 16 19  1  0
 14 20  1  0
 12 21  1  0
 12 22  1  0
 11 23  1  0
 11 24  1  0
 10 25  1  0
 10 26  1  0
  9 27  1  0
  9 28  1  0
  8 29  2  0
 29 30  1  0
 30 31  2  0
 31 32  1  0
 29 33  1  0
  7 34  1  0
  5 35  2  0
 35 36  1  0
  4 37  1  0
  2 38  1  0
  1 39  1  0
 35  1  1  0
 31  6  1  0
 17 13  1  0
M  CHG  1  10   1
M  END
>  <cnnaffinity>  (1) 
-5.28618

>  <filename>  (1) 
c1cncc(-c2cncc(C[NH2+]CCc3ccoc3)c2)c1

$$$$
