
     RDKit          3D

 42 45  0  0  0  0  0  0  0  0999 V2000
    4.9294    1.7798   16.9993 H   0  0  0  0  0  0  0  0  0  0  0  0
    5.4069    1.2872   17.8436 C   0  0  0  0  0  0  0  0  0  0  0  0
    6.5693    0.6703   17.5835 N   0  0  0  0  0  0  0  0  0  0  0  0
    7.1800    0.0553   18.5990 C   0  0  0  0  0  0  0  0  0  0  0  0
    8.1264   -0.4297   18.3740 H   0  0  0  0  0  0  0  0  0  0  0  0
    6.6628    0.0065   19.9067 C   0  0  0  0  0  0  0  0  0  0  0  0
    7.4083   -0.7160   20.9437 C   0  0  0  0  0  0  0  0  0  0  0  0
    8.5328   -1.3439   20.7491 N   0  0  0  0  0  0  0  0  0  0  0  0
    8.9968   -1.9632   21.8759 N   0  0  0  0  0  0  0  0  0  0  0  0
    8.2149   -1.7875   22.9040 C   0  0  0  0  0  0  0  0  0  0  0  0
    8.5040   -2.3376   24.2579 C   0  0  0  0  0  0  0  0  0  0  0  0
    8.2389   -3.8303   24.4685 C   0  0  0  0  0  0  0  0  0  0  0  0
    8.8564   -4.4171   23.7737 H   0  0  0  0  0  0  0  0  0  0  0  0
    8.6193   -4.0971   25.4658 H   0  0  0  0  0  0  0  0  0  0  0  0
    6.7619   -4.2294   24.3581 C   0  0  0  0  0  0  0  0  0  0  0  0
    6.1534   -3.3617   24.6541 H   0  0  0  0  0  0  0  0  0  0  0  0
    6.3828   -5.3710   25.3251 C   0  0  0  0  0  0  0  0  0  0  0  0
    7.0179   -6.2396   25.1128 H   0  0  0  0  0  0  0  0  0  0  0  0
    6.6111   -5.0841   26.3607 H   0  0  0  0  0  0  0  0  0  0  0  0
    4.9038   -5.7630   25.2038 C   0  0  0  0  0  0  0  0  0  0  0  0
    4.6739   -6.6020   25.8712 H   0  0  0  0  0  0  0  0  0  0  0  0
    4.2875   -4.9199   25.5474 H   0  0  0  0  0  0  0  0  0  0  0  0
    4.5226   -6.1053   23.7557 C   0  0  0  0  0  0  0  0  0  0  0  0
    5.0506   -7.0213   23.4549 H   0  0  0  0  0  0  0  0  0  0  0  0
    3.4518   -6.3312   23.6827 H   0  0  0  0  0  0  0  0  0  0  0  0
    4.8997   -4.9724   22.7890 C   0  0  0  0  0  0  0  0  0  0  0  0
    4.6671   -5.2555   21.7567 H   0  0  0  0  0  0  0  0  0  0  0  0
    4.2911   -4.0851   23.0138 H   0  0  0  0  0  0  0  0  0  0  0  0
    6.3789   -4.5952   22.9118 C   0  0  0  0  0  0  0  0  0  0  0  0
    6.6304   -3.7721   22.2317 H   0  0  0  0  0  0  0  0  0  0  0  0
    6.9989   -5.4475   22.5934 H   0  0  0  0  0  0  0  0  0  0  0  0
    9.7287   -1.8154   24.9426 C   0  0  0  0  0  0  0  0  0  0  0  0
   10.3484   -1.0542   24.4799 H   0  0  0  0  0  0  0  0  0  0  0  0
   10.2428   -2.6409   25.4091 H   0  0  0  0  0  0  0  0  0  0  0  0
    8.3814   -1.4441   25.4727 C   0  0  0  0  0  0  0  0  0  0  0  0
    8.0740   -1.8936   26.4126 H   0  0  0  0  0  0  0  0  0  0  0  0
    8.0234   -0.4247   25.3415 H   0  0  0  0  0  0  0  0  0  0  0  0
    6.8257   -0.8123   22.5733 S   0  0  0  0  0  0  0  0  0  0  0  0
    5.4416    0.6502   20.1653 C   0  0  0  0  0  0  0  0  0  0  0  0
    4.9999    0.6394   21.1672 H   0  0  0  0  0  0  0  0  0  0  0  0
    4.8105    1.3053   19.1107 C   0  0  0  0  0  0  0  0  0  0  0  0
    3.8802    1.8378   19.2576 H   0  0  0  0  0  0  0  0  0  0  0  0
  1  2  1  0
  2  3  2  0
  3  4  1  0
  4  5  1  0
  4  6  2  0
  6  7  1  0
  7  8  2  0
  8  9  1  0
  9 10  2  0
 10 11  1  0
 11 12  1  0
 12 13  1  0
 12 14  1  0
 12 15  1  0
 15 16  1  0
 15 17  1  0
 17 18  1  0
 17 19  1  0
 17 20  1  0
 20 21  1  0
 20 22  1  0
 20 23  1  0
 23 24  1  0
 23 25  1  0
 23 26  1  0
 26 27  1  0
 26 28  1  0
 26 29  1  0
 29 30  1  0
 29 31  1  0
 11 32  1  0
 32 33  1  0
 32 34  1  0
 32 35  1  0
 35 36  1  0
 35 37  1  0
 10 38  1  0
  6 39  1  0
 39 40  1  0
 39 41  2  0
 41 42  1  0
 41  2  1  0
 38  7  1  0
 35 11  1  0
 29 15  1  0
M  END
>  <cnnaffinity>  (1) 
-6.02297

>  <filename>  (1) 
c1cncc(-c2nnc(C3(CC4CCCCC4)CC3)s2)c1

$$$$
