
     RDKit          3D

 38 41  0  0  0  0  0  0  0  0999 V2000
    4.7878    1.3145   19.0777 C   0  0  0  0  0  0  0  0  0  0  0  0
    5.3864    1.3078   17.8150 C   0  0  0  0  0  0  0  0  0  0  0  0
    6.5471    0.6871   17.5604 N   0  0  0  0  0  0  0  0  0  0  0  0
    7.1474    0.0517   18.5768 C   0  0  0  0  0  0  0  0  0  0  0  0
    6.6331   -0.0249   19.8839 C   0  0  0  0  0  0  0  0  0  0  0  0
    7.4067   -0.6859   21.0006 C   0  0  0  0  0  0  0  0  0  0  0  0
    8.3490    0.3031   21.7076 C   0  0  0  0  0  0  0  0  0  0  0  0
    9.1685   -0.3791   22.8278 C   0  0  0  0  0  0  0  0  0  0  0  0
    8.3115   -0.8929   23.9405 C   0  0  0  0  0  0  0  0  0  0  0  0
    7.8363   -2.0788   24.1477 N   0  0  0  0  0  0  0  0  0  0  0  0
    7.0661   -1.8924   25.3051 C   0  0  0  0  0  0  0  0  0  0  0  0
    6.2956   -2.9949   25.9740 C   0  0  0  0  0  0  0  0  0  0  0  0
    5.6264   -2.7545   27.1187 N   0  0  0  0  0  0  0  0  0  0  0  0
    4.9413   -3.7479   27.7138 C   0  0  0  0  0  0  0  0  0  0  0  0
    4.8668   -5.0447   27.2156 C   0  0  0  0  0  0  0  0  0  0  0  0
    5.5372   -5.2816   26.0053 C   0  0  0  0  0  0  0  0  0  0  0  0
    6.2795   -4.2720   25.3535 C   0  0  0  0  0  0  0  0  0  0  0  0
    6.7810   -4.8396   24.1191 C   0  0  0  0  0  0  0  0  0  0  0  0
    6.3061   -6.1056   24.0637 C   0  0  0  0  0  0  0  0  0  0  0  0
    5.5647   -6.3793   25.1980 N   0  0  0  0  0  0  0  0  0  0  0  0
    5.2385   -7.2828   25.4948 H   0  0  0  0  0  0  0  0  0  0  0  0
    6.4263   -6.8444   23.2834 H   0  0  0  0  0  0  0  0  0  0  0  0
    7.4611   -4.3811   23.4158 H   0  0  0  0  0  0  0  0  0  0  0  0
    4.2851   -5.7935   27.7395 H   0  0  0  0  0  0  0  0  0  0  0  0
    4.4234   -3.4634   28.6327 H   0  0  0  0  0  0  0  0  0  0  0  0
    7.0907   -0.6568   25.7447 N   0  0  0  0  0  0  0  0  0  0  0  0
    7.9098   -0.0055   24.8526 O   0  0  0  0  0  0  0  0  0  0  0  0
    9.7348   -1.2285   22.4246 H   0  0  0  0  0  0  0  0  0  0  0  0
    9.8865    0.3226   23.2617 H   0  0  0  0  0  0  0  0  0  0  0  0
    7.7635    1.1453   22.1109 H   0  0  0  0  0  0  0  0  0  0  0  0
    9.0360    0.7390   20.9704 H   0  0  0  0  0  0  0  0  0  0  0  0
    7.9991   -1.5268   20.6111 H   0  0  0  0  0  0  0  0  0  0  0  0
    6.7221   -1.1240   21.7413 H   0  0  0  0  0  0  0  0  0  0  0  0
    5.4234    0.6422   20.1250 C   0  0  0  0  0  0  0  0  0  0  0  0
    4.9969    0.6464   21.1292 H   0  0  0  0  0  0  0  0  0  0  0  0
    8.1020   -0.4172   18.3283 H   0  0  0  0  0  0  0  0  0  0  0  0
    4.9248    1.8195   16.9701 H   0  0  0  0  0  0  0  0  0  0  0  0
    3.8608    1.8555   19.2268 H   0  0  0  0  0  0  0  0  0  0  0  0
  1  2  2  0
  2  3  1  0
  3  4  2  0
  4  5  1  0
  5  6  1  0
  6  7  1  0
  7  8  1  0
  8  9  1  0
  9 10  2  0
 10 11  1  0
 11 12  1  0
 12 13  2  0
 13 14  1  0
 14 15  2  0
 15 16  1  0
 16 17  2  0
 17 18  1  0
 18 19  2  0
 19 20  1  0
 20 21  1  0
 19 22  1  0
 18 23  1  0
 15 24  1  0
 14 25  1  0
 11 26  2  0
 26 27  1  0
  8 28  1  0
  8 29  1  0
  7 30  1  0
  7 31  1  0
  6 32  1  0
  6 33  1  0
  5 34  2  0
 34 35  1  0
  4 36  1  0
  2 37  1  0
  1 38  1  0
 34  1  1  0
 27  9  1  0
 17 12  1  0
 20 16  1  0
M  END
>  <cnnaffinity>  (1) 
-5.44132

>  <filename>  (1) 
c1cncc(CCCc2nc(-c3nccc4[nH]ccc34)no2)c1

$$$$
