
     RDKit          3D

 23 24  0  0  0  0  0  0  0  0999 V2000
    6.9858    4.3946   22.4073 H   0  0  0  0  0  0  0  0  0  0  0  0
    7.1628    3.3584   22.6723 C   0  0  0  0  0  0  0  0  0  0  0  0
    6.8736    2.7414   23.7683 N   0  0  0  0  0  0  0  0  0  0  0  0
    7.3644    1.4618   23.5562 C   0  0  0  0  0  0  0  0  0  0  0  0
    7.2666    0.6804   24.2948 H   0  0  0  0  0  0  0  0  0  0  0  0
    7.9386    1.3740   22.3310 C   0  0  0  0  0  0  0  0  0  0  0  0
    8.5120    0.2138   21.5816 C   0  0  0  0  0  0  0  0  0  0  0  0
    9.1149   -0.3582   22.2940 H   0  0  0  0  0  0  0  0  0  0  0  0
    9.1884    0.5653   20.7952 H   0  0  0  0  0  0  0  0  0  0  0  0
    7.4235   -0.7143   20.9793 C   0  0  0  0  0  0  0  0  0  0  0  0
    6.7418   -1.0337   21.7793 H   0  0  0  0  0  0  0  0  0  0  0  0
    7.8920   -1.6350   20.6002 H   0  0  0  0  0  0  0  0  0  0  0  0
    6.6377   -0.0218   19.8905 C   0  0  0  0  0  0  0  0  0  0  0  0
    7.1521    0.0610   18.5839 C   0  0  0  0  0  0  0  0  0  0  0  0
    8.1037   -0.4127   18.3540 H   0  0  0  0  0  0  0  0  0  0  0  0
    6.5552    0.6850   17.5615 N   0  0  0  0  0  0  0  0  0  0  0  0
    5.3964    1.3032   17.8293 C   0  0  0  0  0  0  0  0  0  0  0  0
    4.9234    1.7960   16.9827 H   0  0  0  0  0  0  0  0  0  0  0  0
    4.8011    1.3186   19.0972 C   0  0  0  0  0  0  0  0  0  0  0  0
    3.8693    1.8515   19.2449 H   0  0  0  0  0  0  0  0  0  0  0  0
    5.4307    0.6439   20.1481 C   0  0  0  0  0  0  0  0  0  0  0  0
    5.0170    0.6415   21.1632 H   0  0  0  0  0  0  0  0  0  0  0  0
    7.8025    2.6040   21.7492 O   0  0  0  0  0  0  0  0  0  0  0  0
  1  2  1  0
  2  3  2  0
  3  4  1  0
  4  5  1  0
  4  6  2  0
  6  7  1  0
  7  8  1  0
  7  9  1  0
  7 10  1  0
 10 11  1  0
 10 12  1  0
 10 13  1  0
 13 14  2  0
 14 15  1  0
 14 16  1  0
 16 17  2  0
 17 18  1  0
 17 19  1  0
 19 20  1  0
 19 21  2  0
 21 22  1  0
  6 23  1  0
 23  2  1  0
 21 13  1  0
M  END
>  <cnnaffinity>  (1) 
-3.92626

>  <filename>  (1) 
c1cncc(CCc2cnco2)c1

$$$$
