
     RDKit          3D

 38 41  0  0  0  0  0  0  0  0999 V2000
    4.8881    1.2319   19.0999 C   0  0  0  0  0  0  0  0  0  0  0  0
    5.4849    1.2924   17.8345 C   0  0  0  0  0  0  0  0  0  0  0  0
    6.6524    0.6932   17.5400 N   0  0  0  0  0  0  0  0  0  0  0  0
    7.2648    0.0120   18.5209 C   0  0  0  0  0  0  0  0  0  0  0  0
    6.7456   -0.1358   19.8278 C   0  0  0  0  0  0  0  0  0  0  0  0
    7.4555   -0.8853   20.8270 N   0  0  0  0  0  0  0  0  0  0  0  0
    6.8355   -1.7060   21.7426 C   0  0  0  0  0  0  0  0  0  0  0  0
    5.7471   -2.4144   21.6047 N   0  0  0  0  0  0  0  0  0  0  0  0
    5.6047   -3.1573   22.7673 N   0  0  0  0  0  0  0  0  0  0  0  0
    6.6120   -2.8585   23.5365 C   0  0  0  0  0  0  0  0  0  0  0  0
    7.4346   -1.9234   22.9593 N   0  0  0  0  0  0  0  0  0  0  0  0
    8.7804   -1.5327   23.3969 C   0  0  0  0  0  0  0  0  0  0  0  0
    9.0231   -0.0471   23.6720 C   0  0  0  0  0  0  0  0  0  0  0  0
    8.0104    0.8042   24.0706 C   0  0  0  0  0  0  0  0  0  0  0  0
    8.2586    2.1740   24.3761 C   0  0  0  0  0  0  0  0  0  0  0  0
    9.5307    2.6880   24.3029 C   0  0  0  0  0  0  0  0  0  0  0  0
   10.6213    1.8468   23.9261 C   0  0  0  0  0  0  0  0  0  0  0  0
   11.9538    2.3541   23.8852 C   0  0  0  0  0  0  0  0  0  0  0  0
   13.0124    1.5446   23.5498 C   0  0  0  0  0  0  0  0  0  0  0  0
   12.7889    0.1821   23.2344 C   0  0  0  0  0  0  0  0  0  0  0  0
   11.5107   -0.3359   23.2600 C   0  0  0  0  0  0  0  0  0  0  0  0
   10.3788    0.4692   23.6062 C   0  0  0  0  0  0  0  0  0  0  0  0
   11.3553   -1.3846   23.0333 H   0  0  0  0  0  0  0  0  0  0  0  0
   13.6340   -0.4476   22.9667 H   0  0  0  0  0  0  0  0  0  0  0  0
   14.0201    1.9488   23.5145 H   0  0  0  0  0  0  0  0  0  0  0  0
   12.1025    3.4019   24.1275 H   0  0  0  0  0  0  0  0  0  0  0  0
    9.7417    3.7297   24.5404 H   0  0  0  0  0  0  0  0  0  0  0  0
    7.4309    2.8104   24.6819 H   0  0  0  0  0  0  0  0  0  0  0  0
    6.9972    0.4222   24.1624 H   0  0  0  0  0  0  0  0  0  0  0  0
    9.4916   -1.8763   22.6360 H   0  0  0  0  0  0  0  0  0  0  0  0
    8.9951   -2.1032   24.3089 H   0  0  0  0  0  0  0  0  0  0  0  0
    6.8128   -3.3073   24.4999 H   0  0  0  0  0  0  0  0  0  0  0  0
    8.2045   -0.3912   21.2943 H   0  0  0  0  0  0  0  0  0  0  0  0
    5.5274    0.4985   20.1134 C   0  0  0  0  0  0  0  0  0  0  0  0
    5.1089    0.3944   21.1163 H   0  0  0  0  0  0  0  0  0  0  0  0
    8.2197   -0.4519   18.2783 H   0  0  0  0  0  0  0  0  0  0  0  0
    5.0157    1.8464   17.0242 H   0  0  0  0  0  0  0  0  0  0  0  0
    3.9509    1.7552   19.2774 H   0  0  0  0  0  0  0  0  0  0  0  0
  1  2  2  0
  2  3  1  0
  3  4  2  0
  4  5  1  0
  5  6  1  0
  6  7  1  0
  7  8  2  0
  8  9  1  0
  9 10  2  0
 10 11  1  0
 11 12  1  0
 12 13  1  0
 13 14  2  0
 14 15  1  0
 15 16  2  0
 16 17  1  0
 17 18  2  0
 18 19  1  0
 19 20  2  0
 20 21  1  0
 21 22  2  0
 21 23  1  0
 20 24  1  0
 19 25  1  0
 18 26  1  0
 16 27  1  0
 15 28  1  0
 14 29  1  0
 12 30  1  0
 12 31  1  0
 10 32  1  0
  6 33  1  0
  5 34  2  0
 34 35  1  0
  4 36  1  0
  2 37  1  0
  1 38  1  0
 34  1  1  0
 11  7  1  0
 22 13  1  0
 22 17  1  0
M  END
>  <cnnaffinity>  (1) 
-5.31519

>  <filename>  (1) 
c1cncc(Nc2nncn2Cc2cccc3ccccc23)c1

$$$$
