
     RDKit          3D

 38 41  0  0  0  0  0  0  0  0999 V2000
    4.9702    1.7889   16.9898 H   0  0  0  0  0  0  0  0  0  0  0  0
    5.4510    1.3505   17.8624 C   0  0  0  0  0  0  0  0  0  0  0  0
    6.6181    0.7248   17.6483 N   0  0  0  0  0  0  0  0  0  0  0  0
    7.2192    0.1611   18.7061 C   0  0  0  0  0  0  0  0  0  0  0  0
    8.1710   -0.3245   18.5090 H   0  0  0  0  0  0  0  0  0  0  0  0
    6.7068    0.1668   20.0355 C   0  0  0  0  0  0  0  0  0  0  0  0
    7.2850   -0.5513   21.1076 N   0  0  0  0  0  0  0  0  0  0  0  0
    8.1307   -1.7070   20.8287 C   0  0  0  0  0  0  0  0  0  0  0  0
    7.7208   -2.1594   19.9373 H   0  0  0  0  0  0  0  0  0  0  0  0
    8.0592   -2.4187   21.6618 H   0  0  0  0  0  0  0  0  0  0  0  0
    9.6068   -1.3167   20.7500 C   0  0  0  0  0  0  0  0  0  0  0  0
    9.7850   -0.6272   19.9097 H   0  0  0  0  0  0  0  0  0  0  0  0
   10.2350   -2.2012   20.6132 H   0  0  0  0  0  0  0  0  0  0  0  0
    9.9982   -0.7435   21.9884 O   0  0  0  0  0  0  0  0  0  0  0  0
    9.1830    0.3636   22.3619 C   0  0  0  0  0  0  0  0  0  0  0  0
    9.5554    0.6739   23.3392 H   0  0  0  0  0  0  0  0  0  0  0  0
    9.3380    1.1904   21.6505 H   0  0  0  0  0  0  0  0  0  0  0  0
    7.6408    0.0632   22.3818 C   0  0  2  0  0  0  0  0  0  0  0  0
    7.1656    1.0561   22.4452 H   0  0  0  0  0  0  0  0  0  0  0  0
    7.1656   -0.7584   23.6040 C   0  0  0  0  0  0  0  0  0  0  0  0
    7.4708   -0.2290   24.8620 C   0  0  0  0  0  0  0  0  0  0  0  0
    8.1239    0.6368   24.9454 H   0  0  0  0  0  0  0  0  0  0  0  0
    6.9615   -0.7781   26.0586 C   0  0  0  0  0  0  0  0  0  0  0  0
    7.2253   -0.3220   27.0053 H   0  0  0  0  0  0  0  0  0  0  0  0
    6.1111   -1.8740   26.0482 C   0  0  0  0  0  0  0  0  0  0  0  0
    5.7051   -2.2980   26.9621 H   0  0  0  0  0  0  0  0  0  0  0  0
    5.8235   -2.4440   24.7993 C   0  0  0  0  0  0  0  0  0  0  0  0
    6.3591   -1.9457   23.5751 C   0  0  0  0  0  0  0  0  0  0  0  0
    5.8538   -2.8619   22.5627 C   0  0  0  0  0  0  0  0  0  0  0  0
    6.0005   -2.8173   21.4898 H   0  0  0  0  0  0  0  0  0  0  0  0
    5.0707   -3.7850   23.1784 C   0  0  0  0  0  0  0  0  0  0  0  0
    4.5312   -4.6383   22.7833 H   0  0  0  0  0  0  0  0  0  0  0  0
    5.0453   -3.5351   24.5274 N   0  0  0  0  0  0  0  0  0  0  0  0
    4.5202   -4.0388   25.2257 H   0  0  0  0  0  0  0  0  0  0  0  0
    5.5023    0.8630   20.2284 C   0  0  0  0  0  0  0  0  0  0  0  0
    5.0842    0.9057   21.2334 H   0  0  0  0  0  0  0  0  0  0  0  0
    4.8630    1.4469   19.1288 C   0  0  0  0  0  0  0  0  0  0  0  0
    3.9246    1.9776   19.2456 H   0  0  0  0  0  0  0  0  0  0  0  0
  1  2  1  0
  2  3  2  0
  3  4  1  0
  4  5  1  0
  4  6  2  0
  6  7  1  0
  7  8  1  0
  8  9  1  0
  8 10  1  0
  8 11  1  0
 11 12  1  0
 11 13  1  0
 11 14  1  0
 14 15  1  0
 15 16  1  0
 15 17  1  0
 15 18  1  0
 18 19  1  1
 18 20  1  0
 20 21  2  0
 21 22  1  0
 21 23  1  0
 23 24  1  0
 23 25  2  0
 25 26  1  0
 25 27  1  0
 27 28  2  0
 28 29  1  0
 29 30  1  0
 29 31  2  0
 31 32  1  0
 31 33  1  0
 33 34  1  0
  6 35  1  0
 35 36  1  0
 35 37  2  0
 37 38  1  0
 37  2  1  0
 18  7  1  0
 28 20  1  0
 33 27  1  0
M  END
>  <cnnaffinity>  (1) 
-4.28415

>  <filename>  (1) 
c1cncc(N2CCOC[C@@H]2c2cccc3[nH]ccc23)c1

$$$$
