
     RDKit          3D

 35 37  0  0  0  0  0  0  0  0999 V2000
    4.8016    1.3145   19.1004 C   0  0  0  0  0  0  0  0  0  0  0  0
    5.4006    1.2932   17.8354 C   0  0  0  0  0  0  0  0  0  0  0  0
    6.5634    0.6751   17.5766 N   0  0  0  0  0  0  0  0  0  0  0  0
    7.1707    0.0647   18.5965 C   0  0  0  0  0  0  0  0  0  0  0  0
    6.6546    0.0206   19.8985 C   0  0  0  0  0  0  0  0  0  0  0  0
    7.3442   -0.6867   20.9763 C   0  0  0  0  0  0  0  0  0  0  0  0
    6.8100   -0.9905   22.1430 N   0  0  0  0  0  0  0  0  0  0  0  0
    7.8179   -1.6106   22.8027 C   0  0  0  0  0  0  0  0  0  0  0  0
    7.6589   -2.2616   24.4370 S   0  0  0  0  0  0  0  0  0  0  0  0
    7.1085   -3.9397   23.9620 C   0  0  0  0  0  0  0  0  0  0  0  0
    5.6204   -4.0084   23.5707 C   0  0  0  0  0  0  0  0  0  0  0  0
    4.6864   -3.7806   24.7807 C   0  0  0  0  0  0  0  0  0  0  0  0
    4.5835   -5.0199   25.6786 C   0  0  0  0  0  0  0  0  0  0  0  0
    4.1844   -6.1590   24.9332 O   0  0  0  0  0  0  0  0  0  0  0  0
    5.1364   -6.4710   23.9306 C   0  0  0  0  0  0  0  0  0  0  0  0
    5.2712   -5.3532   22.8946 C   0  0  0  0  0  0  0  0  0  0  0  0
    6.0398   -5.6173   22.1551 H   0  0  0  0  0  0  0  0  0  0  0  0
    4.3156   -5.2662   22.3670 H   0  0  0  0  0  0  0  0  0  0  0  0
    6.1114   -6.5830   24.4158 H   0  0  0  0  0  0  0  0  0  0  0  0
    4.8303   -7.4174   23.4728 H   0  0  0  0  0  0  0  0  0  0  0  0
    3.8279   -4.8860   26.4545 H   0  0  0  0  0  0  0  0  0  0  0  0
    5.5477   -5.2116   26.1875 H   0  0  0  0  0  0  0  0  0  0  0  0
    3.6806   -3.5564   24.4099 H   0  0  0  0  0  0  0  0  0  0  0  0
    5.0228   -2.9186   25.3688 H   0  0  0  0  0  0  0  0  0  0  0  0
    5.4606   -3.1997   22.8462 H   0  0  0  0  0  0  0  0  0  0  0  0
    7.3499   -4.5901   24.8086 H   0  0  0  0  0  0  0  0  0  0  0  0
    7.7411   -4.2577   23.1261 H   0  0  0  0  0  0  0  0  0  0  0  0
    8.9398   -1.7254   22.1230 N   0  0  0  0  0  0  0  0  0  0  0  0
    8.6132   -1.1303   20.9487 N   0  0  0  0  0  0  0  0  0  0  0  0
    9.3014   -1.0239   20.2217 H   0  0  0  0  0  0  0  0  0  0  0  0
    5.4303    0.6586   20.1556 C   0  0  0  0  0  0  0  0  0  0  0  0
    5.0038    0.6336   21.1645 H   0  0  0  0  0  0  0  0  0  0  0  0
    8.1116   -0.4225   18.3469 H   0  0  0  0  0  0  0  0  0  0  0  0
    4.9263    1.7826   16.9903 H   0  0  0  0  0  0  0  0  0  0  0  0
    3.8716    1.8460   19.2486 H   0  0  0  0  0  0  0  0  0  0  0  0
  1  2  2  0
  2  3  1  0
  3  4  2  0
  4  5  1  0
  5  6  1  0
  6  7  2  0
  7  8  1  0
  8  9  1  0
  9 10  1  0
 10 11  1  0
 11 12  1  0
 12 13  1  0
 13 14  1  0
 14 15  1  0
 15 16  1  0
 16 17  1  0
 16 18  1  0
 15 19  1  0
 15 20  1  0
 13 21  1  0
 13 22  1  0
 12 23  1  0
 12 24  1  0
 11 25  1  0
 10 26  1  0
 10 27  1  0
  8 28  2  0
 28 29  1  0
 29 30  1  0
  5 31  2  0
 31 32  1  0
  4 33  1  0
  2 34  1  0
  1 35  1  0
 31  1  1  0
 29  6  1  0
 16 11  1  0
M  END
>  <cnnaffinity>  (1) 
-4.87945

>  <filename>  (1) 
c1cncc(-c2nc(SCC3CCOCC3)n[nH]2)c1

$$$$
