
     RDKit          3D

 27 29  0  0  0  0  0  0  0  0999 V2000
    4.9115    1.7840   16.9954 H   0  0  0  0  0  0  0  0  0  0  0  0
    5.3970    1.2972   17.8378 C   0  0  0  0  0  0  0  0  0  0  0  0
    6.5617    0.6828   17.5732 N   0  0  0  0  0  0  0  0  0  0  0  0
    7.1731    0.0602   18.5904 C   0  0  0  0  0  0  0  0  0  0  0  0
    8.1197   -0.4299   18.3740 H   0  0  0  0  0  0  0  0  0  0  0  0
    6.6638   -0.0106   19.9110 C   0  0  0  0  0  0  0  0  0  0  0  0
    7.3131   -0.7265   20.9257 N   0  0  0  0  0  0  0  0  0  0  0  0
    6.7591   -1.0234   21.7210 H   0  0  0  0  0  0  0  0  0  0  0  0
    8.7070   -0.7828   21.1012 C   0  0  0  0  0  0  0  0  0  0  0  0
    9.7014    0.1290   20.6814 C   0  0  0  0  0  0  0  0  0  0  0  0
    9.5415    1.0189   20.0950 H   0  0  0  0  0  0  0  0  0  0  0  0
   10.9077   -0.2113   21.1079 N   0  0  0  0  0  0  0  0  0  0  0  0
   10.7050   -1.3517   21.7930 N   0  0  0  0  0  0  0  0  0  0  0  0
   11.4981   -1.8005   22.2172 H   0  0  0  0  0  0  0  0  0  0  0  0
    9.4078   -1.7420   21.8106 C   0  0  0  0  0  0  0  0  0  0  0  0
    8.9684   -2.9027   22.4518 N   0  0  0  0  0  0  0  0  0  0  0  0
    7.8341   -3.6218   22.1302 C   0  0  0  0  0  0  0  0  0  0  0  0
    7.1922   -3.3512   21.2994 H   0  0  0  0  0  0  0  0  0  0  0  0
    7.6782   -4.6569   22.9097 N   0  0  0  0  0  0  0  0  0  0  0  0
    8.7407   -4.6124   23.7869 C   0  0  0  0  0  0  0  0  0  0  0  0
    8.8793   -5.3591   24.5573 H   0  0  0  0  0  0  0  0  0  0  0  0
    9.5459   -3.5507   23.5293 C   0  0  0  0  0  0  0  0  0  0  0  0
   10.4499   -3.2030   24.0112 H   0  0  0  0  0  0  0  0  0  0  0  0
    5.4438    0.6361   20.1627 C   0  0  0  0  0  0  0  0  0  0  0  0
    5.0181    0.6224   21.1679 H   0  0  0  0  0  0  0  0  0  0  0  0
    4.8114    1.3073   19.1099 C   0  0  0  0  0  0  0  0  0  0  0  0
    3.8794    1.8396   19.2642 H   0  0  0  0  0  0  0  0  0  0  0  0
  1  2  1  0
  2  3  2  0
  3  4  1  0
  4  5  1  0
  4  6  2  0
  6  7  1  0
  7  8  1  0
  7  9  1  0
  9 10  1  0
 10 11  1  0
 10 12  2  0
 12 13  1  0
 13 14  1  0
 13 15  1  0
 15 16  1  0
 16 17  1  0
 17 18  1  0
 17 19  2  0
 19 20  1  0
 20 21  1  0
 20 22  2  0
 22 23  1  0
  6 24  1  0
 24 25  1  0
 24 26  2  0
 26 27  1  0
 26  2  1  0
 15  9  2  0
 22 16  1  0
M  END
>  <cnnaffinity>  (1) 
-5.55262

>  <filename>  (1) 
c1cncc(Nc2cn[nH]c2-n2ccnc2)c1

$$$$
