
     RDKit          3D

 37 39  0  0  0  0  0  0  0  0999 V2000
    4.8272    1.4067   18.8899 C   0  0  0  0  0  0  0  0  0  0  0  0
    5.4002    1.3855   17.6154 C   0  0  0  0  0  0  0  0  0  0  0  0
    6.5420    0.7387   17.3331 N   0  0  0  0  0  0  0  0  0  0  0  0
    7.1735    0.1301   18.3378 C   0  0  0  0  0  0  0  0  0  0  0  0
    6.7175    0.1471   19.6572 C   0  0  0  0  0  0  0  0  0  0  0  0
    7.4800   -0.4739   20.7343 C   0  0  0  0  0  0  0  0  0  0  0  0
    6.9639   -0.7773   21.9025 N   0  0  0  0  0  0  0  0  0  0  0  0
    7.9907   -1.3586   22.5619 C   0  0  0  0  0  0  0  0  0  0  0  0
    7.7485   -2.1003   24.1349 S   0  0  0  0  0  0  0  0  0  0  0  0
    6.8374   -3.5985   23.5773 C   0  0  0  0  0  0  0  0  0  0  0  0
    6.3439   -4.4304   24.7502 C   0  0  0  0  0  0  0  0  0  0  0  0
    7.4514   -5.1491   25.4213 N   0  0  0  0  0  4  0  0  0  0  0  0
    7.0609   -6.0769   26.5299 C   0  0  0  0  0  0  0  0  0  0  0  0
    8.4216   -6.5647   26.9940 C   0  0  0  0  0  0  0  0  0  0  0  0
    9.3135   -5.3111   26.9587 C   0  0  0  0  0  0  0  0  0  0  0  0
    8.5464   -4.3127   26.0835 C   0  0  0  0  0  0  0  0  0  0  0  0
    8.0589   -3.5489   26.7007 H   0  0  0  0  0  0  0  0  0  0  0  0
    9.1544   -3.8142   25.3289 H   0  0  0  0  0  0  0  0  0  0  0  0
    9.4638   -4.8840   27.9525 H   0  0  0  0  0  0  0  0  0  0  0  0
   10.3059   -5.5399   26.5538 H   0  0  0  0  0  0  0  0  0  0  0  0
    8.7938   -7.2832   26.2477 H   0  0  0  0  0  0  0  0  0  0  0  0
    8.3668   -7.0447   27.9767 H   0  0  0  0  0  0  0  0  0  0  0  0
    6.5403   -5.5031   27.3101 H   0  0  0  0  0  0  0  0  0  0  0  0
    6.3827   -6.8632   26.1862 H   0  0  0  0  0  0  0  0  0  0  0  0
    7.9224   -5.7505   24.7082 H   0  0  0  0  0  0  0  0  0  0  0  0
    5.6052   -5.1540   24.3710 H   0  0  0  0  0  0  0  0  0  0  0  0
    5.8168   -3.7859   25.4673 H   0  0  0  0  0  0  0  0  0  0  0  0
    7.4959   -4.1914   22.9346 H   0  0  0  0  0  0  0  0  0  0  0  0
    5.9959   -3.2461   22.9768 H   0  0  0  0  0  0  0  0  0  0  0  0
    9.1241   -1.4212   21.8914 N   0  0  0  0  0  0  0  0  0  0  0  0
    8.7708   -0.8443   20.7164 N   0  0  0  0  0  0  0  0  0  0  0  0
    9.4373   -0.7429   19.9667 H   0  0  0  0  0  0  0  0  0  0  0  0
    5.4898    0.7689   19.9309 C   0  0  0  0  0  0  0  0  0  0  0  0
    5.0774    0.7354   20.9417 H   0  0  0  0  0  0  0  0  0  0  0  0
    8.0763   -0.4089   18.0503 H   0  0  0  0  0  0  0  0  0  0  0  0
    4.9234    1.9016   16.7850 H   0  0  0  0  0  0  0  0  0  0  0  0
    3.8909    1.9283   19.0529 H   0  0  0  0  0  0  0  0  0  0  0  0
  1  2  2  0
  2  3  1  0
  3  4  2  0
  4  5  1  0
  5  6  1  0
  6  7  2  0
  7  8  1  0
  8  9  1  0
  9 10  1  0
 10 11  1  0
 11 12  1  0
 12 13  1  0
 13 14  1  0
 14 15  1  0
 15 16  1  0
 16 17  1  0
 16 18  1  0
 15 19  1  0
 15 20  1  0
 14 21  1  0
 14 22  1  0
 13 23  1  0
 13 24  1  0
 12 25  1  0
 11 26  1  0
 11 27  1  0
 10 28  1  0
 10 29  1  0
  8 30  2  0
 30 31  1  0
 31 32  1  0
  5 33  2  0
 33 34  1  0
  4 35  1  0
  2 36  1  0
  1 37  1  0
 33  1  1  0
 31  6  1  0
 16 12  1  0
M  CHG  1  12   1
M  END
>  <cnnaffinity>  (1) 
-4.82504

>  <filename>  (1) 
c1cncc(-c2nc(SCC[NH+]3CCCC3)n[nH]2)c1

$$$$
