
     RDKit          3D

 49 54  0  0  0  0  0  0  0  0999 V2000
    4.7659    1.3314   18.9972 C   0  0  0  0  0  0  0  0  0  0  0  0
    5.3857    1.3110   17.7457 C   0  0  0  0  0  0  0  0  0  0  0  0
    6.5192    0.6389   17.4885 N   0  0  0  0  0  0  0  0  0  0  0  0
    7.0843   -0.0206   18.5062 C   0  0  0  0  0  0  0  0  0  0  0  0
    6.5723   -0.0379   19.8146 C   0  0  0  0  0  0  0  0  0  0  0  0
    7.3441   -0.6629   20.9685 C   0  0  0  0  0  0  0  0  0  0  0  0
    8.2455    0.3234   21.6702 C   0  0  0  0  0  0  0  0  0  0  0  0
    7.8356    1.0526   22.6875 N   0  0  0  0  0  0  0  0  0  0  0  0
    8.9077    1.8270   22.9752 N   0  0  0  0  0  0  0  0  0  0  0  0
    8.8319    2.8216   24.0637 C   0  0  0  0  0  0  0  0  0  0  0  0
    8.5705    2.2018   25.4621 C   0  0  0  0  0  0  0  0  0  0  0  0
    7.1519    2.6463   25.9018 C   0  0  0  0  0  0  0  0  0  0  0  0
    6.7635    3.7174   24.9025 C   0  0  0  0  0  0  0  0  0  0  0  0
    5.6270    4.5317   24.8797 C   0  0  0  0  0  0  0  0  0  0  0  0
    5.4539    5.4427   23.8286 C   0  0  0  0  0  0  0  0  0  0  0  0
    6.4077    5.5374   22.8066 C   0  0  0  0  0  0  0  0  0  0  0  0
    7.5421    4.7169   22.8276 C   0  0  0  0  0  0  0  0  0  0  0  0
    7.7047    3.8130   23.8779 C   0  0  0  0  0  0  0  0  0  0  0  0
    8.2871    4.7776   22.0361 H   0  0  0  0  0  0  0  0  0  0  0  0
    6.2636    6.2421   21.9913 H   0  0  0  0  0  0  0  0  0  0  0  0
    4.5655    6.0699   23.7988 H   0  0  0  0  0  0  0  0  0  0  0  0
    4.8833    4.4514   25.6673 H   0  0  0  0  0  0  0  0  0  0  0  0
    6.4408    1.8122   25.8596 H   0  0  0  0  0  0  0  0  0  0  0  0
    7.1374    3.0196   26.9317 H   0  0  0  0  0  0  0  0  0  0  0  0
    9.3286    2.5807   26.1553 H   0  0  0  0  0  0  0  0  0  0  0  0
    8.6741    1.1135   25.4192 H   0  0  0  0  0  0  0  0  0  0  0  0
    9.7842    3.3474   24.0593 H   0  0  0  0  0  0  0  0  0  0  0  0
    9.9398    1.4776   22.1564 C   0  0  0  0  0  0  0  0  0  0  0  0
   11.2999    2.0580   22.3331 C   0  0  0  0  0  0  0  0  0  0  0  0
   11.5642    3.4516   22.3702 C   0  0  0  0  0  0  0  0  0  0  0  0
   12.8588    3.9456   22.6013 C   0  0  0  0  0  0  0  0  0  0  0  0
   13.9433    3.1870   22.7925 N   0  0  0  0  0  0  0  0  0  0  0  0
   13.6793    1.8876   22.7181 C   0  0  0  0  0  0  0  0  0  0  0  0
   12.4379    1.2412   22.5164 C   0  0  0  0  0  0  0  0  0  0  0  0
   12.6260   -0.1337   22.4990 N   0  0  0  0  0  0  0  0  0  0  0  0
   13.9111   -0.2914   22.6305 C   0  0  0  0  0  0  0  0  0  0  0  0
   14.5938    0.8821   22.7756 N   0  0  0  0  0  0  0  0  0  0  0  0
   15.5757    1.0620   22.8136 H   0  0  0  0  0  0  0  0  0  0  0  0
   14.4239   -1.2495   22.5985 H   0  0  0  0  0  0  0  0  0  0  0  0
   13.0330    5.0142   22.6445 H   0  0  0  0  0  0  0  0  0  0  0  0
   10.7884    4.1839   22.2089 H   0  0  0  0  0  0  0  0  0  0  0  0
    9.5249    0.5616   21.2901 N   0  0  0  0  0  0  0  0  0  0  0  0
    7.9726   -1.4863   20.6101 H   0  0  0  0  0  0  0  0  0  0  0  0
    6.6475   -1.0636   21.7152 H   0  0  0  0  0  0  0  0  0  0  0  0
    5.3697    0.6404   20.0485 C   0  0  0  0  0  0  0  0  0  0  0  0
    4.9373    0.6365   21.0502 H   0  0  0  0  0  0  0  0  0  0  0  0
    8.0070   -0.5611   18.2793 H   0  0  0  0  0  0  0  0  0  0  0  0
    4.9596    1.8582   16.9087 H   0  0  0  0  0  0  0  0  0  0  0  0
    3.8482    1.8920   19.1398 H   0  0  0  0  0  0  0  0  0  0  0  0
  1  2  2  0
  2  3  1  0
  3  4  2  0
  4  5  1  0
  5  6  1  0
  6  7  1  0
  7  8  2  0
  8  9  1  0
  9 10  1  0
 10 11  1  0
 11 12  1  0
 12 13  1  0
 13 14  2  0
 14 15  1  0
 15 16  2  0
 16 17  1  0
 17 18  2  0
 17 19  1  0
 16 20  1  0
 15 21  1  0
 14 22  1  0
 12 23  1  0
 12 24  1  0
 11 25  1  0
 11 26  1  0
 10 27  1  0
  9 28  1  0
 28 29  1  0
 29 30  2  0
 30 31  1  0
 31 32  2  0
 32 33  1  0
 33 34  2  0
 34 35  1  0
 35 36  2  0
 36 37  1  0
 37 38  1  0
 36 39  1  0
 31 40  1  0
 30 41  1  0
 28 42  2  0
  6 43  1  0
  6 44  1  0
  5 45  2  0
 45 46  1  0
  4 47  1  0
  2 48  1  0
  1 49  1  0
 45  1  1  0
 42  7  1  0
 18 10  1  0
 34 29  1  0
 18 13  1  0
 37 33  1  0
M  END
>  <cnnaffinity>  (1) 
-6.77342

>  <filename>  (1) 
c1cncc(Cc2nc(-c3ccnc4[nH]cnc34)n(C3CCc4ccccc43)n2)c1

$$$$
