
     RDKit          3D

 33 36  0  0  0  0  0  0  0  0999 V2000
    4.9218    1.7785   17.0017 H   0  0  0  0  0  0  0  0  0  0  0  0
    5.4051    1.2887   17.8447 C   0  0  0  0  0  0  0  0  0  0  0  0
    6.5708    0.6778   17.5857 N   0  0  0  0  0  0  0  0  0  0  0  0
    7.1762    0.0488   18.5972 C   0  0  0  0  0  0  0  0  0  0  0  0
    8.1229   -0.4333   18.3711 H   0  0  0  0  0  0  0  0  0  0  0  0
    6.6623   -0.0062   19.9012 C   0  0  0  0  0  0  0  0  0  0  0  0
    7.4078   -0.7206   20.9682 C   0  0  0  0  0  0  0  0  0  0  0  0
    8.1200   -1.8089   20.6216 N   0  0  0  0  0  0  0  0  0  0  0  0
    8.7844   -2.5187   21.5426 N   0  0  0  0  0  0  0  0  0  0  0  0
    8.7768   -2.1132   22.8142 C   0  0  0  0  0  0  0  0  0  0  0  0
    9.3357   -2.7256   23.5107 H   0  0  0  0  0  0  0  0  0  0  0  0
    8.0775   -0.9746   23.2634 C   0  0  0  0  0  0  0  0  0  0  0  0
    8.1062   -0.5823   24.6691 C   0  0  0  0  0  0  0  0  0  0  0  0
    9.1782   -0.6427   25.5187 C   0  0  0  0  0  0  0  0  0  0  0  0
   10.1876   -0.9865   25.3030 H   0  0  0  0  0  0  0  0  0  0  0  0
    8.8125   -0.1397   26.7447 N   0  0  0  0  0  0  0  0  0  0  0  0
    9.3972   -0.0476   27.5545 H   0  0  0  0  0  0  0  0  0  0  0  0
    7.4914    0.2308   26.7188 C   0  0  0  0  0  0  0  0  0  0  0  0
    6.6720    0.7645   27.7241 C   0  0  0  0  0  0  0  0  0  0  0  0
    7.0858    0.9581   28.7123 H   0  0  0  0  0  0  0  0  0  0  0  0
    5.3392    1.0115   27.4106 C   0  0  0  0  0  0  0  0  0  0  0  0
    4.6754    1.4215   28.1695 H   0  0  0  0  0  0  0  0  0  0  0  0
    4.8199    0.7319   26.1175 C   0  0  0  0  0  0  0  0  0  0  0  0
    3.7714    0.9201   25.8918 H   0  0  0  0  0  0  0  0  0  0  0  0
    5.6497    0.2117   25.1370 C   0  0  0  0  0  0  0  0  0  0  0  0
    5.2843   -0.0062   24.1471 H   0  0  0  0  0  0  0  0  0  0  0  0
    7.0025   -0.0389   25.4256 C   0  0  0  0  0  0  0  0  0  0  0  0
    7.3722   -0.2653   22.2936 C   0  0  0  0  0  0  0  0  0  0  0  0
    6.8390    0.6498   22.5464 H   0  0  0  0  0  0  0  0  0  0  0  0
    5.4471    0.6475   20.1591 C   0  0  0  0  0  0  0  0  0  0  0  0
    4.9992    0.6344   21.1559 H   0  0  0  0  0  0  0  0  0  0  0  0
    4.8081    1.3034   19.1091 C   0  0  0  0  0  0  0  0  0  0  0  0
    3.8786    1.8397   19.2602 H   0  0  0  0  0  0  0  0  0  0  0  0
  1  2  1  0
  2  3  2  0
  3  4  1  0
  4  5  1  0
  4  6  2  0
  6  7  1  0
  7  8  2  0
  8  9  1  0
  9 10  2  0
 10 11  1  0
 10 12  1  0
 12 13  1  0
 13 14  2  0
 14 15  1  0
 14 16  1  0
 16 17  1  0
 16 18  1  0
 18 19  2  0
 19 20  1  0
 19 21  1  0
 21 22  1  0
 21 23  2  0
 23 24  1  0
 23 25  1  0
 25 26  1  0
 25 27  2  0
 12 28  2  0
 28 29  1  0
  6 30  1  0
 30 31  1  0
 30 32  2  0
 32 33  1  0
 32  2  1  0
 28  7  1  0
 27 13  1  0
 27 18  1  0
M  END
>  <cnnaffinity>  (1) 
-5.30175

>  <filename>  (1) 
c1cncc(-c2cc(-c3c[nH]c4ccccc34)cnn2)c1

$$$$
