
     RDKit          3D

 39 41  0  0  0  0  0  0  0  0999 V2000
    4.8022    1.3164   19.0930 C   0  0  0  0  0  0  0  0  0  0  0  0
    5.3958    1.3010   17.8286 C   0  0  0  0  0  0  0  0  0  0  0  0
    6.5570    0.6866   17.5669 N   0  0  0  0  0  0  0  0  0  0  0  0
    7.1583    0.0643   18.5882 C   0  0  0  0  0  0  0  0  0  0  0  0
    6.6457   -0.0122   19.8969 C   0  0  0  0  0  0  0  0  0  0  0  0
    7.3736   -0.8133   20.9569 C   0  0  0  0  0  0  0  0  0  0  0  0
    8.9079   -0.6617   20.9300 C   0  0  0  0  0  0  0  0  0  0  0  0
    9.3945   -0.8513   22.3750 C   0  0  0  0  0  0  0  0  0  0  0  0
    8.1493   -0.9274   23.2372 N   0  0  0  0  0  4  0  0  0  0  0  0
    8.2900   -0.2112   24.5361 C   0  0  0  0  0  0  0  0  0  0  0  0
    7.0991   -0.4192   25.4709 C   0  0  0  0  0  0  0  0  0  0  0  0
    6.9631   -1.8498   25.9082 C   0  0  0  0  0  0  0  0  0  0  0  0
    5.9957   -2.6996   25.3700 C   0  0  0  0  0  0  0  0  0  0  0  0
    5.9404   -4.0272   25.7998 C   0  0  0  0  0  0  0  0  0  0  0  0
    6.7778   -4.5526   26.6978 N   0  0  0  0  0  0  0  0  0  0  0  0
    7.7119   -3.7372   27.1984 C   0  0  0  0  0  0  0  0  0  0  0  0
    7.8502   -2.3973   26.8375 C   0  0  0  0  0  0  0  0  0  0  0  0
    8.6285   -1.7886   27.2816 H   0  0  0  0  0  0  0  0  0  0  0  0
    8.3836   -4.1753   27.9302 H   0  0  0  0  0  0  0  0  0  0  0  0
    5.1869   -4.6987   25.4003 H   0  0  0  0  0  0  0  0  0  0  0  0
    5.2914   -2.3339   24.6319 H   0  0  0  0  0  0  0  0  0  0  0  0
    7.2433    0.2203   26.3485 H   0  0  0  0  0  0  0  0  0  0  0  0
    6.1776   -0.0851   24.9827 H   0  0  0  0  0  0  0  0  0  0  0  0
    8.4052    0.8621   24.3259 H   0  0  0  0  0  0  0  0  0  0  0  0
    9.2076   -0.5477   25.0305 H   0  0  0  0  0  0  0  0  0  0  0  0
    7.0045   -0.4331   22.3876 C   0  0  0  0  0  0  0  0  0  0  0  0
    6.9271    0.6542   22.4886 H   0  0  0  0  0  0  0  0  0  0  0  0
    6.0540   -0.8737   22.6973 H   0  0  0  0  0  0  0  0  0  0  0  0
    7.9572   -1.9296   23.4738 H   0  0  0  0  0  0  0  0  0  0  0  0
    9.9846    0.0085   22.7084 H   0  0  0  0  0  0  0  0  0  0  0  0
    9.9982   -1.7520   22.5076 H   0  0  0  0  0  0  0  0  0  0  0  0
    9.1746    0.3404   20.5749 H   0  0  0  0  0  0  0  0  0  0  0  0
    9.3721   -1.3778   20.2467 H   0  0  0  0  0  0  0  0  0  0  0  0
    7.1271   -1.8782   20.8290 H   0  0  0  0  0  0  0  0  0  0  0  0
    5.4329    0.6477   20.1428 C   0  0  0  0  0  0  0  0  0  0  0  0
    4.9954    0.6427   21.1446 H   0  0  0  0  0  0  0  0  0  0  0  0
    8.1100   -0.4116   18.3557 H   0  0  0  0  0  0  0  0  0  0  0  0
    4.9151    1.7911   16.9859 H   0  0  0  0  0  0  0  0  0  0  0  0
    3.8744    1.8479   19.2522 H   0  0  0  0  0  0  0  0  0  0  0  0
  1  2  2  0
  2  3  1  0
  3  4  2  0
  4  5  1  0
  5  6  1  0
  6  7  1  0
  7  8  1  0
  8  9  1  0
  9 10  1  0
 10 11  1  0
 11 12  1  0
 12 13  2  0
 13 14  1  0
 14 15  2  0
 15 16  1  0
 16 17  2  0
 17 18  1  0
 16 19  1  0
 14 20  1  0
 13 21  1  0
 11 22  1  0
 11 23  1  0
 10 24  1  0
 10 25  1  0
  9 26  1  0
 26 27  1  0
 26 28  1  0
  9 29  1  0
  8 30  1  0
  8 31  1  0
  7 32  1  0
  7 33  1  0
  6 34  1  0
  5 35  2  0
 35 36  1  0
  4 37  1  0
  2 38  1  0
  1 39  1  0
 35  1  1  0
 26  6  1  0
 17 12  1  0
M  CHG  1   9   1
M  END
>  <cnnaffinity>  (1) 
-4.59167

>  <filename>  (1) 
c1cncc(C2CC[NH+](CCc3ccncc3)C2)c1

$$$$
