
     RDKit          3D

 47 51  0  0  0  0  0  0  0  0999 V2000
    4.8069    1.3085   19.0389 C   0  0  0  0  0  0  0  0  0  0  0  0
    5.4016    1.2988   17.7742 C   0  0  0  0  0  0  0  0  0  0  0  0
    6.5425    0.6493   17.4953 N   0  0  0  0  0  0  0  0  0  0  0  0
    7.1416   -0.0012   18.5005 C   0  0  0  0  0  0  0  0  0  0  0  0
    6.6507   -0.0438   19.8165 C   0  0  0  0  0  0  0  0  0  0  0  0
    7.4258   -0.6984   20.9555 C   0  0  0  0  0  0  0  0  0  0  0  0
    8.3295    0.2673   21.6694 C   0  0  0  0  0  0  0  0  0  0  0  0
    9.5908    0.4560   21.3208 N   0  0  0  0  0  0  0  0  0  0  0  0
    9.9697    1.4814   22.1320 N   0  0  0  0  0  0  0  0  0  0  0  0
   11.2722    2.0445   22.1475 C   0  0  0  0  0  0  0  0  0  0  0  0
   11.5043    3.4219   22.2255 C   0  0  0  0  0  0  0  0  0  0  0  0
   12.8007    3.9299   22.4697 C   0  0  0  0  0  0  0  0  0  0  0  0
   13.8894    3.0817   22.6433 C   0  0  0  0  0  0  0  0  0  0  0  0
   13.6703    1.6835   22.5712 C   0  0  0  0  0  0  0  0  0  0  0  0
   12.3855    1.1995   22.2633 C   0  0  0  0  0  0  0  0  0  0  0  0
   12.5264   -0.1628   22.1656 N   0  0  0  0  0  0  0  0  0  0  0  0
   13.8400   -0.4378   22.3974 C   0  0  0  0  0  0  0  0  0  0  0  0
   14.5580    0.6180   22.6480 N   0  0  0  0  0  0  0  0  0  0  0  0
   14.2197   -1.4508   22.3980 H   0  0  0  0  0  0  0  0  0  0  0  0
   11.8224   -0.7709   21.7791 H   0  0  0  0  0  0  0  0  0  0  0  0
   14.8900    3.4923   22.7136 H   0  0  0  0  0  0  0  0  0  0  0  0
   12.9493    5.0060   22.5149 H   0  0  0  0  0  0  0  0  0  0  0  0
   10.6836    4.1257   22.1444 H   0  0  0  0  0  0  0  0  0  0  0  0
    8.9443    1.8012   22.9684 C   0  0  0  0  0  0  0  0  0  0  0  0
    9.0621    2.8340   24.0367 C   0  0  0  0  0  0  0  0  0  0  0  0
    8.1581    2.6131   25.2377 C   0  0  2  0  0  0  0  0  0  0  0  0
    6.6679    2.8139   24.9638 C   0  0  0  0  0  0  0  0  0  0  0  0
    6.1644    3.4090   26.2834 C   0  0  0  0  0  0  0  0  0  0  0  0
    7.3818    4.2020   26.7800 C   0  0  0  0  0  0  0  0  0  0  0  0
    8.5262    3.5816   26.2129 O   0  0  0  0  0  0  0  0  0  0  0  0
    7.4822    4.1958   27.8731 H   0  0  0  0  0  0  0  0  0  0  0  0
    7.3422    5.2538   26.4590 H   0  0  0  0  0  0  0  0  0  0  0  0
    5.9164    2.6103   26.9914 H   0  0  0  0  0  0  0  0  0  0  0  0
    5.2775    4.0412   26.1703 H   0  0  0  0  0  0  0  0  0  0  0  0
    6.1882    1.8789   24.6658 H   0  0  0  0  0  0  0  0  0  0  0  0
    6.5440    3.5222   24.1355 H   0  0  0  0  0  0  0  0  0  0  0  0
    8.3412    1.6179   25.6757 H   0  0  0  0  0  0  0  0  0  0  0  0
    8.8362    3.8200   23.6082 H   0  0  0  0  0  0  0  0  0  0  0  0
   10.0891    2.8834   24.4059 H   0  0  0  0  0  0  0  0  0  0  0  0
    7.8937    1.0579   22.6823 N   0  0  0  0  0  0  0  0  0  0  0  0
    6.7238   -1.1059   21.6927 H   0  0  0  0  0  0  0  0  0  0  0  0
    8.0406   -1.5260   20.5859 H   0  0  0  0  0  0  0  0  0  0  0  0
    5.4466    0.6247   20.0751 C   0  0  0  0  0  0  0  0  0  0  0  0
    5.0303    0.6092   21.0833 H   0  0  0  0  0  0  0  0  0  0  0  0
    8.0665   -0.5244   18.2487 H   0  0  0  0  0  0  0  0  0  0  0  0
    4.9460    1.8354   16.9448 H   0  0  0  0  0  0  0  0  0  0  0  0
    3.8833    1.8566   19.1992 H   0  0  0  0  0  0  0  0  0  0  0  0
  1  2  2  0
  2  3  1  0
  3  4  2  0
  4  5  1  0
  5  6  1  0
  6  7  1  0
  7  8  2  0
  8  9  1  0
  9 10  1  0
 10 11  2  0
 11 12  1  0
 12 13  2  0
 13 14  1  0
 14 15  2  0
 15 16  1  0
 16 17  1  0
 17 18  2  0
 17 19  1  0
 16 20  1  0
 13 21  1  0
 12 22  1  0
 11 23  1  0
  9 24  1  0
 24 25  1  0
 25 26  1  0
 26 27  1  0
 27 28  1  0
 28 29  1  0
 29 30  1  0
 29 31  1  0
 29 32  1  0
 28 33  1  0
 28 34  1  0
 27 35  1  0
 27 36  1  0
 26 37  1  1
 25 38  1  0
 25 39  1  0
 24 40  2  0
  6 41  1  0
  6 42  1  0
  5 43  2  0
 43 44  1  0
  4 45  1  0
  2 46  1  0
  1 47  1  0
 43  1  1  0
 40  7  1  0
 15 10  1  0
 30 26  1  0
 18 14  1  0
M  END
>  <cnnaffinity>  (1) 
-6.52102

>  <filename>  (1) 
c1cncc(Cc2nc(C[C@@H]3CCCO3)n(-c3cccc4nc[nH]c34)n2)c1

$$$$
