
     RDKit          3D

 37 40  0  0  0  0  0  0  0  0999 V2000
    4.9149    1.2430   19.0562 C   0  0  0  0  0  0  0  0  0  0  0  0
    5.6044    1.2816   17.8389 C   0  0  0  0  0  0  0  0  0  0  0  0
    6.7311    0.5870   17.6118 N   0  0  0  0  0  0  0  0  0  0  0  0
    7.2124   -0.1607   18.6174 C   0  0  0  0  0  0  0  0  0  0  0  0
    6.6088   -0.2584   19.8917 C   0  0  0  0  0  0  0  0  0  0  0  0
    7.1999   -1.0724   20.9233 N   0  0  0  0  0  0  0  0  0  0  0  0
    7.0867   -0.7355   22.2647 C   0  0  0  0  0  0  0  0  0  0  0  0
    6.6279   -1.5646   23.1571 N   0  0  0  0  0  0  0  0  0  0  0  0
    6.6647   -0.9135   24.3714 N   0  0  0  0  0  0  0  0  0  0  0  0
    7.1692    0.2657   24.1570 C   0  0  0  0  0  0  0  0  0  0  0  0
    7.4908    0.4411   22.8275 N   0  0  0  0  0  0  0  0  0  0  0  0
    8.1762    1.5511   22.1723 C   0  0  0  0  0  0  0  0  0  0  0  0
    9.6807    1.3341   21.9871 C   0  0  0  0  0  0  0  0  0  0  0  0
   10.5914    1.5708   23.2032 C   0  0  0  0  0  0  0  0  0  0  0  0
   11.7011    2.5162   22.6039 C   0  0  0  0  0  0  0  0  0  0  0  0
   12.8197    2.8883   23.2795 C   0  0  0  0  0  0  0  0  0  0  0  0
   13.8324    3.8539   22.7628 C   0  0  0  0  0  0  0  0  0  0  0  0
   13.4093    4.7638   21.9175 C   0  0  0  0  0  0  0  0  0  0  0  0
   13.3524    4.6535   21.5639 C   0  0  0  0  0  0  0  0  0  0  0  0
   11.3371    2.7541   21.2850 C   0  0  0  0  0  0  0  0  0  0  0  0
   10.1158    2.3106   20.9848 O   0  0  0  0  0  0  0  0  0  0  0  0
   12.9471    3.9991   20.6330 H   0  0  0  0  0  0  0  0  0  0  0  0
   12.6730    5.6736   21.6564 H   0  0  0  0  0  0  0  0  0  0  0  0
   13.9194    4.6395   23.4572 H   0  0  0  0  0  0  0  0  0  0  0  0
   13.0461    2.3830   24.2264 H   0  0  0  0  0  0  0  0  0  0  0  0
   10.0600    2.0173   24.0585 H   0  0  0  0  0  0  0  0  0  0  0  0
   11.0278    0.6316   23.5674 H   0  0  0  0  0  0  0  0  0  0  0  0
    9.8923    0.3631   21.5336 H   0  0  0  0  0  0  0  0  0  0  0  0
    7.7605    1.7190   21.1782 H   0  0  0  0  0  0  0  0  0  0  0  0
    8.0076    2.4737   22.7436 H   0  0  0  0  0  0  0  0  0  0  0  0
    7.3124    1.0278   24.9136 H   0  0  0  0  0  0  0  0  0  0  0  0
    6.8611   -2.0299   20.9147 H   0  0  0  0  0  0  0  0  0  0  0  0
    5.4197    0.4506   20.1006 C   0  0  0  0  0  0  0  0  0  0  0  0
    4.9279    0.3832   21.0731 H   0  0  0  0  0  0  0  0  0  0  0  0
    8.1220   -0.7274   18.4252 H   0  0  0  0  0  0  0  0  0  0  0  0
    5.2393    1.8885   17.0124 H   0  0  0  0  0  0  0  0  0  0  0  0
    4.0133    1.8339   19.1771 H   0  0  0  0  0  0  0  0  0  0  0  0
  1  2  2  0
  2  3  1  0
  3  4  2  0
  4  5  1  0
  5  6  1  0
  6  7  1  0
  7  8  2  0
  8  9  1  0
  9 10  2  0
 10 11  1  0
 11 12  1  0
 12 13  1  0
 13 14  1  0
 14 15  1  0
 15 16  2  0
 16 17  1  0
 17 18  2  0
 18 19  1  0
 19 20  2  0
 20 21  1  0
 19 22  1  0
 18 23  1  0
 17 24  1  0
 16 25  1  0
 14 26  1  0
 14 27  1  0
 13 28  1  0
 12 29  1  0
 12 30  1  0
 10 31  1  0
  6 32  1  0
  5 33  2  0
 33 34  1  0
  4 35  1  0
  2 36  1  0
  1 37  1  0
 33  1  1  0
 11  7  1  0
 21 13  1  0
 20 15  1  0
M  END
>  <cnnaffinity>  (1) 
-5.61075

>  <filename>  (1) 
c1cncc(Nc2nncn2CC2Cc3ccccc3O2)c1

$$$$
