
     RDKit          3D

 29 31  0  0  0  0  0  0  0  0999 V2000
    4.9248    1.7797   16.9940 H   0  0  0  0  0  0  0  0  0  0  0  0
    5.4065    1.2931   17.8381 C   0  0  0  0  0  0  0  0  0  0  0  0
    6.5677    0.6693   17.5851 N   0  0  0  0  0  0  0  0  0  0  0  0
    7.1612    0.0529   18.6122 C   0  0  0  0  0  0  0  0  0  0  0  0
    8.1088   -0.4320   18.3779 H   0  0  0  0  0  0  0  0  0  0  0  0
    6.6261    0.0001   19.9096 C   0  0  0  0  0  0  0  0  0  0  0  0
    7.3068   -0.7359   20.9774 C   0  0  0  0  0  0  0  0  0  0  0  0
    6.6660   -1.4936   21.8331 N   0  0  0  0  0  0  0  0  0  0  0  0
    7.6236   -2.0234   22.6727 O   0  0  0  0  0  0  0  0  0  0  0  0
    8.8172   -1.5524   22.3121 C   0  0  0  0  0  0  0  0  0  0  0  0
    9.6633   -1.8838   22.8983 H   0  0  0  0  0  0  0  0  0  0  0  0
    8.7025   -0.7227   21.2476 C   0  0  0  0  0  0  0  0  0  0  0  0
    9.7982    0.0404   20.5863 C   0  0  0  0  0  0  0  0  0  0  0  0
    9.4015    0.8658   19.9905 H   0  0  0  0  0  0  0  0  0  0  0  0
   10.2931   -0.6392   19.8990 H   0  0  0  0  0  0  0  0  0  0  0  0
   10.8015    0.5753   21.5650 C   0  0  0  0  0  0  0  0  0  0  0  0
   10.5252    1.7399   22.2815 C   0  0  0  0  0  0  0  0  0  0  0  0
    9.6008    2.2810   22.1135 H   0  0  0  0  0  0  0  0  0  0  0  0
   11.4446    2.1851   23.2285 C   0  0  0  0  0  0  0  0  0  0  0  0
   11.2462    3.0933   23.7872 H   0  0  0  0  0  0  0  0  0  0  0  0
   12.5939    1.5582   23.5087 N   0  0  0  0  0  0  0  0  0  0  0  0
   12.8430    0.4351   22.8259 C   0  0  0  0  0  0  0  0  0  0  0  0
   13.7774   -0.0669   23.0551 H   0  0  0  0  0  0  0  0  0  0  0  0
   11.9855   -0.0996   21.8632 C   0  0  0  0  0  0  0  0  0  0  0  0
   12.2509   -1.0170   21.3483 H   0  0  0  0  0  0  0  0  0  0  0  0
    5.4176    0.6586   20.1591 C   0  0  0  0  0  0  0  0  0  0  0  0
    4.9925    0.6312   21.1652 H   0  0  0  0  0  0  0  0  0  0  0  0
    4.8040    1.3204   19.1011 C   0  0  0  0  0  0  0  0  0  0  0  0
    3.8711    1.8490   19.2513 H   0  0  0  0  0  0  0  0  0  0  0  0
  1  2  1  0
  2  3  2  0
  3  4  1  0
  4  5  1  0
  4  6  2  0
  6  7  1  0
  7  8  2  0
  8  9  1  0
  9 10  1  0
 10 11  1  0
 10 12  2  0
 12 13  1  0
 13 14  1  0
 13 15  1  0
 13 16  1  0
 16 17  2  0
 17 18  1  0
 17 19  1  0
 19 20  1  0
 19 21  2  0
 21 22  1  0
 22 23  1  0
 22 24  2  0
 24 25  1  0
  6 26  1  0
 26 27  1  0
 26 28  2  0
 28 29  1  0
 28  2  1  0
 12  7  1  0
 24 16  1  0
M  END
>  <cnnaffinity>  (1) 
-5.24732

>  <filename>  (1) 
c1cncc(-c2nocc2Cc2ccncc2)c1

$$$$
