
     RDKit          3D

 32 34  0  0  0  0  0  0  0  0999 V2000
    4.9238    1.7822   16.9923 H   0  0  0  0  0  0  0  0  0  0  0  0
    5.3996    1.2933   17.8364 C   0  0  0  0  0  0  0  0  0  0  0  0
    6.5609    0.6779   17.5749 N   0  0  0  0  0  0  0  0  0  0  0  0
    7.1627    0.0674   18.5938 C   0  0  0  0  0  0  0  0  0  0  0  0
    8.1069   -0.4128   18.3558 H   0  0  0  0  0  0  0  0  0  0  0  0
    6.6479    0.0175   19.8980 C   0  0  0  0  0  0  0  0  0  0  0  0
    7.3802   -0.6916   20.9375 C   0  0  0  0  0  0  0  0  0  0  0  0
    6.8841   -0.7547   22.2358 N   0  0  0  0  0  0  0  0  0  0  0  0
    7.7632   -1.4461   22.8827 C   0  0  0  0  0  0  0  0  0  0  0  0
    7.7560   -1.8328   24.3254 C   0  0  0  0  0  0  0  0  0  0  0  0
    6.8290   -1.3932   24.7069 H   0  0  0  0  0  0  0  0  0  0  0  0
    8.9438   -1.2288   25.1121 C   0  0  0  0  0  0  0  0  0  0  0  0
    9.8831   -1.5588   24.6521 H   0  0  0  0  0  0  0  0  0  0  0  0
    8.9255   -0.1340   25.0499 H   0  0  0  0  0  0  0  0  0  0  0  0
    8.9195   -1.6808   26.5773 C   0  0  0  0  0  0  0  0  0  0  0  0
    9.7893   -1.2936   27.1197 H   0  0  0  0  0  0  0  0  0  0  0  0
    8.0389   -1.2612   27.0790 H   0  0  0  0  0  0  0  0  0  0  0  0
    8.8672   -3.1368   26.7338 N   0  0  0  0  0  0  0  0  0  0  0  0
    9.7034   -3.5085   26.2877 H   0  0  0  0  0  0  0  0  0  0  0  0
    7.7252   -3.7192   26.0233 C   0  0  0  0  0  0  0  0  0  0  0  0
    6.8111   -3.3567   26.5097 H   0  0  0  0  0  0  0  0  0  0  0  0
    7.7353   -4.8059   26.1639 H   0  0  0  0  0  0  0  0  0  0  0  0
    7.6912   -3.3645   24.5317 C   0  0  0  0  0  0  0  0  0  0  0  0
    6.7895   -3.7750   24.0612 H   0  0  0  0  0  0  0  0  0  0  0  0
    8.5509   -3.8299   24.0348 H   0  0  0  0  0  0  0  0  0  0  0  0
    8.8086   -1.8583   22.1287 O   0  0  0  0  0  0  0  0  0  0  0  0
    8.5522   -1.3644   20.8825 C   0  0  0  0  0  0  0  0  0  0  0  0
    9.2658   -1.5681   20.0986 H   0  0  0  0  0  0  0  0  0  0  0  0
    5.4259    0.6595   20.1609 C   0  0  0  0  0  0  0  0  0  0  0  0
    5.0075    0.6321   21.1730 H   0  0  0  0  0  0  0  0  0  0  0  0
    4.8013    1.3127   19.1028 C   0  0  0  0  0  0  0  0  0  0  0  0
    3.8715    1.8451   19.2516 H   0  0  0  0  0  0  0  0  0  0  0  0
  1  2  1  0
  2  3  2  0
  3  4  1  0
  4  5  1  0
  4  6  2  0
  6  7  1  0
  7  8  1  0
  8  9  2  0
  9 10  1  0
 10 11  1  0
 10 12  1  0
 12 13  1  0
 12 14  1  0
 12 15  1  0
 15 16  1  0
 15 17  1  0
 15 18  1  0
 18 19  1  0
 18 20  1  0
 20 21  1  0
 20 22  1  0
 20 23  1  0
 23 24  1  0
 23 25  1  0
  9 26  1  0
 26 27  1  0
 27 28  1  0
  6 29  1  0
 29 30  1  0
 29 31  2  0
 31 32  1  0
 31  2  1  0
 27  7  2  0
 23 10  1  0
M  END
>  <cnnaffinity>  (1) 
-4.62718

>  <filename>  (1) 
c1cncc(-c2coc(C3CCNCC3)n2)c1

$$$$
