
     RDKit          3D

 33 36  0  0  0  0  0  0  0  0999 V2000
    4.9287    1.7793   16.9982 H   0  0  0  0  0  0  0  0  0  0  0  0
    5.4078    1.2875   17.8434 C   0  0  0  0  0  0  0  0  0  0  0  0
    6.5741    0.6683   17.5943 N   0  0  0  0  0  0  0  0  0  0  0  0
    7.1828    0.0468   18.6068 C   0  0  0  0  0  0  0  0  0  0  0  0
    8.1276   -0.4339   18.3746 H   0  0  0  0  0  0  0  0  0  0  0  0
    6.6596    0.0013   19.9091 C   0  0  0  0  0  0  0  0  0  0  0  0
    7.3584   -0.6741   20.9368 N   0  0  0  0  0  0  0  0  0  0  0  0
    8.2926   -1.6037   20.6457 N   0  0  0  0  0  0  0  0  0  0  0  0
    8.7328   -2.0201   21.8138 C   0  0  0  0  0  0  0  0  0  0  0  0
    9.4833   -2.7923   21.8945 H   0  0  0  0  0  0  0  0  0  0  0  0
    8.1054   -1.3513   22.9029 C   0  0  0  0  0  0  0  0  0  0  0  0
    8.3317   -1.4875   24.3487 C   0  0  0  0  0  0  0  0  0  0  0  0
    8.2032   -0.3598   25.1498 C   0  0  0  0  0  0  0  0  0  0  0  0
    7.9390    0.5919   24.6922 H   0  0  0  0  0  0  0  0  0  0  0  0
    8.4277   -0.4006   26.5419 C   0  0  0  0  0  0  0  0  0  0  0  0
    8.3220    0.5069   27.1401 H   0  0  0  0  0  0  0  0  0  0  0  0
    8.7785   -1.5836   27.1442 C   0  0  0  0  0  0  0  0  0  0  0  0
    8.9578   -1.5925   28.2116 H   0  0  0  0  0  0  0  0  0  0  0  0
    8.9108   -2.7785   26.3833 C   0  0  0  0  0  0  0  0  0  0  0  0
    9.2607   -4.0339   26.9686 C   0  0  0  0  0  0  0  0  0  0  0  0
    9.4399   -4.1188   28.0377 H   0  0  0  0  0  0  0  0  0  0  0  0
    9.3544   -5.1425   26.1755 C   0  0  0  0  0  0  0  0  0  0  0  0
    9.6156   -6.1142   26.5849 H   0  0  0  0  0  0  0  0  0  0  0  0
    9.1032   -5.0121   24.7834 C   0  0  0  0  0  0  0  0  0  0  0  0
    9.1682   -5.8871   24.1423 H   0  0  0  0  0  0  0  0  0  0  0  0
    8.7971   -3.8837   24.1910 N   0  0  0  0  0  0  0  0  0  0  0  0
    8.6842   -2.7512   24.9628 C   0  0  0  0  0  0  0  0  0  0  0  0
    7.2428   -0.4818   22.2736 C   0  0  0  0  0  0  0  0  0  0  0  0
    6.5548    0.2516   22.6762 H   0  0  0  0  0  0  0  0  0  0  0  0
    5.4410    0.6466   20.1691 C   0  0  0  0  0  0  0  0  0  0  0  0
    4.9896    0.6286   21.1629 H   0  0  0  0  0  0  0  0  0  0  0  0
    4.8152    1.3016   19.1092 C   0  0  0  0  0  0  0  0  0  0  0  0
    3.8853    1.8336   19.2632 H   0  0  0  0  0  0  0  0  0  0  0  0
  1  2  1  0
  2  3  2  0
  3  4  1  0
  4  5  1  0
  4  6  2  0
  6  7  1  0
  7  8  1  0
  8  9  2  0
  9 10  1  0
  9 11  1  0
 11 12  1  0
 12 13  2  0
 13 14  1  0
 13 15  1  0
 15 16  1  0
 15 17  2  0
 17 18  1  0
 17 19  1  0
 19 20  2  0
 20 21  1  0
 20 22  1  0
 22 23  1  0
 22 24  2  0
 24 25  1  0
 24 26  1  0
 26 27  2  0
 11 28  2  0
 28 29  1  0
  6 30  1  0
 30 31  1  0
 30 32  2  0
 32 33  1  0
 32  2  1  0
 28  7  1  0
 27 12  1  0
 27 19  1  0
M  END
>  <cnnaffinity>  (1) 
-5.51481

>  <filename>  (1) 
c1cncc(-n2cc(-c3cccc4cccnc34)cn2)c1

$$$$
