
     RDKit          3D

 35 37  0  0  0  0  0  0  0  0999 V2000
    4.9720    1.8205   16.9893 H   0  0  0  0  0  0  0  0  0  0  0  0
    5.4209    1.3040   17.8346 C   0  0  0  0  0  0  0  0  0  0  0  0
    6.5721    0.6531   17.5907 N   0  0  0  0  0  0  0  0  0  0  0  0
    7.1384    0.0069   18.6164 C   0  0  0  0  0  0  0  0  0  0  0  0
    8.0712   -0.5144   18.4005 H   0  0  0  0  0  0  0  0  0  0  0  0
    6.6114    0.0007   19.9191 C   0  0  0  0  0  0  0  0  0  0  0  0
    7.3501   -0.7240   20.9606 C   0  0  0  0  0  0  0  0  0  0  0  0
    7.9966   -1.8610   20.8157 N   0  0  0  0  0  0  0  0  0  0  0  0
    8.5446   -2.1470   22.0199 N   0  0  0  0  0  0  0  0  0  0  0  0
    8.2892   -1.2220   22.8725 N   0  0  0  0  0  0  0  0  0  0  0  0
    7.5312   -0.3059   22.2343 N   0  0  0  0  0  0  0  0  0  0  0  0
    7.2607    0.9751   22.8400 C   0  0  0  0  0  0  0  0  0  0  0  0
    7.3438    1.7569   22.0697 H   0  0  0  0  0  0  0  0  0  0  0  0
    8.0452    1.1388   23.5893 H   0  0  0  0  0  0  0  0  0  0  0  0
    5.9802    0.9433   23.4156 O   0  0  0  0  0  0  0  0  0  0  0  0
    5.6474    2.0538   24.2611 C   0  0  0  0  0  0  0  0  0  0  0  0
    6.1533    2.9664   23.8963 H   0  0  0  0  0  0  0  0  0  0  0  0
    6.0529    1.8207   25.7305 C   0  0  0  0  0  0  0  0  0  0  0  0
    5.9192    2.7757   26.2541 H   0  0  0  0  0  0  0  0  0  0  0  0
    7.1131    1.5618   25.8108 H   0  0  0  0  0  0  0  0  0  0  0  0
    5.1760    0.7747   26.4316 C   0  0  0  0  0  0  0  0  0  0  0  0
    5.3143   -0.2267   25.9721 H   0  0  0  0  0  0  0  0  0  0  0  0
    5.4643    0.6918   27.4846 H   0  0  0  0  0  0  0  0  0  0  0  0
    3.7892    1.2356   26.3385 N   0  0  0  0  0  0  0  0  0  0  0  0
    3.1799    0.6786   26.9316 H   0  0  0  0  0  0  0  0  0  0  0  0
    3.3542    1.1897   24.9477 C   0  0  0  0  0  0  0  0  0  0  0  0
    3.5615    0.2047   24.4981 H   0  0  0  0  0  0  0  0  0  0  0  0
    2.2739    1.3615   24.8803 H   0  0  0  0  0  0  0  0  0  0  0  0
    4.1296    2.2432   24.1466 C   0  0  0  0  0  0  0  0  0  0  0  0
    3.8539    2.2146   23.0869 H   0  0  0  0  0  0  0  0  0  0  0  0
    3.8741    3.2385   24.5152 H   0  0  0  0  0  0  0  0  0  0  0  0
    5.4076    0.6872   20.1585 C   0  0  0  0  0  0  0  0  0  0  0  0
    4.9688    0.7195   21.1574 H   0  0  0  0  0  0  0  0  0  0  0  0
    4.7963    1.3334   19.0842 C   0  0  0  0  0  0  0  0  0  0  0  0
    3.8573    1.8646   19.2066 H   0  0  0  0  0  0  0  0  0  0  0  0
  1  2  1  0
  2  3  2  0
  3  4  1  0
  4  5  1  0
  4  6  2  0
  6  7  1  0
  7  8  2  0
  8  9  1  0
  9 10  2  0
 10 11  1  0
 11 12  1  0
 12 13  1  0
 12 14  1  0
 12 15  1  0
 15 16  1  0
 16 17  1  0
 16 18  1  0
 18 19  1  0
 18 20  1  0
 18 21  1  0
 21 22  1  0
 21 23  1  0
 21 24  1  0
 24 25  1  0
 24 26  1  0
 26 27  1  0
 26 28  1  0
 26 29  1  0
 29 30  1  0
 29 31  1  0
  6 32  1  0
 32 33  1  0
 32 34  2  0
 34 35  1  0
 34  2  1  0
 11  7  1  0
 29 16  1  0
M  END
>  <cnnaffinity>  (1) 
-4.3855

>  <filename>  (1) 
c1cncc(-c2nnnn2COC2CCNCC2)c1

$$$$
