
     RDKit          3D

 40 44  0  0  0  0  0  0  0  0999 V2000
    4.9833    1.8136   16.9815 H   0  0  0  0  0  0  0  0  0  0  0  0
    5.4431    1.3054   17.8262 C   0  0  0  0  0  0  0  0  0  0  0  0
    6.6062    0.6799   17.5861 N   0  0  0  0  0  0  0  0  0  0  0  0
    7.1978    0.0583   18.6163 C   0  0  0  0  0  0  0  0  0  0  0  0
    8.1385   -0.4365   18.3839 H   0  0  0  0  0  0  0  0  0  0  0  0
    6.6884    0.0135   19.9482 C   0  0  0  0  0  0  0  0  0  0  0  0
    7.3067   -0.6789   20.9853 N   0  0  0  0  0  0  0  0  0  0  0  0
    7.2657   -0.3024   22.4175 C   0  0  0  0  0  0  0  0  0  0  0  0
    7.4023    0.7786   22.5729 H   0  0  0  0  0  0  0  0  0  0  0  0
    6.3302   -0.6280   22.8854 H   0  0  0  0  0  0  0  0  0  0  0  0
    8.4696   -1.1117   22.9862 C   0  0  2  0  0  0  0  0  0  0  0  0
    8.4225   -1.3061   24.0591 H   0  0  0  0  0  0  0  0  0  0  0  0
    9.7518   -0.5022   22.5682 N   0  0  0  0  0  0  0  0  0  0  0  0
   10.2956    0.6437   23.1462 C   0  0  0  0  0  0  0  0  0  0  0  0
    9.7244    1.2683   24.2906 C   0  0  0  0  0  0  0  0  0  0  0  0
    8.8967    0.7791   24.7901 H   0  0  0  0  0  0  0  0  0  0  0  0
   10.2021    2.4811   24.7669 C   0  0  0  0  0  0  0  0  0  0  0  0
    9.7093    2.9444   25.6216 H   0  0  0  0  0  0  0  0  0  0  0  0
   11.3231    3.0862   24.1405 C   0  0  0  0  0  0  0  0  0  0  0  0
   12.0804    4.2979   24.3071 C   0  0  0  0  0  0  0  0  0  0  0  0
   11.8334    5.1217   24.9631 H   0  0  0  0  0  0  0  0  0  0  0  0
   13.1558    4.2242   23.4625 C   0  0  0  0  0  0  0  0  0  0  0  0
   13.9732    4.9186   23.3195 H   0  0  0  0  0  0  0  0  0  0  0  0
   13.0843    3.0581   22.7229 N   0  0  0  0  0  0  0  0  0  0  0  0
   13.8002    2.6714   22.1242 H   0  0  0  0  0  0  0  0  0  0  0  0
   11.9708    2.3599   23.1098 C   0  0  0  0  0  0  0  0  0  0  0  0
   11.4599    1.1766   22.5797 C   0  0  0  0  0  0  0  0  0  0  0  0
   11.9777    0.6641   21.7831 H   0  0  0  0  0  0  0  0  0  0  0  0
    9.7652   -0.6252   21.0879 C   0  0  0  0  0  0  0  0  0  0  0  0
   10.6736   -1.1199   20.7264 H   0  0  0  0  0  0  0  0  0  0  0  0
    9.6501    0.3485   20.5910 H   0  0  0  0  0  0  0  0  0  0  0  0
    8.5175   -1.4839   20.8309 C   0  0  1  0  0  0  0  0  0  0  0  0
    8.5403   -1.9569   19.8689 H   0  0  0  0  0  0  0  0  0  0  0  0
    8.4570   -2.3489   22.0854 C   0  0  0  0  0  0  0  0  0  0  0  0
    9.3292   -2.9885   22.2351 H   0  0  0  0  0  0  0  0  0  0  0  0
    7.5468   -2.9471   22.1587 H   0  0  0  0  0  0  0  0  0  0  0  0
    5.4572    0.6691   20.1589 C   0  0  0  0  0  0  0  0  0  0  0  0
    5.0125    0.6615   21.1531 H   0  0  0  0  0  0  0  0  0  0  0  0
    4.8354    1.3150   19.0866 C   0  0  0  0  0  0  0  0  0  0  0  0
    3.8934    1.8379   19.2212 H   0  0  0  0  0  0  0  0  0  0  0  0
  1  2  1  0
  2  3  2  0
  3  4  1  0
  4  5  1  0
  4  6  2  0
  6  7  1  0
  7  8  1  0
  8  9  1  0
  8 10  1  0
  8 11  1  0
 11 12  1  1
 11 13  1  0
 13 14  1  0
 14 15  2  0
 15 16  1  0
 15 17  1  0
 17 18  1  0
 17 19  2  0
 19 20  1  0
 20 21  1  0
 20 22  2  0
 22 23  1  0
 22 24  1  0
 24 25  1  0
 24 26  1  0
 26 27  2  0
 27 28  1  0
 13 29  1  0
 29 30  1  0
 29 31  1  0
 29 32  1  0
 32 33  1  6
 32 34  1  0
 34 35  1  0
 34 36  1  0
  6 37  1  0
 37 38  1  0
 37 39  2  0
 39 40  1  0
 39  2  1  0
 32  7  1  0
 34 11  1  0
 27 14  1  0
 26 19  1  0
M  END
>  <cnnaffinity>  (1) 
-5.89231

>  <filename>  (1) 
c1cncc(N2C[C@H]3C[C@@H]2CN3c2ccc3cc[nH]c3c2)c1

$$$$
