
     RDKit          3D

 31 33  0  0  0  0  0  0  0  0999 V2000
    4.9625    1.8358   16.9363 H   0  0  0  0  0  0  0  0  0  0  0  0
    5.4333    1.3256   17.7752 C   0  0  0  0  0  0  0  0  0  0  0  0
    6.5930    0.6991   17.5155 N   0  0  0  0  0  0  0  0  0  0  0  0
    7.1932    0.0709   18.5338 C   0  0  0  0  0  0  0  0  0  0  0  0
    8.1317   -0.4305   18.3053 H   0  0  0  0  0  0  0  0  0  0  0  0
    6.6846    0.0198   19.8521 C   0  0  0  0  0  0  0  0  0  0  0  0
    7.3651   -0.7243   20.9399 C   0  0  0  0  0  0  0  0  0  0  0  0
    6.8836   -1.6069   21.8789 C   0  0  0  0  0  0  0  0  0  0  0  0
    5.8616   -1.8492   22.1170 H   0  0  0  0  0  0  0  0  0  0  0  0
    7.9154   -2.1644   22.5606 N   0  0  0  0  0  0  0  0  0  0  0  0
    9.0213   -1.6415   22.1264 N   0  0  0  0  0  0  0  0  0  0  0  0
    8.7106   -0.7504   21.1844 N   0  0  0  0  0  0  0  0  0  0  0  0
    9.6785    0.0615   20.5959 N   0  0  0  0  0  0  0  0  0  0  0  0
    9.3009    1.0056   20.6009 H   0  0  0  0  0  0  0  0  0  0  0  0
   10.9707    0.0556   21.2948 C   0  0  0  0  0  0  0  0  0  0  0  0
   11.7009    0.5876   20.6944 H   0  0  0  0  0  0  0  0  0  0  0  0
   11.3142   -0.9772   21.3789 H   0  0  0  0  0  0  0  0  0  0  0  0
   11.0260    0.7387   22.6413 C   0  0  0  0  0  0  0  0  0  0  0  0
   10.9750    2.1370   22.7741 C   0  0  0  0  0  0  0  0  0  0  0  0
   10.6986    2.7875   21.9474 H   0  0  0  0  0  0  0  0  0  0  0  0
   11.2850    2.7040   24.0131 C   0  0  0  0  0  0  0  0  0  0  0  0
   11.2615    3.7865   24.1458 H   0  0  0  0  0  0  0  0  0  0  0  0
   11.6254    1.9842   25.0901 N   0  0  0  0  0  0  0  0  0  0  0  0
   11.6317    0.6503   24.9689 C   0  0  0  0  0  0  0  0  0  0  0  0
   11.9446    0.0752   25.8382 H   0  0  0  0  0  0  0  0  0  0  0  0
   11.2717   -0.0096   23.7935 C   0  0  0  0  0  0  0  0  0  0  0  0
   11.1200   -1.0840   23.7588 H   0  0  0  0  0  0  0  0  0  0  0  0
    5.4667    0.6753   20.0918 C   0  0  0  0  0  0  0  0  0  0  0  0
    5.0428    0.6883   21.0967 H   0  0  0  0  0  0  0  0  0  0  0  0
    4.8348    1.3376   19.0388 C   0  0  0  0  0  0  0  0  0  0  0  0
    3.9002    1.8714   19.1841 H   0  0  0  0  0  0  0  0  0  0  0  0
  1  2  1  0
  2  3  2  0
  3  4  1  0
  4  5  1  0
  4  6  2  0
  6  7  1  0
  7  8  2  0
  8  9  1  0
  8 10  1  0
 10 11  2  0
 11 12  1  0
 12 13  1  0
 13 14  1  0
 13 15  1  0
 15 16  1  0
 15 17  1  0
 15 18  1  0
 18 19  2  0
 19 20  1  0
 19 21  1  0
 21 22  1  0
 21 23  2  0
 23 24  1  0
 24 25  1  0
 24 26  2  0
 26 27  1  0
  6 28  1  0
 28 29  1  0
 28 30  2  0
 30 31  1  0
 30  2  1  0
 12  7  1  0
 26 18  1  0
M  END
>  <cnnaffinity>  (1) 
-4.88652

>  <filename>  (1) 
c1cncc(-c2cnnn2NCc2ccncc2)c1

$$$$
