
     RDKit          3D

 34 36  0  0  0  0  0  0  0  0999 V2000
    4.9286    1.8010   16.9821 H   0  0  0  0  0  0  0  0  0  0  0  0
    5.3934    1.2970   17.8281 C   0  0  0  0  0  0  0  0  0  0  0  0
    6.5541    0.6701   17.5800 N   0  0  0  0  0  0  0  0  0  0  0  0
    7.1684    0.0637   18.6043 C   0  0  0  0  0  0  0  0  0  0  0  0
    8.1110   -0.4286   18.3717 H   0  0  0  0  0  0  0  0  0  0  0  0
    6.6748    0.0421   19.9321 C   0  0  0  0  0  0  0  0  0  0  0  0
    7.3649   -0.6203   20.9864 N   0  0  0  0  0  0  0  0  0  0  0  0
    7.4148   -0.3368   22.3463 C   0  0  0  0  0  0  0  0  0  0  0  0
    7.0162    0.9023   22.7433 N   0  0  0  0  0  0  0  0  0  0  0  0
    7.1642    1.5305   21.9713 H   0  0  0  0  0  0  0  0  0  0  0  0
    7.2968    1.3219   24.1162 C   0  0  0  0  0  0  0  0  0  0  0  0
    6.8116    2.2951   24.2613 H   0  0  0  0  0  0  0  0  0  0  0  0
    6.8031    0.5981   24.7736 H   0  0  0  0  0  0  0  0  0  0  0  0
    8.7662    1.4039   24.5564 C   0  0  0  0  0  0  0  0  0  0  0  0
    9.3330    0.4472   25.4247 C   0  0  0  0  0  0  0  0  0  0  0  0
    8.7399   -0.3871   25.7938 H   0  0  0  0  0  0  0  0  0  0  0  0
   10.6906    0.5253   25.7505 C   0  0  0  0  0  0  0  0  0  0  0  0
   11.1508   -0.2117   26.4102 H   0  0  0  0  0  0  0  0  0  0  0  0
   11.5041    1.4798   25.2749 N   0  0  0  0  0  0  0  0  0  0  0  0
   10.9662    2.4145   24.4850 C   0  0  0  0  0  0  0  0  0  0  0  0
   11.6435    3.1989   24.1454 H   0  0  0  0  0  0  0  0  0  0  0  0
    9.6191    2.4264   24.1101 C   0  0  0  0  0  0  0  0  0  0  0  0
    9.2562    3.2236   23.4657 H   0  0  0  0  0  0  0  0  0  0  0  0
    7.8540   -1.2601   23.1147 N   0  0  0  0  0  0  0  0  0  0  0  0
    8.0936   -2.4327   22.2904 C   0  0  0  0  0  0  0  0  0  0  0  0
    9.1342   -2.7732   22.3971 H   0  0  0  0  0  0  0  0  0  0  0  0
    7.4334   -3.2487   22.6245 H   0  0  0  0  0  0  0  0  0  0  0  0
    7.7987   -2.0032   20.8355 C   0  0  0  0  0  0  0  0  0  0  0  0
    7.0008   -2.6000   20.3711 H   0  0  0  0  0  0  0  0  0  0  0  0
    8.6984   -2.0428   20.2087 H   0  0  0  0  0  0  0  0  0  0  0  0
    5.4421    0.6744   20.1595 C   0  0  0  0  0  0  0  0  0  0  0  0
    5.0225    0.6357   21.1622 H   0  0  0  0  0  0  0  0  0  0  0  0
    4.7967    1.3151   19.0944 C   0  0  0  0  0  0  0  0  0  0  0  0
    3.8594    1.8466   19.2395 H   0  0  0  0  0  0  0  0  0  0  0  0
  1  2  1  0
  2  3  2  0
  3  4  1  0
  4  5  1  0
  4  6  2  0
  6  7  1  0
  7  8  1  0
  8  9  1  0
  9 10  1  0
  9 11  1  0
 11 12  1  0
 11 13  1  0
 11 14  1  0
 14 15  2  0
 15 16  1  0
 15 17  1  0
 17 18  1  0
 17 19  2  0
 19 20  1  0
 20 21  1  0
 20 22  2  0
 22 23  1  0
  8 24  2  0
 24 25  1  0
 25 26  1  0
 25 27  1  0
 25 28  1  0
 28 29  1  0
 28 30  1  0
  6 31  1  0
 31 32  1  0
 31 33  2  0
 33 34  1  0
 33  2  1  0
 28  7  1  0
 22 14  1  0
M  END
>  <cnnaffinity>  (1) 
-4.88879

>  <filename>  (1) 
c1cncc(N2CCN=C2NCc2ccncc2)c1

$$$$
