
     RDKit          3D

 51 55  0  0  0  0  0  0  0  0999 V2000
    4.7908    1.3126   19.0469 C   0  0  0  0  0  0  0  0  0  0  0  0
    5.3985    1.3021   17.7882 C   0  0  0  0  0  0  0  0  0  0  0  0
    6.5454    0.6552   17.5249 N   0  0  0  0  0  0  0  0  0  0  0  0
    7.1323    0.0149   18.5448 C   0  0  0  0  0  0  0  0  0  0  0  0
    6.6218   -0.0302   19.8538 C   0  0  0  0  0  0  0  0  0  0  0  0
    7.3956   -0.6508   21.0053 C   0  0  0  0  0  0  0  0  0  0  0  0
    8.2645    0.3446   21.7089 C   0  0  0  0  0  0  0  0  0  0  0  0
    7.8212    1.1333   22.6682 N   0  0  0  0  0  0  0  0  0  0  0  0
    8.9054    1.8865   22.9734 N   0  0  0  0  0  0  0  0  0  0  0  0
    8.8269    2.9216   24.0055 C   0  0  0  0  0  0  0  0  0  0  0  0
    8.1507    4.2218   23.5209 C   0  0  0  0  0  0  0  0  0  0  0  0
    8.5691    5.4376   24.3875 C   0  0  0  0  0  0  0  0  0  0  0  0
    7.5221    6.5768   24.3397 C   0  0  0  0  0  0  0  0  0  0  0  0
    6.6455    6.4771   23.0893 C   0  0  0  0  0  0  0  0  0  0  0  0
    5.9532    5.2364   23.0063 O   0  0  0  0  0  0  0  0  0  0  0  0
    6.6189    4.0798   23.4974 C   0  0  0  0  0  0  0  0  0  0  0  0
    6.2538    3.8598   24.5178 H   0  0  0  0  0  0  0  0  0  0  0  0
    6.3277    3.2382   22.8587 H   0  0  0  0  0  0  0  0  0  0  0  0
    5.8709    7.2497   23.0911 H   0  0  0  0  0  0  0  0  0  0  0  0
    7.2545    6.6211   22.1806 H   0  0  0  0  0  0  0  0  0  0  0  0
    8.0112    7.5565   24.3729 H   0  0  0  0  0  0  0  0  0  0  0  0
    6.8663    6.5132   25.2180 H   0  0  0  0  0  0  0  0  0  0  0  0
    9.5465    5.7941   24.0324 H   0  0  0  0  0  0  0  0  0  0  0  0
    8.7090    5.1244   25.4318 H   0  0  0  0  0  0  0  0  0  0  0  0
    8.4506    4.4199   22.4773 H   0  0  0  0  0  0  0  0  0  0  0  0
    8.2816    2.4977   24.8577 H   0  0  0  0  0  0  0  0  0  0  0  0
    9.8427    3.1295   24.3599 H   0  0  0  0  0  0  0  0  0  0  0  0
    9.9469    1.5035   22.1957 C   0  0  0  0  0  0  0  0  0  0  0  0
   11.2911    2.0802   22.3334 C   0  0  0  0  0  0  0  0  0  0  0  0
   11.5228    3.4644   22.3227 C   0  0  0  0  0  0  0  0  0  0  0  0
   12.8204    3.9925   22.4527 C   0  0  0  0  0  0  0  0  0  0  0  0
   13.9096    3.1525   22.6448 C   0  0  0  0  0  0  0  0  0  0  0  0
   13.6815    1.7655   22.6666 C   0  0  0  0  0  0  0  0  0  0  0  0
   12.3955    1.2085   22.4862 C   0  0  0  0  0  0  0  0  0  0  0  0
   12.5665   -0.2230   22.4302 C   0  0  0  0  0  0  0  0  0  0  0  0
   13.9010   -0.4733   22.5421 C   0  0  0  0  0  0  0  0  0  0  0  0
   14.5789    0.7216   22.7254 N   0  0  0  0  0  0  0  0  0  0  0  0
   15.5602    0.8601   22.5464 H   0  0  0  0  0  0  0  0  0  0  0  0
   14.4274   -1.4185   22.4991 H   0  0  0  0  0  0  0  0  0  0  0  0
   11.7662   -0.9217   22.2180 H   0  0  0  0  0  0  0  0  0  0  0  0
   14.9131    3.5507   22.7170 H   0  0  0  0  0  0  0  0  0  0  0  0
   12.9755    5.0648   22.3571 H   0  0  0  0  0  0  0  0  0  0  0  0
   10.6817    4.1449   22.2345 H   0  0  0  0  0  0  0  0  0  0  0  0
    9.5660    0.5215   21.3856 N   0  0  0  0  0  0  0  0  0  0  0  0
    8.0344   -1.4660   20.6538 H   0  0  0  0  0  0  0  0  0  0  0  0
    6.7030   -1.0681   21.7418 H   0  0  0  0  0  0  0  0  0  0  0  0
    5.4174    0.6409   20.0987 C   0  0  0  0  0  0  0  0  0  0  0  0
    4.9810    0.6443   21.1003 H   0  0  0  0  0  0  0  0  0  0  0  0
    8.0661   -0.4961   18.3076 H   0  0  0  0  0  0  0  0  0  0  0  0
    4.9430    1.8352   16.9546 H   0  0  0  0  0  0  0  0  0  0  0  0
    3.8617    1.8539   19.1946 H   0  0  0  0  0  0  0  0  0  0  0  0
  1  2  2  0
  2  3  1  0
  3  4  2  0
  4  5  1  0
  5  6  1  0
  6  7  1  0
  7  8  2  0
  8  9  1  0
  9 10  1  0
 10 11  1  0
 11 12  1  0
 12 13  1  0
 13 14  1  0
 14 15  1  0
 15 16  1  0
 16 17  1  0
 16 18  1  0
 14 19  1  0
 14 20  1  0
 13 21  1  0
 13 22  1  0
 12 23  1  0
 12 24  1  0
 11 25  1  0
 10 26  1  0
 10 27  1  0
  9 28  1  0
 28 29  1  0
 29 30  2  0
 30 31  1  0
 31 32  2  0
 32 33  1  0
 33 34  2  0
 34 35  1  0
 35 36  2  0
 36 37  1  0
 37 38  1  0
 36 39  1  0
 35 40  1  0
 32 41  1  0
 31 42  1  0
 30 43  1  0
 28 44  2  0
  6 45  1  0
  6 46  1  0
  5 47  2  0
 47 48  1  0
  4 49  1  0
  2 50  1  0
  1 51  1  0
 47  1  1  0
 44  7  1  0
 16 11  1  0
 34 29  1  0
 37 33  1  0
M  END
>  <cnnaffinity>  (1) 
-6.65653

>  <filename>  (1) 
c1cncc(Cc2nc(-c3cccc4[nH]ccc34)n(CC3CCCOC3)n2)c1

$$$$
