
     RDKit          3D

 35 37  0  0  0  0  0  0  0  0999 V2000
    4.9272    1.7866   16.9492 H   0  0  0  0  0  0  0  0  0  0  0  0
    5.4048    1.3007   17.7975 C   0  0  0  0  0  0  0  0  0  0  0  0
    6.5669    0.6785   17.5457 N   0  0  0  0  0  0  0  0  0  0  0  0
    7.1680    0.0751   18.5803 C   0  0  0  0  0  0  0  0  0  0  0  0
    8.1032   -0.4410   18.3558 H   0  0  0  0  0  0  0  0  0  0  0  0
    6.6732    0.0651   19.8919 C   0  0  0  0  0  0  0  0  0  0  0  0
    7.3896   -0.7108   20.9638 C   0  0  0  0  0  0  0  0  0  0  0  0
    8.4771   -0.5863   20.8382 H   0  0  0  0  0  0  0  0  0  0  0  0
    7.1651   -0.2663   21.9446 H   0  0  0  0  0  0  0  0  0  0  0  0
    7.0250   -2.1840   20.9822 C   0  0  0  0  0  0  0  0  0  0  0  0
    6.0324   -2.8743   20.2459 C   0  0  0  0  0  0  0  0  0  0  0  0
    5.3585   -2.4524   19.5083 H   0  0  0  0  0  0  0  0  0  0  0  0
    5.9675   -4.1676   20.5282 N   0  0  0  0  0  0  0  0  0  0  0  0
    6.9337   -4.3334   21.4636 N   0  0  0  0  0  0  0  0  0  0  0  0
    7.1486   -5.2168   21.9037 H   0  0  0  0  0  0  0  0  0  0  0  0
    7.5666   -3.1843   21.7584 C   0  0  0  0  0  0  0  0  0  0  0  0
    8.5330   -3.2379   22.6861 O   0  0  0  0  0  0  0  0  0  0  0  0
    8.6626   -2.0851   23.5332 C   0  0  0  0  0  0  0  0  0  0  0  0
    8.9155   -1.2129   22.9208 H   0  0  0  0  0  0  0  0  0  0  0  0
    7.4302   -1.8224   24.3973 C   0  0  0  0  0  0  0  0  0  0  0  0
    7.0251   -2.7874   24.7275 H   0  0  0  0  0  0  0  0  0  0  0  0
    6.6451   -1.3028   23.8394 H   0  0  0  0  0  0  0  0  0  0  0  0
    7.9712   -1.0263   25.5901 C   0  0  0  0  0  0  0  0  0  0  0  0
    7.3700   -1.1882   26.4891 H   0  0  0  0  0  0  0  0  0  0  0  0
    7.9516    0.0484   25.3746 H   0  0  0  0  0  0  0  0  0  0  0  0
    9.4310   -1.5144   25.7789 C   0  0  0  0  0  0  0  0  0  0  0  0
    9.5261   -2.1462   26.6686 H   0  0  0  0  0  0  0  0  0  0  0  0
   10.1224   -0.6737   25.8997 H   0  0  0  0  0  0  0  0  0  0  0  0
    9.7750   -2.3535   24.5296 C   0  0  0  0  0  0  0  0  0  0  0  0
    9.7414   -3.4191   24.7757 H   0  0  0  0  0  0  0  0  0  0  0  0
   10.7612   -2.1408   24.1071 H   0  0  0  0  0  0  0  0  0  0  0  0
    5.4541    0.7161   20.1280 C   0  0  0  0  0  0  0  0  0  0  0  0
    5.0111    0.7345   21.1273 H   0  0  0  0  0  0  0  0  0  0  0  0
    4.8071    1.3377   19.0590 C   0  0  0  0  0  0  0  0  0  0  0  0
    3.8542    1.8416   19.1888 H   0  0  0  0  0  0  0  0  0  0  0  0
  1  2  1  0
  2  3  2  0
  3  4  1  0
  4  5  1  0
  4  6  2  0
  6  7  1  0
  7  8  1  0
  7  9  1  0
  7 10  1  0
 10 11  1  0
 11 12  1  0
 11 13  2  0
 13 14  1  0
 14 15  1  0
 14 16  1  0
 16 17  1  0
 17 18  1  0
 18 19  1  0
 18 20  1  0
 20 21  1  0
 20 22  1  0
 20 23  1  0
 23 24  1  0
 23 25  1  0
 23 26  1  0
 26 27  1  0
 26 28  1  0
 26 29  1  0
 29 30  1  0
 29 31  1  0
  6 32  1  0
 32 33  1  0
 32 34  2  0
 34 35  1  0
 34  2  1  0
 16 10  2  0
 29 18  1  0
M  END
>  <cnnaffinity>  (1) 
-4.13725

>  <filename>  (1) 
c1cncc(Cc2cn[nH]c2OC2CCCC2)c1

$$$$
