
     RDKit          3D

 34 38  0  0  0  0  0  0  0  0999 V2000
    4.9542    1.7834   16.9715 H   0  0  0  0  0  0  0  0  0  0  0  0
    5.4082    1.2907   17.8302 C   0  0  0  0  0  0  0  0  0  0  0  0
    6.5740    0.6667   17.6031 N   0  0  0  0  0  0  0  0  0  0  0  0
    7.1646    0.0846   18.6510 C   0  0  0  0  0  0  0  0  0  0  0  0
    8.1109   -0.4075   18.4305 H   0  0  0  0  0  0  0  0  0  0  0  0
    6.6578    0.0873   19.9658 C   0  0  0  0  0  0  0  0  0  0  0  0
    7.4382   -0.5992   21.0144 C   0  0  0  0  0  0  0  0  0  0  0  0
    8.3158   -1.6132   20.8522 C   0  0  0  0  0  0  0  0  0  0  0  0
    8.7328   -1.9678   19.9287 H   0  0  0  0  0  0  0  0  0  0  0  0
    8.8879   -2.2863   22.3519 S   0  0  0  0  0  0  0  0  0  0  0  0
    8.0777   -1.0242   23.2149 C   0  0  0  0  0  0  0  0  0  0  0  0
    8.1010   -0.5116   24.4194 N   0  0  0  0  0  0  0  0  0  0  0  0
    7.3273    0.6030   24.2628 C   0  0  0  0  0  0  0  0  0  0  0  0
    7.0965    1.5341   25.3785 C   0  0  0  0  0  0  0  0  0  0  0  0
    7.7170    1.3372   26.6209 C   0  0  0  0  0  0  0  0  0  0  0  0
    8.3906    0.4886   26.7498 H   0  0  0  0  0  0  0  0  0  0  0  0
    7.4800    2.2193   27.6919 C   0  0  0  0  0  0  0  0  0  0  0  0
    7.9802    2.0284   28.6378 H   0  0  0  0  0  0  0  0  0  0  0  0
    6.6258    3.3171   27.5641 C   0  0  0  0  0  0  0  0  0  0  0  0
    6.4486    3.9925   28.3983 H   0  0  0  0  0  0  0  0  0  0  0  0
    6.0080    3.5157   26.3184 C   0  0  0  0  0  0  0  0  0  0  0  0
    6.2337    2.6554   25.2162 C   0  0  0  0  0  0  0  0  0  0  0  0
    5.4673    3.1826   24.1183 C   0  0  0  0  0  0  0  0  0  0  0  0
    5.4520    2.7766   23.1211 H   0  0  0  0  0  0  0  0  0  0  0  0
    4.8137    4.2885   24.5643 C   0  0  0  0  0  0  0  0  0  0  0  0
    4.1397    4.9538   24.0355 H   0  0  0  0  0  0  0  0  0  0  0  0
    5.1340    4.4908   25.8904 N   0  0  0  0  0  0  0  0  0  0  0  0
    4.8105    5.2537   26.4578 H   0  0  0  0  0  0  0  0  0  0  0  0
    6.8364    0.7860   23.0328 N   0  0  0  0  0  0  0  0  0  0  0  0
    7.3255   -0.2860   22.3724 N   0  0  0  0  0  0  0  0  0  0  0  0
    5.4125    0.7120   20.1728 C   0  0  0  0  0  0  0  0  0  0  0  0
    4.9527    0.7172   21.1636 H   0  0  0  0  0  0  0  0  0  0  0  0
    4.7868    1.3201   19.0828 C   0  0  0  0  0  0  0  0  0  0  0  0
    3.8349    1.8296   19.1880 H   0  0  0  0  0  0  0  0  0  0  0  0
  1  2  1  0
  2  3  2  0
  3  4  1  0
  4  5  1  0
  4  6  2  0
  6  7  1  0
  7  8  2  0
  8  9  1  0
  8 10  1  0
 10 11  1  0
 11 12  2  0
 12 13  1  0
 13 14  1  0
 14 15  2  0
 15 16  1  0
 15 17  1  0
 17 18  1  0
 17 19  2  0
 19 20  1  0
 19 21  1  0
 21 22  2  0
 22 23  1  0
 23 24  1  0
 23 25  2  0
 25 26  1  0
 25 27  1  0
 27 28  1  0
 13 29  2  0
 29 30  1  0
  6 31  1  0
 31 32  1  0
 31 33  2  0
 33 34  1  0
 33  2  1  0
 30  7  1  0
 30 11  1  0
 22 14  1  0
 27 21  1  0
M  END
>  <cnnaffinity>  (1) 
-5.35612

>  <filename>  (1) 
c1cncc(-c2csc3nc(-c4cccc5[nH]ccc45)nn23)c1

$$$$
