
     RDKit          3D

 33 36  0  0  0  0  0  0  0  0999 V2000
    4.8140    1.3029   19.1105 C   0  0  0  0  0  0  0  0  0  0  0  0
    5.4058    1.2885   17.8443 C   0  0  0  0  0  0  0  0  0  0  0  0
    6.5728    0.6707   17.5947 N   0  0  0  0  0  0  0  0  0  0  0  0
    7.1846    0.0477   18.6050 C   0  0  0  0  0  0  0  0  0  0  0  0
    6.6626   -0.0015   19.9086 C   0  0  0  0  0  0  0  0  0  0  0  0
    7.3605   -0.6831   20.9361 N   0  0  0  0  0  0  0  0  0  0  0  0
    7.2372   -0.4922   22.2746 C   0  0  0  0  0  0  0  0  0  0  0  0
    8.1003   -1.3552   22.9114 C   0  0  0  0  0  0  0  0  0  0  0  0
    8.3815   -1.4217   24.3489 C   0  0  0  0  0  0  0  0  0  0  0  0
    8.5643   -0.2353   25.0422 C   0  0  0  0  0  0  0  0  0  0  0  0
    8.8989   -0.2205   26.4168 C   0  0  0  0  0  0  0  0  0  0  0  0
    9.0396   -1.4087   27.0993 C   0  0  0  0  0  0  0  0  0  0  0  0
    8.8328   -2.6501   26.4362 C   0  0  0  0  0  0  0  0  0  0  0  0
    8.9424   -3.9147   27.0788 C   0  0  0  0  0  0  0  0  0  0  0  0
    8.6979   -5.0711   26.3952 C   0  0  0  0  0  0  0  0  0  0  0  0
    8.3315   -5.1240   25.0939 N   0  0  0  0  0  0  0  0  0  0  0  0
    8.2238   -3.9638   24.4738 C   0  0  0  0  0  0  0  0  0  0  0  0
    8.4782   -2.6735   25.0526 C   0  0  0  0  0  0  0  0  0  0  0  0
    7.9047   -4.0203   23.4405 H   0  0  0  0  0  0  0  0  0  0  0  0
    8.7878   -6.0161   26.9260 H   0  0  0  0  0  0  0  0  0  0  0  0
    9.2007   -4.0404   28.1107 H   0  0  0  0  0  0  0  0  0  0  0  0
    9.3047   -1.4098   28.1507 H   0  0  0  0  0  0  0  0  0  0  0  0
    9.0441    0.7295   26.9279 H   0  0  0  0  0  0  0  0  0  0  0  0
    8.4676    0.7057   24.5039 H   0  0  0  0  0  0  0  0  0  0  0  0
    8.7376   -2.0212   21.8328 C   0  0  0  0  0  0  0  0  0  0  0  0
    8.3012   -1.6118   20.6561 N   0  0  0  0  0  0  0  0  0  0  0  0
    9.5228   -2.7628   21.9073 H   0  0  0  0  0  0  0  0  0  0  0  0
    6.5696    0.2512   22.6911 H   0  0  0  0  0  0  0  0  0  0  0  0
    5.4442    0.6455   20.1678 C   0  0  0  0  0  0  0  0  0  0  0  0
    4.9936    0.6269   21.1615 H   0  0  0  0  0  0  0  0  0  0  0  0
    8.1291   -0.4342   18.3735 H   0  0  0  0  0  0  0  0  0  0  0  0
    4.9248    1.7782   16.9995 H   0  0  0  0  0  0  0  0  0  0  0  0
    3.8833    1.8356   19.2641 H   0  0  0  0  0  0  0  0  0  0  0  0
  1  2  2  0
  2  3  1  0
  3  4  2  0
  4  5  1  0
  5  6  1  0
  6  7  1  0
  7  8  2  0
  8  9  1  0
  9 10  2  0
 10 11  1  0
 11 12  2  0
 12 13  1  0
 13 14  2  0
 14 15  1  0
 15 16  2  0
 16 17  1  0
 17 18  2  0
 17 19  1  0
 15 20  1  0
 14 21  1  0
 12 22  1  0
 11 23  1  0
 10 24  1  0
  8 25  1  0
 25 26  2  0
 25 27  1  0
  7 28  1  0
  5 29  2  0
 29 30  1  0
  4 31  1  0
  2 32  1  0
  1 33  1  0
 29  1  1  0
 26  6  1  0
 18  9  1  0
 18 13  1  0
M  END
>  <cnnaffinity>  (1) 
-5.4788

>  <filename>  (1) 
c1cncc(-n2cc(-c3cccc4ccncc34)cn2)c1

$$$$
