
     RDKit          3D

 32 34  0  0  0  0  0  0  0  0999 V2000
    5.0887    1.8293   16.8345 H   0  0  0  0  0  0  0  0  0  0  0  0
    5.4451    1.3132   17.7246 C   0  0  0  0  0  0  0  0  0  0  0  0
    6.5901    0.6288   17.5926 N   0  0  0  0  0  0  0  0  0  0  0  0
    7.0712    0.0100   18.6756 C   0  0  0  0  0  0  0  0  0  0  0  0
    8.0089   -0.5285   18.5447 H   0  0  0  0  0  0  0  0  0  0  0  0
    6.4407    0.0327   19.9277 C   0  0  0  0  0  0  0  0  0  0  0  0
    7.1387   -0.6376   21.0337 C   0  0  0  0  0  0  0  0  0  0  0  0
    8.3930   -1.1644   20.8692 N   0  0  0  0  0  0  0  0  0  0  0  0
    8.7238   -1.5843   22.0767 C   0  0  0  0  0  0  0  0  0  0  0  0
   10.0181   -2.2324   22.5378 C   0  0  0  0  0  0  0  0  0  0  0  0
    9.7943   -2.8994   23.3774 H   0  0  0  0  0  0  0  0  0  0  0  0
   10.3368   -2.8757   21.7161 H   0  0  0  0  0  0  0  0  0  0  0  0
   11.1671   -1.4007   22.9097 N   0  0  0  0  0  0  0  0  0  0  0  0
   11.8095   -0.7014   21.7915 C   0  0  0  0  0  0  0  0  0  0  0  0
   11.6559   -1.2488   20.8547 H   0  0  0  0  0  0  0  0  0  0  0  0
   12.8933   -0.6761   21.9817 H   0  0  0  0  0  0  0  0  0  0  0  0
   11.2240    0.7282   21.7458 C   0  0  0  0  0  0  0  0  0  0  0  0
   12.0124    1.4583   21.5422 H   0  0  0  0  0  0  0  0  0  0  0  0
   10.4725    0.8192   20.9586 H   0  0  0  0  0  0  0  0  0  0  0  0
   10.5657    0.9197   23.1292 C   0  0  0  0  0  0  0  0  0  0  0  0
    9.4803    0.9698   23.0351 H   0  0  0  0  0  0  0  0  0  0  0  0
   10.8843    1.8271   23.6493 H   0  0  0  0  0  0  0  0  0  0  0  0
   10.9537   -0.3457   23.9077 C   0  0  0  0  0  0  0  0  0  0  0  0
   11.9022   -0.1755   24.4331 H   0  0  0  0  0  0  0  0  0  0  0  0
   10.2216   -0.6372   24.6684 H   0  0  0  0  0  0  0  0  0  0  0  0
    7.6869   -1.3682   22.9089 N   0  0  0  0  0  0  0  0  0  0  0  0
    7.6389   -1.5381   23.9038 H   0  0  0  0  0  0  0  0  0  0  0  0
    6.6726   -0.7518   22.2612 N   0  0  0  0  0  0  0  0  0  0  0  0
    5.2241    0.7317   20.0510 C   0  0  0  0  0  0  0  0  0  0  0  0
    4.6949    0.7788   21.0047 H   0  0  0  0  0  0  0  0  0  0  0  0
    4.7261    1.3842   18.9229 C   0  0  0  0  0  0  0  0  0  0  0  0
    3.8126    1.9676   18.9578 H   0  0  0  0  0  0  0  0  0  0  0  0
  1  2  1  0
  2  3  2  0
  3  4  1  0
  4  5  1  0
  4  6  2  0
  6  7  1  0
  7  8  1  0
  8  9  2  0
  9 10  1  0
 10 11  1  0
 10 12  1  0
 10 13  1  0
 13 14  1  0
 14 15  1  0
 14 16  1  0
 14 17  1  0
 17 18  1  0
 17 19  1  0
 17 20  1  0
 20 21  1  0
 20 22  1  0
 20 23  1  0
 23 24  1  0
 23 25  1  0
  9 26  1  0
 26 27  1  0
 26 28  1  0
  6 29  1  0
 29 30  1  0
 29 31  2  0
 31 32  1  0
 31  2  1  0
 28  7  2  0
 23 13  1  0
M  END
>  <cnnaffinity>  (1) 
-4.76631

>  <filename>  (1) 
c1cncc(-c2n[nH]c(CN3CCCC3)n2)c1

$$$$
