
     RDKit          3D

 42 45  0  0  0  0  0  0  0  0999 V2000
    4.9659    1.8328   16.9699 H   0  0  0  0  0  0  0  0  0  0  0  0
    5.4176    1.3131   17.8129 C   0  0  0  0  0  0  0  0  0  0  0  0
    6.5740    0.6779   17.5712 N   0  0  0  0  0  0  0  0  0  0  0  0
    7.1548    0.0564   18.6051 C   0  0  0  0  0  0  0  0  0  0  0  0
    8.0917   -0.4507   18.3777 H   0  0  0  0  0  0  0  0  0  0  0  0
    6.6254    0.0121   19.9053 C   0  0  0  0  0  0  0  0  0  0  0  0
    7.3563   -0.6891   20.9636 C   0  0  0  0  0  0  0  0  0  0  0  0
    6.7388   -1.6173   21.7671 N   0  0  0  0  0  0  0  0  0  0  0  0
    7.6999   -2.0877   22.5068 C   0  0  0  0  0  0  0  0  0  0  0  0
    8.9129   -1.5297   22.2540 N   0  0  0  0  0  0  0  0  0  0  0  0
    8.7117   -0.5698   21.2884 C   0  0  0  0  0  0  0  0  0  0  0  0
    9.7324    0.4487   20.9100 C   0  0  0  0  0  0  0  0  0  0  0  0
   10.7366    0.0136   21.0174 H   0  0  0  0  0  0  0  0  0  0  0  0
    9.5938    0.6478   19.8419 H   0  0  0  0  0  0  0  0  0  0  0  0
    9.6735    1.8147   21.6606 C   0  0  0  0  0  0  0  0  0  0  0  0
   10.4632    2.4376   21.2041 H   0  0  0  0  0  0  0  0  0  0  0  0
    8.2966    2.4787   21.4777 C   0  0  0  0  0  0  0  0  0  0  0  0
    8.0764    2.5051   20.4145 H   0  0  0  0  0  0  0  0  0  0  0  0
    7.5405    1.8113   21.9135 H   0  0  0  0  0  0  0  0  0  0  0  0
    8.1189    3.8490   22.1530 C   0  0  0  0  0  0  0  0  0  0  0  0
    7.0590    4.1313   22.0863 H   0  0  0  0  0  0  0  0  0  0  0  0
    8.6649    4.6369   21.6251 H   0  0  0  0  0  0  0  0  0  0  0  0
    8.5451    3.8016   23.6317 C   0  0  0  0  0  0  0  0  0  0  0  0
    7.7839    3.2384   24.1954 H   0  0  0  0  0  0  0  0  0  0  0  0
    8.5719    4.8140   24.0566 H   0  0  0  0  0  0  0  0  0  0  0  0
    9.9136    3.1210   23.8230 C   0  0  0  0  0  0  0  0  0  0  0  0
   10.6936    3.7538   23.3719 H   0  0  0  0  0  0  0  0  0  0  0  0
   10.1533    3.0403   24.8895 H   0  0  0  0  0  0  0  0  0  0  0  0
    9.9642    1.7286   23.1666 C   0  0  0  0  0  0  0  0  0  0  0  0
   10.9365    1.2559   23.3516 H   0  0  0  0  0  0  0  0  0  0  0  0
    9.2053    1.0791   23.6318 H   0  0  0  0  0  0  0  0  0  0  0  0
   10.0193   -1.8772   23.1314 C   0  0  0  0  0  0  0  0  0  0  0  0
   10.9356   -2.0397   22.5584 H   0  0  0  0  0  0  0  0  0  0  0  0
   10.2069   -1.0641   23.8419 H   0  0  0  0  0  0  0  0  0  0  0  0
    9.5945   -3.1726   23.8589 C   0  0  0  0  0  0  0  0  0  0  0  0
   10.0063   -4.0578   23.3719 H   0  0  0  0  0  0  0  0  0  0  0  0
    9.9106   -3.1780   24.9037 H   0  0  0  0  0  0  0  0  0  0  0  0
    7.7624   -3.2711   23.8020 S   0  0  0  0  0  0  0  0  0  0  0  0
    5.3929    0.6439   20.1274 C   0  0  0  0  0  0  0  0  0  0  0  0
    4.9301    0.6215   21.1179 H   0  0  0  0  0  0  0  0  0  0  0  0
    4.7907    1.3155   19.0632 C   0  0  0  0  0  0  0  0  0  0  0  0
    3.8555    1.8467   19.1880 H   0  0  0  0  0  0  0  0  0  0  0  0
  1  2  1  0
  2  3  2  0
  3  4  1  0
  4  5  1  0
  4  6  2  0
  6  7  1  0
  7  8  1  0
  8  9  2  0
  9 10  1  0
 10 11  1  0
 11 12  1  0
 12 13  1  0
 12 14  1  0
 12 15  1  0
 15 16  1  0
 15 17  1  0
 17 18  1  0
 17 19  1  0
 17 20  1  0
 20 21  1  0
 20 22  1  0
 20 23  1  0
 23 24  1  0
 23 25  1  0
 23 26  1  0
 26 27  1  0
 26 28  1  0
 26 29  1  0
 29 30  1  0
 29 31  1  0
 10 32  1  0
 32 33  1  0
 32 34  1  0
 32 35  1  0
 35 36  1  0
 35 37  1  0
 35 38  1  0
  6 39  1  0
 39 40  1  0
 39 41  2  0
 41 42  1  0
 41  2  1  0
 11  7  2  0
 29 15  1  0
 38  9  1  0
M  END
>  <cnnaffinity>  (1) 
-5.77886

>  <filename>  (1) 
c1cncc(-c2nc3n(c2CC2CCCCC2)CCS3)c1

$$$$
