
     RDKit          3D

 35 37  0  0  0  0  0  0  0  0999 V2000
    4.9457    1.7983   16.9886 H   0  0  0  0  0  0  0  0  0  0  0  0
    5.3984    1.2950   17.8440 C   0  0  0  0  0  0  0  0  0  0  0  0
    6.5556    0.6607   17.6035 N   0  0  0  0  0  0  0  0  0  0  0  0
    7.1533    0.0425   18.6250 C   0  0  0  0  0  0  0  0  0  0  0  0
    8.0881   -0.4581   18.3845 H   0  0  0  0  0  0  0  0  0  0  0  0
    6.6510    0.0337   19.9339 C   0  0  0  0  0  0  0  0  0  0  0  0
    7.4029   -0.7123   20.9597 C   0  0  0  0  0  0  0  0  0  0  0  0
    7.9002   -1.9117   20.7722 N   0  0  0  0  0  0  0  0  0  0  0  0
    8.4951   -2.2665   21.9565 C   0  0  0  0  0  0  0  0  0  0  0  0
    8.9426   -3.2481   22.0680 H   0  0  0  0  0  0  0  0  0  0  0  0
    8.3933   -1.2454   22.8579 C   0  0  0  0  0  0  0  0  0  0  0  0
    8.7341   -1.1323   23.8814 H   0  0  0  0  0  0  0  0  0  0  0  0
    7.6893   -0.2447   22.2096 N   0  0  0  0  0  0  0  0  0  0  0  0
    7.4066    1.0831   22.7012 C   0  0  0  0  0  0  0  0  0  0  0  0
    8.2737    1.3906   23.3161 H   0  0  0  0  0  0  0  0  0  0  0  0
    7.3457    1.7615   21.8396 H   0  0  0  0  0  0  0  0  0  0  0  0
    6.1456    1.1044   23.4067 N   0  0  0  0  0  0  0  0  0  0  0  0
    6.1421    0.3674   24.1102 H   0  0  0  0  0  0  0  0  0  0  0  0
    5.7533    2.4135   23.9389 C   0  0  0  0  0  0  0  0  0  0  0  0
    5.7357    3.1112   23.0862 H   0  0  0  0  0  0  0  0  0  0  0  0
    6.4650    2.8284   24.6770 H   0  0  0  0  0  0  0  0  0  0  0  0
    4.3626    2.4046   24.5676 C   0  0  0  0  0  0  0  0  0  0  0  0
    4.1594    2.2385   25.9507 C   0  0  0  0  0  0  0  0  0  0  0  0
    4.9938    2.1667   26.6421 H   0  0  0  0  0  0  0  0  0  0  0  0
    2.8567    2.1236   26.4483 C   0  0  0  0  0  0  0  0  0  0  0  0
    2.6728    1.9859   27.5153 H   0  0  0  0  0  0  0  0  0  0  0  0
    1.7629    2.1702   25.6765 N   0  0  0  0  0  0  0  0  0  0  0  0
    1.9479    2.3512   24.3630 C   0  0  0  0  0  0  0  0  0  0  0  0
    1.0467    2.3275   23.7478 H   0  0  0  0  0  0  0  0  0  0  0  0
    3.2072    2.5118   23.7772 C   0  0  0  0  0  0  0  0  0  0  0  0
    3.2774    2.6214   22.6966 H   0  0  0  0  0  0  0  0  0  0  0  0
    5.4327    0.6875   20.1704 C   0  0  0  0  0  0  0  0  0  0  0  0
    5.0084    0.6845   21.1748 H   0  0  0  0  0  0  0  0  0  0  0  0
    4.7930    1.3239   19.1050 C   0  0  0  0  0  0  0  0  0  0  0  0
    3.8533    1.8529   19.2220 H   0  0  0  0  0  0  0  0  0  0  0  0
  1  2  1  0
  2  3  2  0
  3  4  1  0
  4  5  1  0
  4  6  2  0
  6  7  1  0
  7  8  2  0
  8  9  1  0
  9 10  1  0
  9 11  2  0
 11 12  1  0
 11 13  1  0
 13 14  1  0
 14 15  1  0
 14 16  1  0
 14 17  1  0
 17 18  1  0
 17 19  1  0
 19 20  1  0
 19 21  1  0
 19 22  1  0
 22 23  2  0
 23 24  1  0
 23 25  1  0
 25 26  1  0
 25 27  2  0
 27 28  1  0
 28 29  1  0
 28 30  2  0
 30 31  1  0
  6 32  1  0
 32 33  1  0
 32 34  2  0
 34 35  1  0
 34  2  1  0
 13  7  1  0
 30 22  1  0
M  END
>  <cnnaffinity>  (1) 
-4.48621

>  <filename>  (1) 
c1cncc(-c2nccn2CNCc2ccncc2)c1

$$$$
