
     RDKit          3D

 42 46  0  0  0  0  0  0  0  0999 V2000
    4.7337    1.4163   18.8964 C   0  0  0  0  0  0  0  0  0  0  0  0
    5.3959    1.3685   17.6647 C   0  0  0  0  0  0  0  0  0  0  0  0
    6.5471    0.7100   17.4626 N   0  0  0  0  0  0  0  0  0  0  0  0
    7.0963    0.0885   18.5097 C   0  0  0  0  0  0  0  0  0  0  0  0
    6.5218    0.1101   19.7925 C   0  0  0  0  0  0  0  0  0  0  0  0
    7.2063   -0.5666   20.8818 C   0  0  0  0  0  0  0  0  0  0  0  0
    8.3228   -1.2351   20.6758 N   0  0  0  0  0  0  0  0  0  0  0  0
    8.6316   -1.6669   21.9141 N   0  0  0  0  0  0  0  0  0  0  0  0
    9.8386   -2.3830   22.1597 C   0  0  0  0  0  0  0  0  0  0  0  0
   11.1414   -1.6762   21.9467 C   0  0  0  0  0  0  0  0  0  0  0  0
   10.7094   -2.0641   23.3355 C   0  0  0  0  0  0  0  0  0  0  0  0
   10.4154   -1.2737   24.0271 H   0  0  0  0  0  0  0  0  0  0  0  0
   11.2023   -2.9095   23.8084 H   0  0  0  0  0  0  0  0  0  0  0  0
   11.9408   -2.1880   21.4198 H   0  0  0  0  0  0  0  0  0  0  0  0
   11.0880   -0.6121   21.7474 H   0  0  0  0  0  0  0  0  0  0  0  0
    9.7307   -3.4237   21.9069 H   0  0  0  0  0  0  0  0  0  0  0  0
    7.6745   -1.3001   22.7899 C   0  0  0  0  0  0  0  0  0  0  0  0
    7.7112   -1.7484   24.2342 C   0  0  0  0  0  0  0  0  0  0  0  0
    6.3857   -2.2360   24.7627 C   0  0  0  0  0  0  0  0  0  0  0  0
    5.6261   -1.4029   25.5478 C   0  0  0  0  0  0  0  0  0  0  0  0
    4.3659   -1.6699   25.9865 N   0  0  0  0  0  0  0  0  0  0  0  0
    3.8413   -2.8167   25.6165 C   0  0  0  0  0  0  0  0  0  0  0  0
    4.5097   -3.7972   24.8216 C   0  0  0  0  0  0  0  0  0  0  0  0
    3.8979   -5.0333   24.4545 C   0  0  0  0  0  0  0  0  0  0  0  0
    4.5727   -5.9480   23.6873 C   0  0  0  0  0  0  0  0  0  0  0  0
    5.8995   -5.6820   23.2606 C   0  0  0  0  0  0  0  0  0  0  0  0
    6.5214   -4.4985   23.6074 C   0  0  0  0  0  0  0  0  0  0  0  0
    5.8394   -3.5099   24.3885 C   0  0  0  0  0  0  0  0  0  0  0  0
    7.5417   -4.3140   23.2882 H   0  0  0  0  0  0  0  0  0  0  0  0
    6.4235   -6.4258   22.6653 H   0  0  0  0  0  0  0  0  0  0  0  0
    4.0965   -6.8873   23.4096 H   0  0  0  0  0  0  0  0  0  0  0  0
    2.8897   -5.2382   24.8037 H   0  0  0  0  0  0  0  0  0  0  0  0
    2.8262   -3.0192   25.9559 H   0  0  0  0  0  0  0  0  0  0  0  0
    6.0356   -0.4430   25.8621 H   0  0  0  0  0  0  0  0  0  0  0  0
    8.0676   -0.9003   24.8361 H   0  0  0  0  0  0  0  0  0  0  0  0
    8.4566   -2.5405   24.3568 H   0  0  0  0  0  0  0  0  0  0  0  0
    6.7708   -0.5652   22.1697 N   0  0  0  0  0  0  0  0  0  0  0  0
    5.3081    0.7776   19.9901 C   0  0  0  0  0  0  0  0  0  0  0  0
    4.8440    0.7930   20.9788 H   0  0  0  0  0  0  0  0  0  0  0  0
    8.0262   -0.4485   18.3094 H   0  0  0  0  0  0  0  0  0  0  0  0
    4.9775    1.8845   16.8043 H   0  0  0  0  0  0  0  0  0  0  0  0
    3.8022    1.9605   18.9942 H   0  0  0  0  0  0  0  0  0  0  0  0
  1  2  2  0
  2  3  1  0
  3  4  2  0
  4  5  1  0
  5  6  1  0
  6  7  2  0
  7  8  1  0
  8  9  1  0
  9 10  1  0
 10 11  1  0
 11 12  1  0
 11 13  1  0
 10 14  1  0
 10 15  1  0
  9 16  1  0
  8 17  1  0
 17 18  1  0
 18 19  1  0
 19 20  2  0
 20 21  1  0
 21 22  2  0
 22 23  1  0
 23 24  2  0
 24 25  1  0
 25 26  2  0
 26 27  1  0
 27 28  2  0
 27 29  1  0
 26 30  1  0
 25 31  1  0
 24 32  1  0
 22 33  1  0
 20 34  1  0
 18 35  1  0
 18 36  1  0
 17 37  2  0
  5 38  2  0
 38 39  1  0
  4 40  1  0
  2 41  1  0
  1 42  1  0
 38  1  1  0
 37  6  1  0
 11  9  1  0
 28 19  1  0
 28 23  1  0
M  END
>  <cnnaffinity>  (1) 
-6.07222

>  <filename>  (1) 
c1cncc(-c2nc(Cc3cncc4ccccc34)n(C3CC3)n2)c1

$$$$
