
     RDKit          3D

 39 43  0  0  0  0  0  0  0  0999 V2000
    4.9182    1.4345   19.1013 C   0  0  0  0  0  0  0  0  0  0  0  0
    5.6049    1.2153   17.9025 C   0  0  0  0  0  0  0  0  0  0  0  0
    6.7042    0.4468   17.8173 N   0  0  0  0  0  0  0  0  0  0  0  0
    7.1376   -0.1442   18.9339 C   0  0  0  0  0  0  0  0  0  0  0  0
    6.4940   -0.0120   20.1792 C   0  0  0  0  0  0  0  0  0  0  0  0
    7.0145   -0.7414   21.2818 N   0  0  0  0  0  0  0  0  0  0  0  0
    7.7004   -1.8940   21.0544 N   0  0  0  0  0  0  0  0  0  0  0  0
    7.8166   -2.4123   22.2591 C   0  0  0  0  0  0  0  0  0  0  0  0
    8.5881   -3.6504   22.4972 C   0  0  0  0  0  0  0  0  0  0  0  0
    8.0154   -5.0263   22.2475 C   0  0  0  0  0  0  0  0  0  0  0  0
    8.2709   -4.5605   23.6505 C   0  0  0  0  0  0  0  0  0  0  0  0
    7.4280   -4.2928   24.2870 H   0  0  0  0  0  0  0  0  0  0  0  0
    9.1269   -4.9726   24.1747 H   0  0  0  0  0  0  0  0  0  0  0  0
    6.9906   -5.0878   21.8912 H   0  0  0  0  0  0  0  0  0  0  0  0
    8.6811   -5.7708   21.8189 H   0  0  0  0  0  0  0  0  0  0  0  0
    9.6410   -3.4836   22.2838 H   0  0  0  0  0  0  0  0  0  0  0  0
    7.2784   -1.6743   23.2597 N   0  0  0  0  0  0  0  0  0  0  0  0
    6.8475   -0.5947   22.6358 C   0  0  0  0  0  0  0  0  0  0  0  0
    6.4557    0.6525   23.3113 C   0  0  0  0  0  0  0  0  0  0  0  0
    5.5677    0.5820   24.3710 C   0  0  0  0  0  0  0  0  0  0  0  0
    5.0717    1.7508   24.9872 C   0  0  0  0  0  0  0  0  0  0  0  0
    5.4702    2.9934   24.5414 C   0  0  0  0  0  0  0  0  0  0  0  0
    6.4354    3.1078   23.5009 C   0  0  0  0  0  0  0  0  0  0  0  0
    6.9083    4.3651   23.0340 C   0  0  0  0  0  0  0  0  0  0  0  0
    7.9484    4.4148   22.1409 C   0  0  0  0  0  0  0  0  0  0  0  0
    8.5895    3.3159   21.6716 N   0  0  0  0  0  0  0  0  0  0  0  0
    8.1407    2.1368   22.0582 C   0  0  0  0  0  0  0  0  0  0  0  0
    7.0105    1.9353   22.9287 C   0  0  0  0  0  0  0  0  0  0  0  0
    8.6932    1.2660   21.7099 H   0  0  0  0  0  0  0  0  0  0  0  0
    8.3301    5.3679   21.7808 H   0  0  0  0  0  0  0  0  0  0  0  0
    6.4653    5.2779   23.4122 H   0  0  0  0  0  0  0  0  0  0  0  0
    5.0735    3.9042   24.9776 H   0  0  0  0  0  0  0  0  0  0  0  0
    4.3824    1.6559   25.8215 H   0  0  0  0  0  0  0  0  0  0  0  0
    5.2294   -0.3914   24.7171 H   0  0  0  0  0  0  0  0  0  0  0  0
    5.3640    0.8128   20.2736 C   0  0  0  0  0  0  0  0  0  0  0  0
    4.8430    0.9615   21.2223 H   0  0  0  0  0  0  0  0  0  0  0  0
    8.0427   -0.7489   18.8823 H   0  0  0  0  0  0  0  0  0  0  0  0
    5.2674    1.6671   16.9703 H   0  0  0  0  0  0  0  0  0  0  0  0
    4.0502    2.0875   19.0982 H   0  0  0  0  0  0  0  0  0  0  0  0
  1  2  2  0
  2  3  1  0
  3  4  2  0
  4  5  1  0
  5  6  1  0
  6  7  1  0
  7  8  2  0
  8  9  1  0
  9 10  1  0
 10 11  1  0
 11 12  1  0
 11 13  1  0
 10 14  1  0
 10 15  1  0
  9 16  1  0
  8 17  1  0
 17 18  2  0
 18 19  1  0
 19 20  2  0
 20 21  1  0
 21 22  2  0
 22 23  1  0
 23 24  2  0
 24 25  1  0
 25 26  2  0
 26 27  1  0
 27 28  2  0
 27 29  1  0
 25 30  1  0
 24 31  1  0
 22 32  1  0
 21 33  1  0
 20 34  1  0
  5 35  2  0
 35 36  1  0
  4 37  1  0
  2 38  1  0
  1 39  1  0
 35  1  1  0
 18  6  1  0
 28 19  1  0
 11  9  1  0
 28 23  1  0
M  END
>  <cnnaffinity>  (1) 
-5.29059

>  <filename>  (1) 
c1cncc(-n2nc(C3CC3)nc2-c2cccc3ccncc23)c1

$$$$
