
     RDKit          3D

 35 38  0  0  0  0  0  0  0  0999 V2000
    4.9212    1.8280   16.9962 H   0  0  0  0  0  0  0  0  0  0  0  0
    5.3993    1.3044   17.8184 C   0  0  0  0  0  0  0  0  0  0  0  0
    6.5545    0.6815   17.5329 N   0  0  0  0  0  0  0  0  0  0  0  0
    7.1822    0.0627   18.5447 C   0  0  0  0  0  0  0  0  0  0  0  0
    8.1052   -0.4658   18.3059 H   0  0  0  0  0  0  0  0  0  0  0  0
    6.7053    0.0300   19.8784 C   0  0  0  0  0  0  0  0  0  0  0  0
    7.3990   -0.5718   20.9413 N   0  0  0  0  0  0  0  0  0  0  0  0
    6.9387   -1.3311   21.4340 H   0  0  0  0  0  0  0  0  0  0  0  0
    8.7827   -0.6177   21.0718 C   0  0  0  0  0  0  0  0  0  0  0  0
    9.7638    0.3280   20.7127 C   0  0  0  0  0  0  0  0  0  0  0  0
    9.6110    1.2327   20.1538 H   0  0  0  0  0  0  0  0  0  0  0  0
   10.9755   -0.0547   21.0990 N   0  0  0  0  0  0  0  0  0  0  0  0
   10.7875   -1.2269   21.7135 N   0  0  0  0  0  0  0  0  0  0  0  0
   11.6173   -1.7388   21.9969 H   0  0  0  0  0  0  0  0  0  0  0  0
    9.4788   -1.6187   21.7300 C   0  0  0  0  0  0  0  0  0  0  0  0
    8.9277   -2.8150   22.3695 C   0  0  0  0  0  0  0  0  0  0  0  0
    7.7294   -3.2007   21.9646 N   0  0  0  0  0  0  0  0  0  0  0  0
    7.1555   -4.2782   22.5575 C   0  0  0  0  0  0  0  0  0  0  0  0
    5.9266   -4.7426   22.0156 C   0  0  0  0  0  0  0  0  0  0  0  0
    5.5787   -4.2339   21.1273 H   0  0  0  0  0  0  0  0  0  0  0  0
    5.2262   -5.7517   22.6377 C   0  0  0  0  0  0  0  0  0  0  0  0
    4.2854   -6.0999   22.2166 H   0  0  0  0  0  0  0  0  0  0  0  0
    5.7194   -6.3069   23.8519 C   0  0  0  0  0  0  0  0  0  0  0  0
    5.1375   -7.0663   24.3714 H   0  0  0  0  0  0  0  0  0  0  0  0
    6.9293   -5.8941   24.3727 C   0  0  0  0  0  0  0  0  0  0  0  0
    7.3017   -6.2959   25.3125 H   0  0  0  0  0  0  0  0  0  0  0  0
    7.7208   -4.9260   23.6969 C   0  0  0  0  0  0  0  0  0  0  0  0
    9.0543   -4.5486   24.0607 C   0  0  0  0  0  0  0  0  0  0  0  0
    9.5863   -5.0988   24.8389 H   0  0  0  0  0  0  0  0  0  0  0  0
    9.6531   -3.5094   23.3950 C   0  0  0  0  0  0  0  0  0  0  0  0
   10.6536   -3.1689   23.6490 H   0  0  0  0  0  0  0  0  0  0  0  0
    5.4642    0.6279   20.1352 C   0  0  0  0  0  0  0  0  0  0  0  0
    5.0507    0.5856   21.1450 H   0  0  0  0  0  0  0  0  0  0  0  0
    4.8139    1.2924   19.0918 C   0  0  0  0  0  0  0  0  0  0  0  0
    3.8765    1.8126   19.2576 H   0  0  0  0  0  0  0  0  0  0  0  0
  1  2  1  0
  2  3  2  0
  3  4  1  0
  4  5  1  0
  4  6  2  0
  6  7  1  0
  7  8  1  0
  7  9  1  0
  9 10  1  0
 10 11  1  0
 10 12  2  0
 12 13  1  0
 13 14  1  0
 13 15  1  0
 15 16  1  0
 16 17  2  0
 17 18  1  0
 18 19  2  0
 19 20  1  0
 19 21  1  0
 21 22  1  0
 21 23  2  0
 23 24  1  0
 23 25  1  0
 25 26  1  0
 25 27  2  0
 27 28  1  0
 28 29  1  0
 28 30  2  0
 30 31  1  0
  6 32  1  0
 32 33  1  0
 32 34  2  0
 34 35  1  0
 34  2  1  0
 15  9  2  0
 30 16  1  0
 27 18  1  0
M  END
>  <cnnaffinity>  (1) 
-6.11982

>  <filename>  (1) 
c1cncc(Nc2cn[nH]c2-c2ccc3ccccc3n2)c1

$$$$
