
     RDKit          3D

 43 47  0  0  0  0  0  0  0  0999 V2000
    4.7868    1.3094   19.0112 C   0  0  0  0  0  0  0  0  0  0  0  0
    5.4030    1.2976   17.7574 C   0  0  0  0  0  0  0  0  0  0  0  0
    6.5438    0.6404   17.4977 N   0  0  0  0  0  0  0  0  0  0  0  0
    7.1264   -0.0027   18.5179 C   0  0  0  0  0  0  0  0  0  0  0  0
    6.6251   -0.0135   19.8314 C   0  0  0  0  0  0  0  0  0  0  0  0
    7.4110   -0.6080   20.9914 C   0  0  0  0  0  0  0  0  0  0  0  0
    8.2551    0.3996   21.7191 C   0  0  0  0  0  0  0  0  0  0  0  0
    7.7850    1.1320   22.7106 N   0  0  0  0  0  0  0  0  0  0  0  0
    8.8490    1.8910   23.0699 N   0  0  0  0  0  0  0  0  0  0  0  0
    8.7052    2.9104   24.1074 C   0  0  0  0  0  0  0  0  0  0  0  0
    8.1433    4.2138   23.5770 C   0  0  0  0  0  0  0  0  0  0  0  0
    7.1082    4.3691   22.7017 C   0  0  0  0  0  0  0  0  0  0  0  0
    6.8096    5.7379   22.4287 C   0  0  0  0  0  0  0  0  0  0  0  0
    7.6280    6.5939   23.1006 C   0  0  0  0  0  0  0  0  0  0  0  0
    8.7575    5.7467   24.0855 S   0  0  0  0  0  0  0  0  0  0  0  0
    7.6328    7.6762   23.0713 H   0  0  0  0  0  0  0  0  0  0  0  0
    6.0132    6.0591   21.7664 H   0  0  0  0  0  0  0  0  0  0  0  0
    6.5888    3.5246   22.2593 H   0  0  0  0  0  0  0  0  0  0  0  0
    8.0377    2.4947   24.8710 H   0  0  0  0  0  0  0  0  0  0  0  0
    9.6774    3.0670   24.5849 H   0  0  0  0  0  0  0  0  0  0  0  0
    9.9038    1.5791   22.2739 C   0  0  0  0  0  0  0  0  0  0  0  0
   11.2297    2.1511   22.4286 C   0  0  0  0  0  0  0  0  0  0  0  0
   11.4155    3.5286   22.4766 C   0  0  0  0  0  0  0  0  0  0  0  0
   12.6045    4.1327   22.6710 N   0  0  0  0  0  0  0  0  0  0  0  0
   13.6882    3.3741   22.8106 C   0  0  0  0  0  0  0  0  0  0  0  0
   13.6164    1.9653   22.7335 C   0  0  0  0  0  0  0  0  0  0  0  0
   12.3744    1.3345   22.5183 C   0  0  0  0  0  0  0  0  0  0  0  0
   12.6293   -0.0706   22.4292 C   0  0  0  0  0  0  0  0  0  0  0  0
   13.9732   -0.2501   22.5887 C   0  0  0  0  0  0  0  0  0  0  0  0
   14.5752    0.9766   22.7777 N   0  0  0  0  0  0  0  0  0  0  0  0
   15.5674    1.1459   22.6979 H   0  0  0  0  0  0  0  0  0  0  0  0
   14.5435   -1.1691   22.6386 H   0  0  0  0  0  0  0  0  0  0  0  0
   11.8562   -0.8011   22.2412 H   0  0  0  0  0  0  0  0  0  0  0  0
   14.6342    3.8917   22.9577 H   0  0  0  0  0  0  0  0  0  0  0  0
   10.5697    4.1967   22.3437 H   0  0  0  0  0  0  0  0  0  0  0  0
    9.5517    0.6394   21.4098 N   0  0  0  0  0  0  0  0  0  0  0  0
    8.0758   -1.4080   20.6472 H   0  0  0  0  0  0  0  0  0  0  0  0
    6.7256   -1.0360   21.7300 H   0  0  0  0  0  0  0  0  0  0  0  0
    5.4096    0.6400   20.0655 C   0  0  0  0  0  0  0  0  0  0  0  0
    4.9769    0.6318   21.0680 H   0  0  0  0  0  0  0  0  0  0  0  0
    8.0497   -0.5372   18.2860 H   0  0  0  0  0  0  0  0  0  0  0  0
    4.9626    1.8370   16.9221 H   0  0  0  0  0  0  0  0  0  0  0  0
    3.8557    1.8450   19.1528 H   0  0  0  0  0  0  0  0  0  0  0  0
  1  2  2  0
  2  3  1  0
  3  4  2  0
  4  5  1  0
  5  6  1  0
  6  7  1  0
  7  8  2  0
  8  9  1  0
  9 10  1  0
 10 11  1  0
 11 12  2  0
 12 13  1  0
 13 14  2  0
 14 15  1  0
 14 16  1  0
 13 17  1  0
 12 18  1  0
 10 19  1  0
 10 20  1  0
  9 21  1  0
 21 22  1  0
 22 23  2  0
 23 24  1  0
 24 25  2  0
 25 26  1  0
 26 27  2  0
 27 28  1  0
 28 29  2  0
 29 30  1  0
 30 31  1  0
 29 32  1  0
 28 33  1  0
 25 34  1  0
 23 35  1  0
 21 36  2  0
  6 37  1  0
  6 38  1  0
  5 39  2  0
 39 40  1  0
  4 41  1  0
  2 42  1  0
  1 43  1  0
 39  1  1  0
 36  7  1  0
 15 11  1  0
 27 22  1  0
 30 26  1  0
M  END
>  <cnnaffinity>  (1) 
-6.85514

>  <filename>  (1) 
c1cncc(Cc2nc(-c3cncc4[nH]ccc34)n(Cc3cccs3)n2)c1

$$$$
