
     RDKit          3D

 24 25  0  0  0  0  0  0  0  0999 V2000
    4.9886    1.9069   16.9458 H   0  0  0  0  0  0  0  0  0  0  0  0
    5.4301    1.3707   17.7851 C   0  0  0  0  0  0  0  0  0  0  0  0
    6.5781    0.7194   17.5277 N   0  0  0  0  0  0  0  0  0  0  0  0
    7.1440    0.0435   18.5351 C   0  0  0  0  0  0  0  0  0  0  0  0
    8.0952   -0.4502   18.3378 H   0  0  0  0  0  0  0  0  0  0  0  0
    6.5804   -0.0592   19.8221 C   0  0  0  0  0  0  0  0  0  0  0  0
    7.3720   -1.0893   21.0517 S   0  0  0  0  0  0  0  0  0  0  0  0
    6.3687   -2.9534   20.9828 S   0  0  0  0  0  0  0  0  0  0  0  0
    5.1565   -3.0711   22.1738 N   0  0  0  0  0  0  0  0  0  0  0  0
    4.5307   -2.2808   22.1169 H   0  0  0  0  0  0  0  0  0  0  0  0
    5.3853   -3.3654   23.5182 C   0  0  0  0  0  0  0  0  0  0  0  0
    6.5921   -3.7954   24.0622 C   0  0  0  0  0  0  0  0  0  0  0  0
    7.4475   -4.0397   23.4467 H   0  0  0  0  0  0  0  0  0  0  0  0
    6.6675   -3.8880   25.4452 C   0  0  0  0  0  0  0  0  0  0  0  0
    7.6089   -4.1660   25.9168 H   0  0  0  0  0  0  0  0  0  0  0  0
    5.6466   -3.6929   26.2826 N   0  0  0  0  0  0  0  0  0  0  0  0
    4.4693   -3.3759   25.7294 C   0  0  0  0  0  0  0  0  0  0  0  0
    3.6346   -3.2666   26.4213 H   0  0  0  0  0  0  0  0  0  0  0  0
    4.2881   -3.2035   24.3735 C   0  0  0  0  0  0  0  0  0  0  0  0
    3.3258   -2.9463   23.9637 H   0  0  0  0  0  0  0  0  0  0  0  0
    5.4131    0.6688   20.0922 C   0  0  0  0  0  0  0  0  0  0  0  0
    5.0033    0.6768   21.1030 H   0  0  0  0  0  0  0  0  0  0  0  0
    4.8213    1.3839   19.0448 C   0  0  0  0  0  0  0  0  0  0  0  0
    3.9129    1.9586   19.1909 H   0  0  0  0  0  0  0  0  0  0  0  0
  1  2  1  0
  2  3  2  0
  3  4  1  0
  4  5  1  0
  4  6  2  0
  6  7  1  0
  7  8  1  0
  8  9  1  0
  9 10  1  0
  9 11  1  0
 11 12  2  0
 12 13  1  0
 12 14  1  0
 14 15  1  0
 14 16  2  0
 16 17  1  0
 17 18  1  0
 17 19  2  0
 19 20  1  0
  6 21  1  0
 21 22  1  0
 21 23  2  0
 23 24  1  0
 23  2  1  0
 19 11  1  0
M  END
>  <cnnaffinity>  (1) 
-4.48773

>  <filename>  (1) 
c1cncc(SSNc2ccncc2)c1

$$$$
