
     RDKit          3D

 51 55  0  0  0  0  0  0  0  0999 V2000
    4.5974    1.2883   18.6714 C   0  0  0  0  0  0  0  0  0  0  0  0
    5.2405    1.2632   17.4315 C   0  0  0  0  0  0  0  0  0  0  0  0
    6.3266    0.5198   17.1684 N   0  0  0  0  0  0  0  0  0  0  0  0
    6.8398   -0.1861   18.1823 C   0  0  0  0  0  0  0  0  0  0  0  0
    6.3326   -0.1653   19.4916 C   0  0  0  0  0  0  0  0  0  0  0  0
    7.1168   -0.7359   20.6628 C   0  0  0  0  0  0  0  0  0  0  0  0
    8.0024    0.3035   21.2954 C   0  0  0  0  0  0  0  0  0  0  0  0
    7.6186    1.0380   22.3159 N   0  0  0  0  0  0  0  0  0  0  0  0
    8.6871    1.8387   22.5450 N   0  0  0  0  0  0  0  0  0  0  0  0
    8.5292    2.9872   23.4380 C   0  0  0  0  0  0  0  0  0  0  0  0
    8.3724    2.6335   24.9337 C   0  0  0  0  0  0  0  0  0  0  0  0
    8.6876    3.8706   25.8249 C   0  0  0  0  0  0  0  0  0  0  0  0
    7.4331    4.7045   26.1296 C   0  0  0  0  0  0  0  0  0  0  0  0
    6.3924    3.8749   26.9259 C   0  0  0  0  0  0  0  0  0  0  0  0
    6.5083    2.3496   26.6775 C   0  0  0  0  0  0  0  0  0  0  0  0
    6.9633    2.0383   25.2419 C   0  0  0  0  0  0  0  0  0  0  0  0
    6.2242    2.4572   24.5390 H   0  0  0  0  0  0  0  0  0  0  0  0
    6.9702    0.9600   25.0499 H   0  0  0  0  0  0  0  0  0  0  0  0
    5.5502    1.8641   26.8923 H   0  0  0  0  0  0  0  0  0  0  0  0
    7.2347    1.9184   27.3834 H   0  0  0  0  0  0  0  0  0  0  0  0
    6.5159    4.0621   28.0004 H   0  0  0  0  0  0  0  0  0  0  0  0
    5.3839    4.2210   26.6640 H   0  0  0  0  0  0  0  0  0  0  0  0
    7.6994    5.6039   26.6955 H   0  0  0  0  0  0  0  0  0  0  0  0
    6.9908    5.0495   25.1818 H   0  0  0  0  0  0  0  0  0  0  0  0
    9.4725    4.4884   25.3694 H   0  0  0  0  0  0  0  0  0  0  0  0
    9.1051    3.5142   26.7760 H   0  0  0  0  0  0  0  0  0  0  0  0
    9.1281    1.8737   25.1666 H   0  0  0  0  0  0  0  0  0  0  0  0
    7.6600    3.5606   23.0957 H   0  0  0  0  0  0  0  0  0  0  0  0
    9.4007    3.6230   23.2862 H   0  0  0  0  0  0  0  0  0  0  0  0
    9.6605    1.5511   21.6390 C   0  0  0  0  0  0  0  0  0  0  0  0
   11.0382    2.0827   21.7996 C   0  0  0  0  0  0  0  0  0  0  0  0
   11.7020    3.0335   21.0221 C   0  0  0  0  0  0  0  0  0  0  0  0
   12.9029    3.6566   21.4616 C   0  0  0  0  0  0  0  0  0  0  0  0
   13.5372    3.2809   22.6357 C   0  0  0  0  0  0  0  0  0  0  0  0
   12.9729    2.1942   23.3467 C   0  0  0  0  0  0  0  0  0  0  0  0
   11.7703    1.6318   22.9147 C   0  0  0  0  0  0  0  0  0  0  0  0
   11.5758    0.5951   23.7569 N   0  0  0  0  0  0  0  0  0  0  0  0
   12.5703    0.5128   24.6624 N   0  0  0  0  0  0  0  0  0  0  0  0
   13.4057    1.4595   24.4288 N   0  0  0  0  0  0  0  0  0  0  0  0
   10.8269   -0.0814   23.7325 H   0  0  0  0  0  0  0  0  0  0  0  0
   14.4456    3.7550   22.9934 H   0  0  0  0  0  0  0  0  0  0  0  0
   13.3909    4.3788   20.8110 H   0  0  0  0  0  0  0  0  0  0  0  0
   11.3263    3.2949   20.0404 H   0  0  0  0  0  0  0  0  0  0  0  0
    9.2445    0.5982   20.8189 N   0  0  0  0  0  0  0  0  0  0  0  0
    7.7572   -1.5590   20.3333 H   0  0  0  0  0  0  0  0  0  0  0  0
    6.4327   -1.1228   21.4257 H   0  0  0  0  0  0  0  0  0  0  0  0
    5.1551    0.5573   19.7217 C   0  0  0  0  0  0  0  0  0  0  0  0
    4.7166    0.5717   20.7218 H   0  0  0  0  0  0  0  0  0  0  0  0
    7.7249   -0.7846   17.9531 H   0  0  0  0  0  0  0  0  0  0  0  0
    4.8839    1.8754   16.6081 H   0  0  0  0  0  0  0  0  0  0  0  0
    3.7067    1.8943   18.8046 H   0  0  0  0  0  0  0  0  0  0  0  0
  1  2  2  0
  2  3  1  0
  3  4  2  0
  4  5  1  0
  5  6  1  0
  6  7  1  0
  7  8  2  0
  8  9  1  0
  9 10  1  0
 10 11  1  0
 11 12  1  0
 12 13  1  0
 13 14  1  0
 14 15  1  0
 15 16  1  0
 16 17  1  0
 16 18  1  0
 15 19  1  0
 15 20  1  0
 14 21  1  0
 14 22  1  0
 13 23  1  0
 13 24  1  0
 12 25  1  0
 12 26  1  0
 11 27  1  0
 10 28  1  0
 10 29  1  0
  9 30  1  0
 30 31  1  0
 31 32  2  0
 32 33  1  0
 33 34  2  0
 34 35  1  0
 35 36  2  0
 36 37  1  0
 37 38  1  0
 38 39  2  0
 37 40  1  0
 34 41  1  0
 33 42  1  0
 32 43  1  0
 30 44  2  0
  6 45  1  0
  6 46  1  0
  5 47  2  0
 47 48  1  0
  4 49  1  0
  2 50  1  0
  1 51  1  0
 47  1  1  0
 44  7  1  0
 16 11  1  0
 36 31  1  0
 39 35  1  0
M  END
>  <cnnaffinity>  (1) 
-6.39354

>  <filename>  (1) 
c1cncc(Cc2nc(-c3cccc4nn[nH]c34)n(CC3CCCCC3)n2)c1

$$$$
