
     RDKit          3D

 43 47  0  0  0  0  0  0  0  0999 V2000
    4.7236    1.4129   18.8987 C   0  0  0  0  0  0  0  0  0  0  0  0
    5.4104    1.3521   17.6805 C   0  0  0  0  0  0  0  0  0  0  0  0
    6.5438    0.6553   17.5049 N   0  0  0  0  0  0  0  0  0  0  0  0
    7.0507    0.0279   18.5690 C   0  0  0  0  0  0  0  0  0  0  0  0
    6.4558    0.0567   19.8421 C   0  0  0  0  0  0  0  0  0  0  0  0
    7.1462   -0.5962   20.9531 C   0  0  0  0  0  0  0  0  0  0  0  0
    8.3060   -1.1952   20.7672 N   0  0  0  0  0  0  0  0  0  0  0  0
    8.6421   -1.6034   22.0030 N   0  0  0  0  0  0  0  0  0  0  0  0
    9.8474   -2.3603   22.1855 C   0  0  0  0  0  0  0  0  0  0  0  0
   10.8054   -2.0578   23.2927 C   0  0  0  0  0  0  0  0  0  0  0  0
   11.1561   -1.6927   21.8815 C   0  0  0  0  0  0  0  0  0  0  0  0
   11.0902   -0.6389   21.6152 H   0  0  0  0  0  0  0  0  0  0  0  0
   11.9334   -2.2467   21.3655 H   0  0  0  0  0  0  0  0  0  0  0  0
   10.5938   -1.2416   23.9804 H   0  0  0  0  0  0  0  0  0  0  0  0
   11.2625   -2.9423   23.7342 H   0  0  0  0  0  0  0  0  0  0  0  0
    9.7141   -3.4015   21.9349 H   0  0  0  0  0  0  0  0  0  0  0  0
    7.6584   -1.2843   22.8787 C   0  0  0  0  0  0  0  0  0  0  0  0
    7.7093   -1.8076   24.3145 C   0  0  0  0  0  0  0  0  0  0  0  0
    7.6251   -0.8734   25.4208 N   0  0  0  0  0  0  0  0  0  0  0  0
    8.7547   -0.0034   25.7824 C   0  0  0  0  0  0  0  0  0  0  0  0
    8.1229    1.1968   26.5370 C   0  0  0  0  0  0  0  0  0  0  0  0
    6.6496    1.0385   26.2556 C   0  0  0  0  0  0  0  0  0  0  0  0
    5.5791    1.8990   26.4616 C   0  0  0  0  0  0  0  0  0  0  0  0
    4.2777    1.4669   26.1530 C   0  0  0  0  0  0  0  0  0  0  0  0
    4.0635    0.1738   25.6430 C   0  0  0  0  0  0  0  0  0  0  0  0
    5.1438   -0.6757   25.3900 C   0  0  0  0  0  0  0  0  0  0  0  0
    6.4307   -0.2114   25.6602 C   0  0  0  0  0  0  0  0  0  0  0  0
    5.0076   -1.6820   24.9931 H   0  0  0  0  0  0  0  0  0  0  0  0
    3.0542   -0.1692   25.4334 H   0  0  0  0  0  0  0  0  0  0  0  0
    3.4387    2.1401   26.2913 H   0  0  0  0  0  0  0  0  0  0  0  0
    5.7583    2.8996   26.8488 H   0  0  0  0  0  0  0  0  0  0  0  0
    8.3182    1.1584   27.6174 H   0  0  0  0  0  0  0  0  0  0  0  0
    8.5093    2.1538   26.1729 H   0  0  0  0  0  0  0  0  0  0  0  0
    9.2896    0.3435   24.8819 H   0  0  0  0  0  0  0  0  0  0  0  0
    9.4649   -0.5573   26.4102 H   0  0  0  0  0  0  0  0  0  0  0  0
    8.6130   -2.4041   24.4456 H   0  0  0  0  0  0  0  0  0  0  0  0
    6.8975   -2.5359   24.4324 H   0  0  0  0  0  0  0  0  0  0  0  0
    6.6941   -0.6415   22.2315 N   0  0  0  0  0  0  0  0  0  0  0  0
    5.2452    0.7412   20.0015 C   0  0  0  0  0  0  0  0  0  0  0  0
    4.7393    0.7380   20.9696 H   0  0  0  0  0  0  0  0  0  0  0  0
    7.9753   -0.5268   18.4061 H   0  0  0  0  0  0  0  0  0  0  0  0
    5.0334    1.8811   16.8068 H   0  0  0  0  0  0  0  0  0  0  0  0
    3.8102    1.9918   18.9716 H   0  0  0  0  0  0  0  0  0  0  0  0
  1  2  2  0
  2  3  1  0
  3  4  2  0
  4  5  1  0
  5  6  1  0
  6  7  2  0
  7  8  1  0
  8  9  1  0
  9 10  1  0
 10 11  1  0
 11 12  1  0
 11 13  1  0
 10 14  1  0
 10 15  1  0
  9 16  1  0
  8 17  1  0
 17 18  1  0
 18 19  1  0
 19 20  1  0
 20 21  1  0
 21 22  1  0
 22 23  2  0
 23 24  1  0
 24 25  2  0
 25 26  1  0
 26 27  2  0
 26 28  1  0
 25 29  1  0
 24 30  1  0
 23 31  1  0
 21 32  1  0
 21 33  1  0
 20 34  1  0
 20 35  1  0
 18 36  1  0
 18 37  1  0
 17 38  2  0
  5 39  2  0
 39 40  1  0
  4 41  1  0
  2 42  1  0
  1 43  1  0
 39  1  1  0
 38  6  1  0
 11  9  1  0
 27 19  1  0
 27 22  1  0
M  END
>  <cnnaffinity>  (1) 
-5.92695

>  <filename>  (1) 
c1cncc(-c2nc(CN3CCc4ccccc43)n(C3CC3)n2)c1

$$$$
