
     RDKit          3D

 32 34  0  0  0  0  0  0  0  0999 V2000
    4.9861    1.8447   17.0120 H   0  0  0  0  0  0  0  0  0  0  0  0
    5.4426    1.2834   17.8253 C   0  0  0  0  0  0  0  0  0  0  0  0
    6.5983    0.6650   17.5374 N   0  0  0  0  0  0  0  0  0  0  0  0
    7.1881   -0.0145   18.5376 C   0  0  0  0  0  0  0  0  0  0  0  0
    8.1295   -0.5026   18.2856 H   0  0  0  0  0  0  0  0  0  0  0  0
    6.6620   -0.1431   19.8438 C   0  0  0  0  0  0  0  0  0  0  0  0
    7.3490   -0.9187   20.9385 C   0  0  0  0  0  0  0  0  0  0  0  0
    6.7023   -2.0204   21.5411 C   0  0  0  0  0  0  0  0  0  0  0  0
    5.6820   -2.2763   21.2485 H   0  0  0  0  0  0  0  0  0  0  0  0
    7.2500   -2.8164   22.4664 N   0  0  0  0  0  0  0  0  0  0  0  0
    8.4966   -2.5207   22.8576 C   0  0  0  0  0  0  0  0  0  0  0  0
    8.9331   -3.1604   23.6217 H   0  0  0  0  0  0  0  0  0  0  0  0
    9.2181   -1.4377   22.3687 C   0  0  0  0  0  0  0  0  0  0  0  0
   10.2180   -1.2525   22.7510 H   0  0  0  0  0  0  0  0  0  0  0  0
    8.6322   -0.5684   21.4427 C   0  0  0  0  0  0  0  0  0  0  0  0
    9.2723    0.7656   21.0815 C   0  0  1  0  0  0  0  0  0  0  0  0
    9.5139    0.7322   20.0113 H   0  0  0  0  0  0  0  0  0  0  0  0
    8.3395    1.9877   21.3388 C   0  0  0  0  0  0  0  0  0  0  0  0
    7.5376    1.7262   22.0437 H   0  0  0  0  0  0  0  0  0  0  0  0
    7.8191    2.2837   20.4182 H   0  0  0  0  0  0  0  0  0  0  0  0
    9.2097    3.0190   21.8989 N   0  0  0  0  0  0  0  0  0  0  0  0
    8.9810    3.9507   21.5735 H   0  0  0  0  0  0  0  0  0  0  0  0
   10.5984    2.6627   21.6242 C   0  0  0  0  0  0  0  0  0  0  0  0
   10.9360    2.8678   20.5875 H   0  0  0  0  0  0  0  0  0  0  0  0
   11.2774    3.1975   22.2991 H   0  0  0  0  0  0  0  0  0  0  0  0
   10.5558    1.1654   21.8343 C   0  0  0  0  0  0  0  0  0  0  0  0
   11.4586    0.6601   21.4825 H   0  0  0  0  0  0  0  0  0  0  0  0
   10.4188    0.9579   22.9015 H   0  0  0  0  0  0  0  0  0  0  0  0
    5.4427    0.5007   20.1019 C   0  0  0  0  0  0  0  0  0  0  0  0
    5.0019    0.4455   21.1003 H   0  0  0  0  0  0  0  0  0  0  0  0
    4.8284    1.2339   19.0801 C   0  0  0  0  0  0  0  0  0  0  0  0
    3.9040    1.7768   19.2514 H   0  0  0  0  0  0  0  0  0  0  0  0
  1  2  1  0
  2  3  2  0
  3  4  1  0
  4  5  1  0
  4  6  2  0
  6  7  1  0
  7  8  2  0
  8  9  1  0
  8 10  1  0
 10 11  2  0
 11 12  1  0
 11 13  1  0
 13 14  1  0
 13 15  2  0
 15 16  1  0
 16 17  1  6
 16 18  1  0
 18 19  1  0
 18 20  1  0
 18 21  1  0
 21 22  1  0
 21 23  1  0
 23 24  1  0
 23 25  1  0
 23 26  1  0
 26 27  1  0
 26 28  1  0
  6 29  1  0
 29 30  1  0
 29 31  2  0
 31 32  1  0
 31  2  1  0
 15  7  1  0
 26 16  1  0
M  END
>  <cnnaffinity>  (1) 
-5.12967

>  <filename>  (1) 
c1cncc(-c2cnccc2[C@@H]2CCNC2)c1

$$$$
