
     RDKit          3D

 33 35  0  0  0  0  0  0  0  0999 V2000
    4.9272    1.7797   16.9941 H   0  0  0  0  0  0  0  0  0  0  0  0
    5.4000    1.2914   17.8425 C   0  0  0  0  0  0  0  0  0  0  0  0
    6.5624    0.6741   17.5872 N   0  0  0  0  0  0  0  0  0  0  0  0
    7.1595    0.0639   18.6127 C   0  0  0  0  0  0  0  0  0  0  0  0
    8.1035   -0.4147   18.3696 H   0  0  0  0  0  0  0  0  0  0  0  0
    6.6460    0.0123   19.9200 C   0  0  0  0  0  0  0  0  0  0  0  0
    7.4096   -0.7066   20.9252 C   0  0  0  0  0  0  0  0  0  0  0  0
    6.9114   -0.7626   22.1992 O   0  0  0  0  0  0  0  0  0  0  0  0
    7.7873   -1.4800   22.9491 C   0  0  0  0  0  0  0  0  0  0  0  0
    7.5059   -1.7024   24.3934 C   0  0  0  0  0  0  0  0  0  0  0  0
    8.3534   -2.2952   24.7593 H   0  0  0  0  0  0  0  0  0  0  0  0
    7.4707   -0.3918   25.2106 C   0  0  0  0  0  0  0  0  0  0  0  0
    6.7027    0.2718   24.7945 H   0  0  0  0  0  0  0  0  0  0  0  0
    8.4286    0.1347   25.1242 H   0  0  0  0  0  0  0  0  0  0  0  0
    7.1485   -0.6714   26.6842 C   0  0  0  0  0  0  0  0  0  0  0  0
    7.0697    0.2651   27.2472 H   0  0  0  0  0  0  0  0  0  0  0  0
    7.9701   -1.2374   27.1421 H   0  0  0  0  0  0  0  0  0  0  0  0
    5.9178   -1.4455   26.8733 N   0  0  0  0  0  0  0  0  0  0  0  0
    5.1675   -0.8945   26.4612 H   0  0  0  0  0  0  0  0  0  0  0  0
    5.9582   -2.7141   26.1388 C   0  0  0  0  0  0  0  0  0  0  0  0
    5.0102   -3.2423   26.2929 H   0  0  0  0  0  0  0  0  0  0  0  0
    6.7420   -3.3371   26.5844 H   0  0  0  0  0  0  0  0  0  0  0  0
    6.2356   -2.5410   24.6430 C   0  0  0  0  0  0  0  0  0  0  0  0
    6.3010   -3.5120   24.1384 H   0  0  0  0  0  0  0  0  0  0  0  0
    5.3848   -2.0252   24.2094 H   0  0  0  0  0  0  0  0  0  0  0  0
    8.8309   -1.8852   22.1836 C   0  0  0  0  0  0  0  0  0  0  0  0
    9.6660   -2.4674   22.5409 H   0  0  0  0  0  0  0  0  0  0  0  0
    8.5882   -1.3831   20.8686 C   0  0  0  0  0  0  0  0  0  0  0  0
    9.2110   -1.5051   19.9958 H   0  0  0  0  0  0  0  0  0  0  0  0
    5.4184    0.6607   20.1718 C   0  0  0  0  0  0  0  0  0  0  0  0
    4.9868    0.6432   21.1766 H   0  0  0  0  0  0  0  0  0  0  0  0
    4.7981    1.3136   19.1071 C   0  0  0  0  0  0  0  0  0  0  0  0
    3.8678    1.8476   19.2501 H   0  0  0  0  0  0  0  0  0  0  0  0
  1  2  1  0
  2  3  2  0
  3  4  1  0
  4  5  1  0
  4  6  2  0
  6  7  1  0
  7  8  1  0
  8  9  1  0
  9 10  1  0
 10 11  1  0
 10 12  1  0
 12 13  1  0
 12 14  1  0
 12 15  1  0
 15 16  1  0
 15 17  1  0
 15 18  1  0
 18 19  1  0
 18 20  1  0
 20 21  1  0
 20 22  1  0
 20 23  1  0
 23 24  1  0
 23 25  1  0
  9 26  2  0
 26 27  1  0
 26 28  1  0
 28 29  1  0
  6 30  1  0
 30 31  1  0
 30 32  2  0
 32 33  1  0
 32  2  1  0
 28  7  2  0
 23 10  1  0
M  END
>  <cnnaffinity>  (1) 
-4.38298

>  <filename>  (1) 
c1cncc(-c2ccc(C3CCNCC3)o2)c1

$$$$
