
     RDKit          3D

 43 47  0  0  0  0  0  0  0  0999 V2000
    4.7457    1.3304   18.9683 C   0  0  0  0  0  0  0  0  0  0  0  0
    5.3696    1.3119   17.7148 C   0  0  0  0  0  0  0  0  0  0  0  0
    6.4896    0.6193   17.4548 N   0  0  0  0  0  0  0  0  0  0  0  0
    7.0350   -0.0555   18.4736 C   0  0  0  0  0  0  0  0  0  0  0  0
    6.5053   -0.1027   19.7765 C   0  0  0  0  0  0  0  0  0  0  0  0
    7.2807   -0.7185   20.9308 C   0  0  0  0  0  0  0  0  0  0  0  0
    8.1958    0.2892   21.5466 C   0  0  0  0  0  0  0  0  0  0  0  0
    7.9542    0.8848   22.6893 N   0  0  0  0  0  0  0  0  0  0  0  0
    8.9947    1.7585   22.8033 N   0  0  0  0  0  0  0  0  0  0  0  0
    9.0246    2.6663   23.9065 C   0  0  0  0  0  0  0  0  0  0  0  0
    8.7701    2.2405   25.2147 C   0  0  0  0  0  0  0  0  0  0  0  0
    8.7914    3.1578   26.2911 C   0  0  0  0  0  0  0  0  0  0  0  0
    9.0429    4.5218   26.0952 C   0  0  0  0  0  0  0  0  0  0  0  0
    9.2845    4.9587   24.7799 C   0  0  0  0  0  0  0  0  0  0  0  0
    9.2654    4.0385   23.7138 C   0  0  0  0  0  0  0  0  0  0  0  0
    9.4495    4.8119   22.5889 N   0  0  0  0  0  0  0  0  0  0  0  0
    9.5719    6.1053   23.0090 C   0  0  0  0  0  0  0  0  0  0  0  0
    9.4971    6.2465   24.3000 N   0  0  0  0  0  0  0  0  0  0  0  0
    9.7084    6.9124   22.3034 H   0  0  0  0  0  0  0  0  0  0  0  0
    9.3419    4.5202   21.6335 H   0  0  0  0  0  0  0  0  0  0  0  0
    9.0080    5.2602   26.8946 H   0  0  0  0  0  0  0  0  0  0  0  0
    8.5816    2.7774   27.2895 H   0  0  0  0  0  0  0  0  0  0  0  0
    8.5226    1.1945   25.4033 H   0  0  0  0  0  0  0  0  0  0  0  0
    9.8443    1.5702   21.7443 C   0  0  0  0  0  0  0  0  0  0  0  0
   11.2768    2.0446   21.6603 C   0  0  0  0  0  0  0  0  0  0  0  0
   12.0466    1.5931   22.8870 C   0  0  0  0  0  0  0  0  0  0  0  0
   12.2433    2.3165   24.0147 C   0  0  0  0  0  0  0  0  0  0  0  0
   12.6310    1.5208   25.0335 O   0  0  0  0  0  0  0  0  0  0  0  0
   12.7149    0.2601   24.5545 C   0  0  0  0  0  0  0  0  0  0  0  0
   12.4032    0.2349   23.2317 C   0  0  0  0  0  0  0  0  0  0  0  0
   12.4311   -0.6300   22.5749 H   0  0  0  0  0  0  0  0  0  0  0  0
   12.9590   -0.4759   25.3049 H   0  0  0  0  0  0  0  0  0  0  0  0
   12.1338    3.3679   24.2460 H   0  0  0  0  0  0  0  0  0  0  0  0
   11.6859    1.6040   20.7469 H   0  0  0  0  0  0  0  0  0  0  0  0
   11.3007    3.1314   21.5581 H   0  0  0  0  0  0  0  0  0  0  0  0
    9.3435    0.6719   20.9264 N   0  0  0  0  0  0  0  0  0  0  0  0
    7.8945   -1.5555   20.5881 H   0  0  0  0  0  0  0  0  0  0  0  0
    6.6179   -1.0883   21.7182 H   0  0  0  0  0  0  0  0  0  0  0  0
    5.3278    0.6123   20.0185 C   0  0  0  0  0  0  0  0  0  0  0  0
    4.8896    0.6079   21.0206 H   0  0  0  0  0  0  0  0  0  0  0  0
    7.9652   -0.5804   18.2586 H   0  0  0  0  0  0  0  0  0  0  0  0
    4.9564    1.8737   16.8774 H   0  0  0  0  0  0  0  0  0  0  0  0
    3.8493    1.9259   19.1122 H   0  0  0  0  0  0  0  0  0  0  0  0
  1  2  2  0
  2  3  1  0
  3  4  2  0
  4  5  1  0
  5  6  1  0
  6  7  1  0
  7  8  2  0
  8  9  1  0
  9 10  1  0
 10 11  2  0
 11 12  1  0
 12 13  2  0
 13 14  1  0
 14 15  2  0
 15 16  1  0
 16 17  1  0
 17 18  2  0
 17 19  1  0
 16 20  1  0
 13 21  1  0
 12 22  1  0
 11 23  1  0
  9 24  1  0
 24 25  1  0
 25 26  1  0
 26 27  2  0
 27 28  1  0
 28 29  1  0
 29 30  2  0
 30 31  1  0
 29 32  1  0
 27 33  1  0
 25 34  1  0
 25 35  1  0
 24 36  2  0
  6 37  1  0
  6 38  1  0
  5 39  2  0
 39 40  1  0
  4 41  1  0
  2 42  1  0
  1 43  1  0
 39  1  1  0
 36  7  1  0
 15 10  1  0
 30 26  1  0
 18 14  1  0
M  END
>  <cnnaffinity>  (1) 
-5.97121

>  <filename>  (1) 
c1cncc(Cc2nc(Cc3ccoc3)n(-c3cccc4nc[nH]c34)n2)c1

$$$$
