
     RDKit          3D

 31 34  0  0  0  0  0  0  0  0999 V2000
    4.9227    1.8076   16.9845 H   0  0  0  0  0  0  0  0  0  0  0  0
    5.3842    1.2965   17.8279 C   0  0  0  0  0  0  0  0  0  0  0  0
    6.5408    0.6715   17.5635 N   0  0  0  0  0  0  0  0  0  0  0  0
    7.1434    0.0301   18.5674 C   0  0  0  0  0  0  0  0  0  0  0  0
    8.1120   -0.4179   18.3477 H   0  0  0  0  0  0  0  0  0  0  0  0
    6.6203   -0.0428   19.8714 C   0  0  0  0  0  0  0  0  0  0  0  0
    7.5921   -0.8361   21.1578 S   0  0  0  0  0  0  0  0  0  0  0  0
    8.5466    0.5818   21.6370 C   0  0  0  0  0  0  0  0  0  0  0  0
    9.6890    0.9211   21.0883 N   0  0  0  0  0  0  0  0  0  0  0  0
    9.9864    2.1452   21.5869 N   0  0  0  0  0  0  0  0  0  0  0  0
    9.0944    2.5572   22.3989 N   0  0  0  0  0  0  0  0  0  0  0  0
    8.1530    1.5767   22.4728 N   0  0  0  0  0  0  0  0  0  0  0  0
    7.0144    1.6479   23.2918 C   0  0  0  0  0  0  0  0  0  0  0  0
    6.2508    0.6318   23.7953 C   0  0  0  0  0  0  0  0  0  0  0  0
    6.4014   -0.4292   23.6365 H   0  0  0  0  0  0  0  0  0  0  0  0
    5.2075    1.2380   24.5597 C   0  0  0  0  0  0  0  0  0  0  0  0
    4.1334    0.7188   25.3120 C   0  0  0  0  0  0  0  0  0  0  0  0
    3.9960   -0.3586   25.3602 H   0  0  0  0  0  0  0  0  0  0  0  0
    3.2918    1.5987   25.9773 C   0  0  0  0  0  0  0  0  0  0  0  0
    2.4701    1.2052   26.5675 H   0  0  0  0  0  0  0  0  0  0  0  0
    3.5013    2.9961   25.9033 C   0  0  0  0  0  0  0  0  0  0  0  0
    2.8267    3.6572   26.4428 H   0  0  0  0  0  0  0  0  0  0  0  0
    4.5478    3.5389   25.1621 C   0  0  0  0  0  0  0  0  0  0  0  0
    4.7013    4.6130   25.1168 H   0  0  0  0  0  0  0  0  0  0  0  0
    5.3992    2.6477   24.4829 C   0  0  0  0  0  0  0  0  0  0  0  0
    6.5112    2.8629   23.6864 N   0  0  0  0  0  0  0  0  0  0  0  0
    6.9444    3.7454   23.4562 H   0  0  0  0  0  0  0  0  0  0  0  0
    5.4190    0.6220   20.1415 C   0  0  0  0  0  0  0  0  0  0  0  0
    5.0148    0.6363   21.1573 H   0  0  0  0  0  0  0  0  0  0  0  0
    4.7916    1.3048   19.0938 C   0  0  0  0  0  0  0  0  0  0  0  0
    3.8704    1.8531   19.2426 H   0  0  0  0  0  0  0  0  0  0  0  0
  1  2  1  0
  2  3  2  0
  3  4  1  0
  4  5  1  0
  4  6  2  0
  6  7  1  0
  7  8  1  0
  8  9  2  0
  9 10  1  0
 10 11  2  0
 11 12  1  0
 12 13  1  0
 13 14  2  0
 14 15  1  0
 14 16  1  0
 16 17  2  0
 17 18  1  0
 17 19  1  0
 19 20  1  0
 19 21  2  0
 21 22  1  0
 21 23  1  0
 23 24  1  0
 23 25  2  0
 25 26  1  0
 26 27  1  0
  6 28  1  0
 28 29  1  0
 28 30  2  0
 30 31  1  0
 30  2  1  0
 12  8  1  0
 26 13  1  0
 25 16  1  0
M  END
>  <cnnaffinity>  (1) 
-4.8806

>  <filename>  (1) 
c1cncc(Sc2nnnn2-c2cc3ccccc3[nH]2)c1

$$$$
