
     RDKit          3D

 40 43  0  0  0  0  0  0  0  0999 V2000
    4.9310    1.7973   16.9811 H   0  0  0  0  0  0  0  0  0  0  0  0
    5.4073    1.2993   17.8238 C   0  0  0  0  0  0  0  0  0  0  0  0
    6.5653    0.6770   17.5664 N   0  0  0  0  0  0  0  0  0  0  0  0
    7.1809    0.0654   18.5937 C   0  0  0  0  0  0  0  0  0  0  0  0
    8.1199   -0.4189   18.3259 H   0  0  0  0  0  0  0  0  0  0  0  0
    6.6928    0.0221   19.9129 C   0  0  0  0  0  0  0  0  0  0  0  0
    7.3636   -0.7695   21.0671 C   0  0  0  0  0  0  0  0  0  0  0  0
    6.5080   -2.0322   21.3337 C   0  0  0  0  0  0  0  0  0  0  0  0
    6.2505   -2.9333   20.2514 C   0  0  0  0  0  0  0  0  0  0  0  0
    6.5370   -2.6344   19.2447 H   0  0  0  0  0  0  0  0  0  0  0  0
    5.5606   -4.1176   20.4179 C   0  0  0  0  0  0  0  0  0  0  0  0
    5.4135   -4.7997   19.5879 H   0  0  0  0  0  0  0  0  0  0  0  0
    4.9550   -4.3494   21.6806 C   0  0  0  0  0  0  0  0  0  0  0  0
    5.1386   -3.4493   22.7493 C   0  0  0  0  0  0  0  0  0  0  0  0
    4.2391   -3.9128   23.7641 C   0  0  0  0  0  0  0  0  0  0  0  0
    4.0216   -3.4895   24.7397 H   0  0  0  0  0  0  0  0  0  0  0  0
    3.5866   -4.9868   23.3655 N   0  0  0  0  0  0  0  0  0  0  0  0
    4.0352   -5.2634   22.1202 N   0  0  0  0  0  0  0  0  0  0  0  0
    3.6546   -6.0587   21.6316 H   0  0  0  0  0  0  0  0  0  0  0  0
    6.0009   -2.3345   22.5873 C   0  0  0  0  0  0  0  0  0  0  0  0
    6.1854   -1.6626   23.4188 H   0  0  0  0  0  0  0  0  0  0  0  0
    8.8041   -1.2706   20.7602 C   0  0  0  0  0  0  0  0  0  0  0  0
    8.7912   -1.8631   19.8488 H   0  0  0  0  0  0  0  0  0  0  0  0
    9.0883   -1.9529   21.5745 H   0  0  0  0  0  0  0  0  0  0  0  0
    9.8527   -0.1704   20.6233 C   0  0  0  0  0  0  0  0  0  0  0  0
    9.6111    0.4154   19.7262 H   0  0  0  0  0  0  0  0  0  0  0  0
   10.8338   -0.6328   20.4699 H   0  0  0  0  0  0  0  0  0  0  0  0
    9.8975    0.7629   21.8334 C   0  0  0  0  0  0  0  0  0  0  0  0
   10.2616    0.2009   22.7088 H   0  0  0  0  0  0  0  0  0  0  0  0
   10.6193    1.5743   21.6615 H   0  0  0  0  0  0  0  0  0  0  0  0
    8.4936    1.3091   22.1295 C   0  0  0  0  0  0  0  0  0  0  0  0
    8.5160    1.9513   23.0194 H   0  0  0  0  0  0  0  0  0  0  0  0
    8.1496    1.9373   21.2924 H   0  0  0  0  0  0  0  0  0  0  0  0
    7.5019    0.1512   22.3273 C   0  0  0  0  0  0  0  0  0  0  0  0
    6.5176    0.5344   22.6212 H   0  0  0  0  0  0  0  0  0  0  0  0
    7.8645   -0.4692   23.1603 H   0  0  0  0  0  0  0  0  0  0  0  0
    5.4618    0.6650   20.1412 C   0  0  0  0  0  0  0  0  0  0  0  0
    4.9939    0.6354   21.1266 H   0  0  0  0  0  0  0  0  0  0  0  0
    4.8149    1.3212   19.0912 C   0  0  0  0  0  0  0  0  0  0  0  0
    3.8731    1.8449   19.2412 H   0  0  0  0  0  0  0  0  0  0  0  0
  1  2  1  0
  2  3  2  0
  3  4  1  0
  4  5  1  0
  4  6  2  0
  6  7  1  0
  7  8  1  0
  8  9  2  0
  9 10  1  0
  9 11  1  0
 11 12  1  0
 11 13  2  0
 13 14  1  0
 14 15  1  0
 15 16  1  0
 15 17  2  0
 17 18  1  0
 18 19  1  0
 14 20  2  0
 20 21  1  0
  7 22  1  0
 22 23  1  0
 22 24  1  0
 22 25  1  0
 25 26  1  0
 25 27  1  0
 25 28  1  0
 28 29  1  0
 28 30  1  0
 28 31  1  0
 31 32  1  0
 31 33  1  0
 31 34  1  0
 34 35  1  0
 34 36  1  0
  6 37  1  0
 37 38  1  0
 37 39  2  0
 39 40  1  0
 39  2  1  0
 34  7  1  0
 20  8  1  0
 18 13  1  0
M  END
>  <cnnaffinity>  (1) 
-5.31928

>  <filename>  (1) 
c1cncc(C2(c3ccc4[nH]ncc4c3)CCCCC2)c1

$$$$
