
     RDKit          3D

 25 27  0  0  0  0  0  0  0  0999 V2000
    4.9253    1.8318   16.9617 H   0  0  0  0  0  0  0  0  0  0  0  0
    5.3905    1.3348   17.8124 C   0  0  0  0  0  0  0  0  0  0  0  0
    6.5587    0.7187   17.5755 N   0  0  0  0  0  0  0  0  0  0  0  0
    7.1418    0.0972   18.6071 C   0  0  0  0  0  0  0  0  0  0  0  0
    8.0945   -0.3832   18.3914 H   0  0  0  0  0  0  0  0  0  0  0  0
    6.6123    0.0355   19.9194 C   0  0  0  0  0  0  0  0  0  0  0  0
    7.2858   -0.7266   21.0062 C   0  0  0  0  0  0  0  0  0  0  0  0
    7.7054   -2.0270   21.1109 C   0  0  0  0  0  0  0  0  0  0  0  0
    7.5953   -2.8236   20.3961 H   0  0  0  0  0  0  0  0  0  0  0  0
    8.2387   -2.3001   22.3466 N   0  0  0  0  0  0  0  0  0  0  0  0
    8.1258   -1.1957   23.0297 C   0  0  0  0  0  0  0  0  0  0  0  0
    8.4112   -1.0440   24.0704 H   0  0  0  0  0  0  0  0  0  0  0  0
    7.5576   -0.2010   22.2810 N   0  0  0  0  0  0  0  0  0  0  0  0
    7.2851    1.0358   22.8477 N   0  0  0  0  0  0  0  0  0  0  0  0
    6.8936    1.1325   24.1283 N   0  0  0  0  0  0  0  0  0  0  0  0
    6.7463    2.4353   24.3252 C   0  0  0  0  0  0  0  0  0  0  0  0
    6.4151    2.8089   25.2857 H   0  0  0  0  0  0  0  0  0  0  0  0
    7.0709    3.1793   23.1723 C   0  0  0  0  0  0  0  0  0  0  0  0
    7.0409    4.2485   23.0435 H   0  0  0  0  0  0  0  0  0  0  0  0
    7.4309    2.2370   22.2461 C   0  0  0  0  0  0  0  0  0  0  0  0
    7.7275    2.2576   21.2075 H   0  0  0  0  0  0  0  0  0  0  0  0
    5.3974    0.7098   20.1462 C   0  0  0  0  0  0  0  0  0  0  0  0
    4.9730    0.7363   21.1545 H   0  0  0  0  0  0  0  0  0  0  0  0
    4.7779    1.3497   19.0717 C   0  0  0  0  0  0  0  0  0  0  0  0
    3.8312    1.8589   19.1883 H   0  0  0  0  0  0  0  0  0  0  0  0
  1  2  1  0
  2  3  2  0
  3  4  1  0
  4  5  1  0
  4  6  2  0
  6  7  1  0
  7  8  2  0
  8  9  1  0
  8 10  1  0
 10 11  2  0
 11 12  1  0
 11 13  1  0
 13 14  1  0
 14 15  1  0
 15 16  2  0
 16 17  1  0
 16 18  1  0
 18 19  1  0
 18 20  2  0
 20 21  1  0
  6 22  1  0
 22 23  1  0
 22 24  2  0
 24 25  1  0
 24  2  1  0
 13  7  1  0
 20 14  1  0
M  END
>  <cnnaffinity>  (1) 
-4.58614

>  <filename>  (1) 
c1cncc(-c2cncn2-n2cccn2)c1

$$$$
