
     RDKit          3D

 48 54  0  0  0  0  0  0  0  0999 V2000
    4.8551    1.4773   18.5074 C   0  0  0  0  0  0  0  0  0  0  0  0
    5.3918    1.2621   17.2355 C   0  0  0  0  0  0  0  0  0  0  0  0
    6.4576    0.4851   17.0042 N   0  0  0  0  0  0  0  0  0  0  0  0
    7.0349   -0.0973   18.0615 C   0  0  0  0  0  0  0  0  0  0  0  0
    6.5927    0.0589   19.3858 C   0  0  0  0  0  0  0  0  0  0  0  0
    7.3308   -0.5498   20.5710 C   0  0  0  0  0  0  0  0  0  0  0  0
    8.1975    0.4294   21.3174 C   0  0  0  0  0  0  0  0  0  0  0  0
    7.8087    1.0240   22.4193 N   0  0  0  0  0  0  0  0  0  0  0  0
    8.8952    1.7945   22.7656 N   0  0  0  0  0  0  0  0  0  0  0  0
    8.8366    2.7546   23.7866 C   0  0  0  0  0  0  0  0  0  0  0  0
    8.4224    2.5976   25.0123 N   0  0  0  0  0  0  0  0  0  0  0  0
    8.4998    3.8698   25.5689 C   0  0  0  0  0  0  0  0  0  0  0  0
    8.0876    4.3303   26.8347 C   0  0  0  0  0  0  0  0  0  0  0  0
    8.2452    5.6834   27.1391 C   0  0  0  0  0  0  0  0  0  0  0  0
    8.8278    6.5736   26.2037 C   0  0  0  0  0  0  0  0  0  0  0  0
    9.2415    6.1292   24.9444 C   0  0  0  0  0  0  0  0  0  0  0  0
    9.0336    4.7849   24.6349 C   0  0  0  0  0  0  0  0  0  0  0  0
    9.2242    4.0323   23.4945 N   0  0  0  0  0  0  0  0  0  0  0  0
    9.5169    4.3440   22.5848 H   0  0  0  0  0  0  0  0  0  0  0  0
    9.7046    6.8033   24.2290 H   0  0  0  0  0  0  0  0  0  0  0  0
    8.9498    7.6214   26.4670 H   0  0  0  0  0  0  0  0  0  0  0  0
    7.9111    6.0586   28.1073 H   0  0  0  0  0  0  0  0  0  0  0  0
    7.6340    3.6223   27.5235 H   0  0  0  0  0  0  0  0  0  0  0  0
    9.8873    1.5869   21.8431 C   0  0  0  0  0  0  0  0  0  0  0  0
   11.3025    2.0158   21.8441 C   0  0  0  0  0  0  0  0  0  0  0  0
   12.0710    3.1661   22.5224 C   0  0  0  0  0  0  0  0  0  0  0  0
   12.0093    4.6083   22.8766 C   0  0  0  0  0  0  0  0  0  0  0  0
   13.2137    4.0487   22.1267 C   0  0  0  0  0  0  0  0  0  0  0  0
   14.1592    3.9131   22.6624 H   0  0  0  0  0  0  0  0  0  0  0  0
   13.3051    4.3193   21.0746 H   0  0  0  0  0  0  0  0  0  0  0  0
   12.0731    4.8110   23.9478 H   0  0  0  0  0  0  0  0  0  0  0  0
   11.3431    5.2643   22.3133 H   0  0  0  0  0  0  0  0  0  0  0  0
   12.1366    1.8260   23.1187 C   0  0  0  0  0  0  0  0  0  0  0  0
   13.2480    0.9966   23.6607 C   0  0  0  0  0  0  0  0  0  0  0  0
   11.9148    1.1303   24.4082 C   0  0  0  0  0  0  0  0  0  0  0  0
   11.8538    1.7715   25.2858 H   0  0  0  0  0  0  0  0  0  0  0  0
   11.2400    0.2741   24.3703 H   0  0  0  0  0  0  0  0  0  0  0  0
   13.5039    0.0410   23.2137 H   0  0  0  0  0  0  0  0  0  0  0  0
   14.0857    1.5957   24.0037 H   0  0  0  0  0  0  0  0  0  0  0  0
   11.7611    1.6823   20.9115 H   0  0  0  0  0  0  0  0  0  0  0  0
    9.4548    0.7534   20.9189 N   0  0  0  0  0  0  0  0  0  0  0  0
    7.9828   -1.3699   20.2498 H   0  0  0  0  0  0  0  0  0  0  0  0
    6.6078   -0.9605   21.2866 H   0  0  0  0  0  0  0  0  0  0  0  0
    5.4723    0.8723   19.6030 C   0  0  0  0  0  0  0  0  0  0  0  0
    5.1005    1.0314   20.6178 H   0  0  0  0  0  0  0  0  0  0  0  0
    7.9048   -0.7230   17.8537 H   0  0  0  0  0  0  0  0  0  0  0  0
    4.9444    1.7240   16.3603 H   0  0  0  0  0  0  0  0  0  0  0  0
    3.9874    2.1184   18.6212 H   0  0  0  0  0  0  0  0  0  0  0  0
  1  2  2  0
  2  3  1  0
  3  4  2  0
  4  5  1  0
  5  6  1  0
  6  7  1  0
  7  8  2  0
  8  9  1  0
  9 10  1  0
 10 11  2  0
 11 12  1  0
 12 13  2  0
 13 14  1  0
 14 15  2  0
 15 16  1  0
 16 17  2  0
 17 18  1  0
 18 19  1  0
 16 20  1  0
 15 21  1  0
 14 22  1  0
 13 23  1  0
  9 24  1  0
 24 25  1  0
 25 26  1  0
 26 27  1  0
 27 28  1  0
 28 29  1  0
 28 30  1  0
 27 31  1  0
 27 32  1  0
 26 33  1  0
 33 34  1  0
 34 35  1  0
 35 36  1  0
 35 37  1  0
 34 38  1  0
 34 39  1  0
 25 40  1  0
 24 41  2  0
  6 42  1  0
  6 43  1  0
  5 44  2  0
 44 45  1  0
  4 46  1  0
  2 47  1  0
  1 48  1  0
 44  1  1  0
 41  7  1  0
 18 10  1  0
 33 25  1  0
 17 12  1  0
 28 26  1  0
 35 33  1  0
M  END
>  <cnnaffinity>  (1) 
-5.88841

>  <filename>  (1) 
c1cncc(Cc2nc(C3C4(CC4)C34CC4)n(-c3nc4ccccc4[nH]3)n2)c1

$$$$
