
     RDKit          3D

 32 34  0  0  0  0  0  0  0  0999 V2000
    4.9339    1.7770   17.0000 H   0  0  0  0  0  0  0  0  0  0  0  0
    5.4083    1.2883   17.8477 C   0  0  0  0  0  0  0  0  0  0  0  0
    6.5722    0.6701   17.6026 N   0  0  0  0  0  0  0  0  0  0  0  0
    7.1761    0.0576   18.6254 C   0  0  0  0  0  0  0  0  0  0  0  0
    8.1147   -0.4418   18.3912 H   0  0  0  0  0  0  0  0  0  0  0  0
    6.6557    0.0393   19.9178 C   0  0  0  0  0  0  0  0  0  0  0  0
    7.4062   -0.7126   20.9398 C   0  0  0  0  0  0  0  0  0  0  0  0
    7.6405   -1.9631   20.8283 N   0  0  0  0  0  0  0  0  0  0  0  0
    8.3381   -2.3854   22.0487 C   0  0  0  0  0  0  0  0  0  0  0  0
    9.2931   -2.8486   21.7783 H   0  0  0  0  0  0  0  0  0  0  0  0
    7.7429   -3.1419   22.5774 H   0  0  0  0  0  0  0  0  0  0  0  0
    8.5482   -1.1173   22.9036 C   0  0  0  0  0  0  0  0  0  0  0  0
    8.0990   -1.1958   23.9104 H   0  0  0  0  0  0  0  0  0  0  0  0
    9.6130   -0.8698   23.0495 H   0  0  0  0  0  0  0  0  0  0  0  0
    7.8993   -0.1084   22.0774 N   0  0  0  0  0  0  0  0  0  0  0  0
    8.0786    1.3143   22.2990 C   0  0  0  0  0  0  0  0  0  0  0  0
    8.8533    1.4487   23.0662 H   0  0  0  0  0  0  0  0  0  0  0  0
    8.4472    1.7946   21.3846 H   0  0  0  0  0  0  0  0  0  0  0  0
    6.8309    2.0428   22.7742 C   0  0  0  0  0  0  0  0  0  0  0  0
    6.1335    1.6250   23.9121 C   0  0  0  0  0  0  0  0  0  0  0  0
    6.4790    0.7750   24.4885 H   0  0  0  0  0  0  0  0  0  0  0  0
    4.9766    2.2967   24.2951 C   0  0  0  0  0  0  0  0  0  0  0  0
    4.4286    1.9701   25.1745 H   0  0  0  0  0  0  0  0  0  0  0  0
    4.4682    3.3452   23.6377 N   0  0  0  0  0  0  0  0  0  0  0  0
    5.1480    3.7616   22.5605 C   0  0  0  0  0  0  0  0  0  0  0  0
    4.7330    4.6159   22.0301 H   0  0  0  0  0  0  0  0  0  0  0  0
    6.3247    3.1658   22.1109 C   0  0  0  0  0  0  0  0  0  0  0  0
    6.8002    3.5428   21.2161 H   0  0  0  0  0  0  0  0  0  0  0  0
    5.4245    0.6562   20.1665 C   0  0  0  0  0  0  0  0  0  0  0  0
    4.9912    0.6407   21.1706 H   0  0  0  0  0  0  0  0  0  0  0  0
    4.8016    1.3075   19.1076 C   0  0  0  0  0  0  0  0  0  0  0  0
    3.8726    1.8426   19.2509 H   0  0  0  0  0  0  0  0  0  0  0  0
  1  2  1  0
  2  3  2  0
  3  4  1  0
  4  5  1  0
  4  6  2  0
  6  7  1  0
  7  8  2  0
  8  9  1  0
  9 10  1  0
  9 11  1  0
  9 12  1  0
 12 13  1  0
 12 14  1  0
 12 15  1  0
 15 16  1  0
 16 17  1  0
 16 18  1  0
 16 19  1  0
 19 20  2  0
 20 21  1  0
 20 22  1  0
 22 23  1  0
 22 24  2  0
 24 25  1  0
 25 26  1  0
 25 27  2  0
 27 28  1  0
  6 29  1  0
 29 30  1  0
 29 31  2  0
 31 32  1  0
 31  2  1  0
 15  7  1  0
 27 19  1  0
M  END
>  <cnnaffinity>  (1) 
-5.23195

>  <filename>  (1) 
c1cncc(C2=NCCN2Cc2ccncc2)c1

$$$$
