
     RDKit          3D

 40 44  0  0  0  0  0  0  0  0999 V2000
    4.8297    1.3155   18.9198 C   0  0  0  0  0  0  0  0  0  0  0  0
    5.3896    1.2906   17.6410 C   0  0  0  0  0  0  0  0  0  0  0  0
    6.4931    0.5961   17.3292 N   0  0  0  0  0  0  0  0  0  0  0  0
    7.1005   -0.0676   18.3221 C   0  0  0  0  0  0  0  0  0  0  0  0
    6.6606   -0.0700   19.6597 C   0  0  0  0  0  0  0  0  0  0  0  0
    7.4636   -0.7181   20.7896 C   0  0  0  0  0  0  0  0  0  0  0  0
    8.2983    0.2227   21.6279 C   0  0  0  0  0  0  0  0  0  0  0  0
    7.7646    1.0097   22.5435 N   0  0  0  0  0  0  0  0  0  0  0  0
    8.8314    1.6794   23.0393 N   0  0  0  0  0  0  0  0  0  0  0  0
    8.6408    2.6925   24.0491 C   0  0  0  0  0  0  0  0  0  0  0  0
    8.4653    2.3260   25.5045 C   0  0  0  0  0  0  0  0  0  0  0  0
    9.7198    2.9953   25.0458 C   0  0  0  0  0  0  0  0  0  0  0  0
    9.8609    4.0519   25.2570 H   0  0  0  0  0  0  0  0  0  0  0  0
   10.6314    2.4007   24.9874 H   0  0  0  0  0  0  0  0  0  0  0  0
    8.5389    1.2791   25.7905 H   0  0  0  0  0  0  0  0  0  0  0  0
    7.7469    2.9076   26.0775 H   0  0  0  0  0  0  0  0  0  0  0  0
    8.0577    3.5296   23.6662 H   0  0  0  0  0  0  0  0  0  0  0  0
    9.9507    1.3022   22.3592 C   0  0  0  0  0  0  0  0  0  0  0  0
   11.2908    1.8696   22.5476 C   0  0  0  0  0  0  0  0  0  0  0  0
   12.4213    1.0888   22.7149 C   0  0  0  0  0  0  0  0  0  0  0  0
   13.7119    1.6860   22.8596 C   0  0  0  0  0  0  0  0  0  0  0  0
   13.8545    3.0444   22.7881 C   0  0  0  0  0  0  0  0  0  0  0  0
   12.7261    3.8345   22.6961 N   0  0  0  0  0  0  0  0  0  0  0  0
   12.5867    5.2073   22.7353 C   0  0  0  0  0  0  0  0  0  0  0  0
   11.2366    5.4319   22.5962 C   0  0  0  0  0  0  0  0  0  0  0  0
   10.5399    4.2629   22.5342 N   0  0  0  0  0  0  0  0  0  0  0  0
   11.4488    3.3019   22.5758 C   0  0  0  0  0  0  0  0  0  0  0  0
   10.7219    6.3801   22.5482 H   0  0  0  0  0  0  0  0  0  0  0  0
   13.4338    5.8544   22.8868 H   0  0  0  0  0  0  0  0  0  0  0  0
   14.7987    3.5750   22.7254 H   0  0  0  0  0  0  0  0  0  0  0  0
   14.5982    1.0726   22.9972 H   0  0  0  0  0  0  0  0  0  0  0  0
   12.3280    0.0048   22.7221 H   0  0  0  0  0  0  0  0  0  0  0  0
    9.6457    0.3330   21.5095 N   0  0  0  0  0  0  0  0  0  0  0  0
    8.1455   -1.4736   20.3906 H   0  0  0  0  0  0  0  0  0  0  0  0
    6.7753   -1.2284   21.4742 H   0  0  0  0  0  0  0  0  0  0  0  0
    5.4757    0.6191   19.9465 C   0  0  0  0  0  0  0  0  0  0  0  0
    5.0865    0.6283   20.9660 H   0  0  0  0  0  0  0  0  0  0  0  0
    8.0031   -0.6138   18.0434 H   0  0  0  0  0  0  0  0  0  0  0  0
    4.9328    1.8594   16.8315 H   0  0  0  0  0  0  0  0  0  0  0  0
    3.9294    1.8895   19.1050 H   0  0  0  0  0  0  0  0  0  0  0  0
  1  2  2  0
  2  3  1  0
  3  4  2  0
  4  5  1  0
  5  6  1  0
  6  7  1  0
  7  8  2  0
  8  9  1  0
  9 10  1  0
 10 11  1  0
 11 12  1  0
 12 13  1  0
 12 14  1  0
 11 15  1  0
 11 16  1  0
 10 17  1  0
  9 18  1  0
 18 19  1  0
 19 20  2  0
 20 21  1  0
 21 22  2  0
 22 23  1  0
 23 24  1  0
 24 25  2  0
 25 26  1  0
 26 27  2  0
 25 28  1  0
 24 29  1  0
 22 30  1  0
 21 31  1  0
 20 32  1  0
 18 33  2  0
  6 34  1  0
  6 35  1  0
  5 36  2  0
 36 37  1  0
  4 38  1  0
  2 39  1  0
  1 40  1  0
 36  1  1  0
 33  7  1  0
 12 10  1  0
 27 19  1  0
 27 23  1  0
M  END
>  <cnnaffinity>  (1) 
-5.62551

>  <filename>  (1) 
c1cncc(Cc2nc(-c3cccn4ccnc34)n(C3CC3)n2)c1

$$$$
