
     RDKit          3D

 37 40  0  0  0  0  0  0  0  0999 V2000
    4.9199    1.7940   16.9792 H   0  0  0  0  0  0  0  0  0  0  0  0
    5.3955    1.3013   17.8225 C   0  0  0  0  0  0  0  0  0  0  0  0
    6.5588    0.6902   17.5626 N   0  0  0  0  0  0  0  0  0  0  0  0
    7.1682    0.0793   18.5915 C   0  0  0  0  0  0  0  0  0  0  0  0
    8.1108   -0.4096   18.3447 H   0  0  0  0  0  0  0  0  0  0  0  0
    6.6652    0.0271   19.9017 C   0  0  0  0  0  0  0  0  0  0  0  0
    7.3408   -0.7675   21.0254 C   0  0  0  0  0  0  0  0  0  0  0  0
    6.5670   -2.0956   21.2535 C   0  0  0  0  0  0  0  0  0  0  0  0
    6.2950   -2.9214   20.1077 C   0  0  0  0  0  0  0  0  0  0  0  0
    6.5610   -2.5275   19.1280 H   0  0  0  0  0  0  0  0  0  0  0  0
    5.6816   -4.1582   20.1929 C   0  0  0  0  0  0  0  0  0  0  0  0
    5.5119   -4.7768   19.3139 H   0  0  0  0  0  0  0  0  0  0  0  0
    5.2466   -4.5522   21.4782 C   0  0  0  0  0  0  0  0  0  0  0  0
    5.4590   -3.7498   22.6222 C   0  0  0  0  0  0  0  0  0  0  0  0
    4.8614   -4.4857   23.6839 C   0  0  0  0  0  0  0  0  0  0  0  0
    4.8203   -4.2184   24.7320 H   0  0  0  0  0  0  0  0  0  0  0  0
    4.3340   -5.6116   23.2551 N   0  0  0  0  0  0  0  0  0  0  0  0
    4.5673   -5.6452   21.9220 N   0  0  0  0  0  0  0  0  0  0  0  0
    4.2555   -6.4318   21.3776 H   0  0  0  0  0  0  0  0  0  0  0  0
    6.1473   -2.5167   22.5050 C   0  0  0  0  0  0  0  0  0  0  0  0
    6.3075   -1.8992   23.3824 H   0  0  0  0  0  0  0  0  0  0  0  0
    7.4605    0.1312   22.2934 C   0  0  0  0  0  0  0  0  0  0  0  0
    7.6294    1.1602   21.9555 H   0  0  0  0  0  0  0  0  0  0  0  0
    6.5255    0.1557   22.8623 H   0  0  0  0  0  0  0  0  0  0  0  0
    8.6713   -0.3634   23.1162 C   0  0  0  0  0  0  0  0  0  0  0  0
    8.3466   -0.8951   24.0188 H   0  0  0  0  0  0  0  0  0  0  0  0
    9.2719    0.4881   23.4552 H   0  0  0  0  0  0  0  0  0  0  0  0
    9.4635   -1.2924   22.1664 C   0  0  0  0  0  0  0  0  0  0  0  0
   10.5397   -1.0868   22.1644 H   0  0  0  0  0  0  0  0  0  0  0  0
    9.3422   -2.3413   22.4685 H   0  0  0  0  0  0  0  0  0  0  0  0
    8.8444   -1.0740   20.7773 C   0  0  0  0  0  0  0  0  0  0  0  0
    8.9788   -1.9414   20.1262 H   0  0  0  0  0  0  0  0  0  0  0  0
    9.3054   -0.2142   20.2770 H   0  0  0  0  0  0  0  0  0  0  0  0
    5.4367    0.6602   20.1412 C   0  0  0  0  0  0  0  0  0  0  0  0
    4.9965    0.6400   21.1429 H   0  0  0  0  0  0  0  0  0  0  0  0
    4.7994    1.3152   19.0884 C   0  0  0  0  0  0  0  0  0  0  0  0
    3.8712    1.8456   19.2443 H   0  0  0  0  0  0  0  0  0  0  0  0
  1  2  1  0
  2  3  2  0
  3  4  1  0
  4  5  1  0
  4  6  2  0
  6  7  1  0
  7  8  1  0
  8  9  2  0
  9 10  1  0
  9 11  1  0
 11 12  1  0
 11 13  2  0
 13 14  1  0
 14 15  1  0
 15 16  1  0
 15 17  2  0
 17 18  1  0
 18 19  1  0
 14 20  2  0
 20 21  1  0
  7 22  1  0
 22 23  1  0
 22 24  1  0
 22 25  1  0
 25 26  1  0
 25 27  1  0
 25 28  1  0
 28 29  1  0
 28 30  1  0
 28 31  1  0
 31 32  1  0
 31 33  1  0
  6 34  1  0
 34 35  1  0
 34 36  2  0
 36 37  1  0
 36  2  1  0
 31  7  1  0
 20  8  1  0
 18 13  1  0
M  END
>  <cnnaffinity>  (1) 
-5.21025

>  <filename>  (1) 
c1cncc(C2(c3ccc4[nH]ncc4c3)CCCC2)c1

$$$$
