
     RDKit          3D

 35 38  0  0  0  0  0  0  0  0999 V2000
    4.9129    1.8188   16.9647 H   0  0  0  0  0  0  0  0  0  0  0  0
    5.3755    1.3082   17.8103 C   0  0  0  0  0  0  0  0  0  0  0  0
    6.5381    0.6879   17.5532 N   0  0  0  0  0  0  0  0  0  0  0  0
    7.1490    0.0791   18.5738 C   0  0  0  0  0  0  0  0  0  0  0  0
    8.1006   -0.3866   18.3262 H   0  0  0  0  0  0  0  0  0  0  0  0
    6.6601    0.0258   19.9013 C   0  0  0  0  0  0  0  0  0  0  0  0
    7.4182   -0.6772   20.9550 C   0  0  0  0  0  0  0  0  0  0  0  0
    8.3368   -1.7006   20.8969 C   0  0  0  0  0  0  0  0  0  0  0  0
    8.7595   -2.1096   19.9991 H   0  0  0  0  0  0  0  0  0  0  0  0
    8.7866   -2.1246   22.1148 N   0  0  0  0  0  0  0  0  0  0  0  0
    8.1712   -1.3169   22.9389 C   0  0  0  0  0  0  0  0  0  0  0  0
    8.2542   -0.9700   24.6302 S   0  0  0  0  0  0  0  0  0  0  0  0
    7.1474    0.3741   24.3017 C   0  0  0  0  0  0  0  0  0  0  0  0
    6.7092    1.2910   25.3968 C   0  0  0  0  0  0  0  0  0  0  0  0
    6.0001    1.9807   24.9119 H   0  0  0  0  0  0  0  0  0  0  0  0
    7.8965    2.1091   25.9683 C   0  0  0  0  0  0  0  0  0  0  0  0
    8.3548    2.7281   25.1864 H   0  0  0  0  0  0  0  0  0  0  0  0
    8.6778    1.4171   26.3190 H   0  0  0  0  0  0  0  0  0  0  0  0
    7.4303    2.9799   27.1384 C   0  0  0  0  0  0  0  0  0  0  0  0
    6.7251    3.7451   26.7775 H   0  0  0  0  0  0  0  0  0  0  0  0
    8.2753    3.5178   27.5757 H   0  0  0  0  0  0  0  0  0  0  0  0
    6.7681    2.2087   28.1932 N   0  0  0  0  0  0  0  0  0  0  0  0
    7.4444    1.5256   28.5420 H   0  0  0  0  0  0  0  0  0  0  0  0
    5.6171    1.4610   27.6787 C   0  0  0  0  0  0  0  0  0  0  0  0
    4.8637    2.1873   27.3345 H   0  0  0  0  0  0  0  0  0  0  0  0
    5.1655    0.9041   28.5080 H   0  0  0  0  0  0  0  0  0  0  0  0
    5.9869    0.5184   26.5286 C   0  0  0  0  0  0  0  0  0  0  0  0
    5.0957    0.0113   26.1376 H   0  0  0  0  0  0  0  0  0  0  0  0
    6.6576   -0.2699   26.9038 H   0  0  0  0  0  0  0  0  0  0  0  0
    6.7641    0.5266   23.0826 N   0  0  0  0  0  0  0  0  0  0  0  0
    7.3324   -0.4371   22.3209 N   0  0  0  0  0  0  0  0  0  0  0  0
    5.4274    0.6655   20.1370 C   0  0  0  0  0  0  0  0  0  0  0  0
    5.0077    0.6562   21.1397 H   0  0  0  0  0  0  0  0  0  0  0  0
    4.7857    1.3156   19.0784 C   0  0  0  0  0  0  0  0  0  0  0  0
    3.8529    1.8512   19.2233 H   0  0  0  0  0  0  0  0  0  0  0  0
  1  2  1  0
  2  3  2  0
  3  4  1  0
  4  5  1  0
  4  6  2  0
  6  7  1  0
  7  8  2  0
  8  9  1  0
  8 10  1  0
 10 11  2  0
 11 12  1  0
 12 13  1  0
 13 14  1  0
 14 15  1  0
 14 16  1  0
 16 17  1  0
 16 18  1  0
 16 19  1  0
 19 20  1  0
 19 21  1  0
 19 22  1  0
 22 23  1  0
 22 24  1  0
 24 25  1  0
 24 26  1  0
 24 27  1  0
 27 28  1  0
 27 29  1  0
 13 30  2  0
 30 31  1  0
  6 32  1  0
 32 33  1  0
 32 34  2  0
 34 35  1  0
 34  2  1  0
 31  7  1  0
 31 11  1  0
 27 14  1  0
M  END
>  <cnnaffinity>  (1) 
-5.91581

>  <filename>  (1) 
c1cncc(-c2cnc3sc(C4CCNCC4)nn23)c1

$$$$
