
     RDKit          3D

 40 42  0  0  0  0  0  0  0  0999 V2000
    4.9264    1.7821   16.9886 H   0  0  0  0  0  0  0  0  0  0  0  0
    5.4052    1.2928   17.8331 C   0  0  0  0  0  0  0  0  0  0  0  0
    6.5667    0.6784   17.5790 N   0  0  0  0  0  0  0  0  0  0  0  0
    7.1576    0.0518   18.6086 C   0  0  0  0  0  0  0  0  0  0  0  0
    8.1083   -0.4299   18.3947 H   0  0  0  0  0  0  0  0  0  0  0  0
    6.6191   -0.0034   19.8936 C   0  0  0  0  0  0  0  0  0  0  0  0
    7.3397   -0.6942   21.0090 C   0  0  0  0  0  0  0  0  0  0  0  0
    6.4783   -1.6279   21.5634 O   0  0  0  0  0  0  0  0  0  0  0  0
    7.0343   -2.3643   22.6565 C   0  0  0  0  0  0  0  0  0  0  0  0
    7.4077   -1.6853   23.4333 H   0  0  0  0  0  0  0  0  0  0  0  0
    7.8731   -2.9800   22.3115 H   0  0  0  0  0  0  0  0  0  0  0  0
    5.9597   -3.2699   23.2342 C   0  0  0  0  0  0  0  0  0  0  0  0
    5.1041   -2.6801   23.5859 H   0  0  0  0  0  0  0  0  0  0  0  0
    5.5830   -3.9169   22.4341 H   0  0  0  0  0  0  0  0  0  0  0  0
    6.5272   -4.0823   24.3202 N   0  0  0  0  0  0  0  0  0  0  0  0
    5.9572   -5.4322   24.4186 C   0  0  0  0  0  0  0  0  0  0  0  0
    6.6300   -6.0466   25.0259 H   0  0  0  0  0  0  0  0  0  0  0  0
    5.9242   -5.8812   23.4178 H   0  0  0  0  0  0  0  0  0  0  0  0
    4.5622   -5.4475   25.0636 C   0  0  0  0  0  0  0  0  0  0  0  0
    4.1864   -6.4678   25.1710 H   0  0  0  0  0  0  0  0  0  0  0  0
    3.8649   -4.8882   24.4178 H   0  0  0  0  0  0  0  0  0  0  0  0
    4.5836   -4.8630   26.3628 O   0  0  0  0  0  0  0  0  0  0  0  0
    5.0560   -3.5205   26.3013 C   0  0  0  0  0  0  0  0  0  0  0  0
    5.0832   -3.1452   27.3279 H   0  0  0  0  0  0  0  0  0  0  0  0
    4.3389   -2.9046   25.7340 H   0  0  0  0  0  0  0  0  0  0  0  0
    6.4498   -3.4239   25.6434 C   0  0  0  0  0  0  0  0  0  0  0  0
    7.1802   -3.8945   26.3098 H   0  0  0  0  0  0  0  0  0  0  0  0
    6.7365   -2.3688   25.5526 H   0  0  0  0  0  0  0  0  0  0  0  0
    7.7147    0.2244   22.0122 O   0  0  0  0  0  0  0  0  0  0  0  0
    9.0908    0.5234   21.8705 C   0  0  0  0  0  0  0  0  0  0  0  0
    9.4986    0.6674   22.8747 H   0  0  0  0  0  0  0  0  0  0  0  0
    9.2428    1.4427   21.2852 H   0  0  0  0  0  0  0  0  0  0  0  0
    9.6474   -0.7241   21.1789 C   0  0  0  0  0  0  0  0  0  0  0  0
   10.0908   -1.4314   21.8906 H   0  0  0  0  0  0  0  0  0  0  0  0
   10.3856   -0.4871   20.4129 H   0  0  0  0  0  0  0  0  0  0  0  0
    8.5199   -1.3065   20.5462 O   0  0  0  0  0  0  0  0  0  0  0  0
    5.4168    0.6607   20.1512 C   0  0  0  0  0  0  0  0  0  0  0  0
    4.9936    0.6456   21.1603 H   0  0  0  0  0  0  0  0  0  0  0  0
    4.7972    1.3205   19.0962 C   0  0  0  0  0  0  0  0  0  0  0  0
    3.8669    1.8504   19.2517 H   0  0  0  0  0  0  0  0  0  0  0  0
  1  2  1  0
  2  3  2  0
  3  4  1  0
  4  5  1  0
  4  6  2  0
  6  7  1  0
  7  8  1  0
  8  9  1  0
  9 10  1  0
  9 11  1  0
  9 12  1  0
 12 13  1  0
 12 14  1  0
 12 15  1  0
 15 16  1  0
 16 17  1  0
 16 18  1  0
 16 19  1  0
 19 20  1  0
 19 21  1  0
 19 22  1  0
 22 23  1  0
 23 24  1  0
 23 25  1  0
 23 26  1  0
 26 27  1  0
 26 28  1  0
  7 29  1  0
 29 30  1  0
 30 31  1  0
 30 32  1  0
 30 33  1  0
 33 34  1  0
 33 35  1  0
 33 36  1  0
  6 37  1  0
 37 38  1  0
 37 39  2  0
 39 40  1  0
 39  2  1  0
 36  7  1  0
 26 15  1  0
M  END
>  <cnnaffinity>  (1) 
-4.18328

>  <filename>  (1) 
c1cncc(C2(OCCN3CCOCC3)OCCO2)c1

$$$$
