
     RDKit          3D

 36 39  0  0  0  0  0  0  0  0999 V2000
    4.7954    1.3450   19.0398 C   0  0  0  0  0  0  0  0  0  0  0  0
    5.3909    1.3195   17.7754 C   0  0  0  0  0  0  0  0  0  0  0  0
    6.5551    0.7039   17.5249 N   0  0  0  0  0  0  0  0  0  0  0  0
    7.1651    0.0987   18.5529 C   0  0  0  0  0  0  0  0  0  0  0  0
    6.6667    0.0703   19.8659 C   0  0  0  0  0  0  0  0  0  0  0  0
    7.3618   -0.6913   20.9601 C   0  0  0  0  0  0  0  0  0  0  0  0
    6.8144   -2.1339   21.0452 C   0  0  0  0  0  0  0  0  0  0  0  0
    7.4837   -2.9198   22.1085 C   0  0  0  0  0  0  0  0  0  0  0  0
    7.1185   -3.0140   23.3418 N   0  0  0  0  0  0  0  0  0  0  0  0
    8.1356   -3.7724   23.8927 C   0  0  0  0  0  0  0  0  0  0  0  0
    8.1678   -4.1540   25.3095 C   0  0  0  0  0  0  0  0  0  0  0  0
    9.2549   -4.8479   25.8593 C   0  0  0  0  0  0  0  0  0  0  0  0
    9.1932   -5.3045   27.1863 C   0  0  0  0  0  0  0  0  0  0  0  0
    8.0610   -5.1188   27.9802 C   0  0  0  0  0  0  0  0  0  0  0  0
    7.0341   -4.3103   27.4713 C   0  0  0  0  0  0  0  0  0  0  0  0
    7.0889   -3.7837   26.1608 C   0  0  0  0  0  0  0  0  0  0  0  0
    5.9794   -2.8706   26.0447 C   0  0  0  0  0  0  0  0  0  0  0  0
    5.2971   -2.9040   27.2199 C   0  0  0  0  0  0  0  0  0  0  0  0
    5.9049   -3.8078   28.0753 N   0  0  0  0  0  0  0  0  0  0  0  0
    5.7615   -3.8606   29.0711 H   0  0  0  0  0  0  0  0  0  0  0  0
    4.4104   -2.3588   27.5216 H   0  0  0  0  0  0  0  0  0  0  0  0
    5.7665   -2.2480   25.1915 H   0  0  0  0  0  0  0  0  0  0  0  0
    7.9936   -5.5598   28.9674 H   0  0  0  0  0  0  0  0  0  0  0  0
   10.0723   -5.7830   27.5984 H   0  0  0  0  0  0  0  0  0  0  0  0
   10.1512   -5.0123   25.2633 H   0  0  0  0  0  0  0  0  0  0  0  0
    9.0564   -4.1184   23.0290 N   0  0  0  0  0  0  0  0  0  0  0  0
    8.6226   -3.5534   21.8431 O   0  0  0  0  0  0  0  0  0  0  0  0
    6.9182   -2.6447   20.0883 H   0  0  0  0  0  0  0  0  0  0  0  0
    5.7505   -2.1084   21.2947 H   0  0  0  0  0  0  0  0  0  0  0  0
    8.4480   -0.7095   20.7925 H   0  0  0  0  0  0  0  0  0  0  0  0
    7.1984   -0.1858   21.9221 H   0  0  0  0  0  0  0  0  0  0  0  0
    5.4419    0.7104   20.1001 C   0  0  0  0  0  0  0  0  0  0  0  0
    5.0069    0.7156   21.1023 H   0  0  0  0  0  0  0  0  0  0  0  0
    8.1133   -0.3869   18.3165 H   0  0  0  0  0  0  0  0  0  0  0  0
    4.9180    1.8170   16.9297 H   0  0  0  0  0  0  0  0  0  0  0  0
    3.8526    1.8587   19.1794 H   0  0  0  0  0  0  0  0  0  0  0  0
  1  2  2  0
  2  3  1  0
  3  4  2  0
  4  5  1  0
  5  6  1  0
  6  7  1  0
  7  8  1  0
  8  9  2  0
  9 10  1  0
 10 11  1  0
 11 12  2  0
 12 13  1  0
 13 14  2  0
 14 15  1  0
 15 16  2  0
 16 17  1  0
 17 18  2  0
 18 19  1  0
 19 20  1  0
 18 21  1  0
 17 22  1  0
 14 23  1  0
 13 24  1  0
 12 25  1  0
 10 26  2  0
 26 27  1  0
  7 28  1  0
  7 29  1  0
  6 30  1  0
  6 31  1  0
  5 32  2  0
 32 33  1  0
  4 34  1  0
  2 35  1  0
  1 36  1  0
 32  1  1  0
 27  8  1  0
 16 11  1  0
 19 15  1  0
M  END
>  <cnnaffinity>  (1) 
-5.25718

>  <filename>  (1) 
c1cncc(CCc2nc(-c3cccc4[nH]ccc34)no2)c1

$$$$
