
     RDKit          3D

 51 55  0  0  0  0  0  0  0  0999 V2000
    4.7778    1.3127   19.0606 C   0  0  0  0  0  0  0  0  0  0  0  0
    5.3846    1.3008   17.8036 C   0  0  0  0  0  0  0  0  0  0  0  0
    6.5384    0.6675   17.5449 N   0  0  0  0  0  0  0  0  0  0  0  0
    7.1334    0.0259   18.5587 C   0  0  0  0  0  0  0  0  0  0  0  0
    6.6149   -0.0367   19.8669 C   0  0  0  0  0  0  0  0  0  0  0  0
    7.3781   -0.6827   21.0261 C   0  0  0  0  0  0  0  0  0  0  0  0
    8.2481    0.3128   21.7335 C   0  0  0  0  0  0  0  0  0  0  0  0
    7.8117    1.1336   22.6691 N   0  0  0  0  0  0  0  0  0  0  0  0
    8.8846    1.9221   22.9127 N   0  0  0  0  0  0  0  0  0  0  0  0
    8.8115    2.9835   23.9096 C   0  0  0  0  0  0  0  0  0  0  0  0
    8.1640    4.2834   23.3902 C   0  0  0  0  0  0  0  0  0  0  0  0
    8.5330    5.4860   24.2756 C   0  0  0  0  0  0  0  0  0  0  0  0
    7.8633    6.7810   23.7902 C   0  0  0  0  0  0  0  0  0  0  0  0
    6.3385    6.6195   23.6812 C   0  0  0  0  0  0  0  0  0  0  0  0
    5.9624    5.4231   22.7939 C   0  0  0  0  0  0  0  0  0  0  0  0
    6.6361    4.1347   23.2778 C   0  0  0  0  0  0  0  0  0  0  0  0
    6.3973    3.2856   22.6266 H   0  0  0  0  0  0  0  0  0  0  0  0
    6.2400    3.8800   24.2739 H   0  0  0  0  0  0  0  0  0  0  0  0
    4.8735    5.2927   22.7662 H   0  0  0  0  0  0  0  0  0  0  0  0
    6.2717    5.6262   21.7580 H   0  0  0  0  0  0  0  0  0  0  0  0
    5.8806    7.5395   23.2971 H   0  0  0  0  0  0  0  0  0  0  0  0
    5.9203    6.4662   24.6874 H   0  0  0  0  0  0  0  0  0  0  0  0
    8.1126    7.6150   24.4576 H   0  0  0  0  0  0  0  0  0  0  0  0
    8.2684    7.0458   22.8016 H   0  0  0  0  0  0  0  0  0  0  0  0
    8.2197    5.2769   25.3099 H   0  0  0  0  0  0  0  0  0  0  0  0
    9.6251    5.6100   24.2983 H   0  0  0  0  0  0  0  0  0  0  0  0
    8.5534    4.4858   22.3780 H   0  0  0  0  0  0  0  0  0  0  0  0
    8.2436    2.5819   24.7533 H   0  0  0  0  0  0  0  0  0  0  0  0
    9.8259    3.1705   24.2734 H   0  0  0  0  0  0  0  0  0  0  0  0
    9.9198    1.5152   22.1477 C   0  0  0  0  0  0  0  0  0  0  0  0
   11.2911    2.0579   22.3064 C   0  0  0  0  0  0  0  0  0  0  0  0
   11.6097    3.4269   22.3017 C   0  0  0  0  0  0  0  0  0  0  0  0
   12.9502    3.8488   22.4477 C   0  0  0  0  0  0  0  0  0  0  0  0
   13.9826    3.0349   22.6531 N   0  0  0  0  0  0  0  0  0  0  0  0
   13.6602    1.7342   22.6447 C   0  0  0  0  0  0  0  0  0  0  0  0
   12.3868    1.1712   22.4509 C   0  0  0  0  0  0  0  0  0  0  0  0
   12.6528   -0.2337   22.3930 C   0  0  0  0  0  0  0  0  0  0  0  0
   13.9339   -0.5013   22.5126 N   0  0  0  0  0  0  0  0  0  0  0  0
   14.5355    0.7025   22.7075 N   0  0  0  0  0  0  0  0  0  0  0  0
   15.5077    0.8542   22.5054 H   0  0  0  0  0  0  0  0  0  0  0  0
   11.9224   -1.0183   22.2274 H   0  0  0  0  0  0  0  0  0  0  0  0
   13.1937    4.9051   22.3851 H   0  0  0  0  0  0  0  0  0  0  0  0
   10.8636    4.2003   22.1476 H   0  0  0  0  0  0  0  0  0  0  0  0
    9.5405    0.5000   21.3791 N   0  0  0  0  0  0  0  0  0  0  0  0
    6.6819   -1.1188   21.7528 H   0  0  0  0  0  0  0  0  0  0  0  0
    8.0417   -1.4829   20.6798 H   0  0  0  0  0  0  0  0  0  0  0  0
    5.4106    0.6400   20.1084 C   0  0  0  0  0  0  0  0  0  0  0  0
    4.9901    0.6616   21.1136 H   0  0  0  0  0  0  0  0  0  0  0  0
    8.0850   -0.4519   18.3116 H   0  0  0  0  0  0  0  0  0  0  0  0
    4.9329    1.8346   16.9704 H   0  0  0  0  0  0  0  0  0  0  0  0
    3.8511    1.8604   19.2068 H   0  0  0  0  0  0  0  0  0  0  0  0
  1  2  2  0
  2  3  1  0
  3  4  2  0
  4  5  1  0
  5  6  1  0
  6  7  1  0
  7  8  2  0
  8  9  1  0
  9 10  1  0
 10 11  1  0
 11 12  1  0
 12 13  1  0
 13 14  1  0
 14 15  1  0
 15 16  1  0
 16 17  1  0
 16 18  1  0
 15 19  1  0
 15 20  1  0
 14 21  1  0
 14 22  1  0
 13 23  1  0
 13 24  1  0
 12 25  1  0
 12 26  1  0
 11 27  1  0
 10 28  1  0
 10 29  1  0
  9 30  1  0
 30 31  1  0
 31 32  2  0
 32 33  1  0
 33 34  2  0
 34 35  1  0
 35 36  2  0
 36 37  1  0
 37 38  2  0
 38 39  1  0
 39 40  1  0
 37 41  1  0
 33 42  1  0
 32 43  1  0
 30 44  2  0
  6 45  1  0
  6 46  1  0
  5 47  2  0
 47 48  1  0
  4 49  1  0
  2 50  1  0
  1 51  1  0
 47  1  1  0
 44  7  1  0
 16 11  1  0
 36 31  1  0
 39 35  1  0
M  END
>  <cnnaffinity>  (1) 
-7.105

>  <filename>  (1) 
c1cncc(Cc2nc(-c3ccnc4[nH]ncc34)n(CC3CCCCC3)n2)c1

$$$$
