
     RDKit          3D

 35 38  0  0  0  0  0  0  0  0999 V2000
    4.9837    1.7905   16.9947 H   0  0  0  0  0  0  0  0  0  0  0  0
    5.4278    1.2992   17.8578 C   0  0  0  0  0  0  0  0  0  0  0  0
    6.5746    0.6394   17.6305 N   0  0  0  0  0  0  0  0  0  0  0  0
    7.1477    0.0316   18.6697 C   0  0  0  0  0  0  0  0  0  0  0  0
    8.0565   -0.5324   18.4624 H   0  0  0  0  0  0  0  0  0  0  0  0
    6.6424    0.0801   19.9803 C   0  0  0  0  0  0  0  0  0  0  0  0
    7.4081   -0.6405   21.0055 C   0  0  0  0  0  0  0  0  0  0  0  0
    7.9996   -1.7901   20.7987 N   0  0  0  0  0  0  0  0  0  0  0  0
    8.6193   -2.1687   21.9585 N   0  0  0  0  0  0  0  0  0  0  0  0
    8.4078   -1.2199   22.8284 C   0  0  0  0  0  0  0  0  0  0  0  0
    8.7748   -1.2124   23.8461 H   0  0  0  0  0  0  0  0  0  0  0  0
    7.6519   -0.2135   22.2884 N   0  0  0  0  0  0  0  0  0  0  0  0
    7.3570    1.0553   22.9433 C   0  0  0  0  0  0  0  0  0  0  0  0
    8.2973    1.4799   23.3271 H   0  0  0  0  0  0  0  0  0  0  0  0
    7.0002    1.7607   22.1829 H   0  0  0  0  0  0  0  0  0  0  0  0
    6.3370    0.9807   24.0633 C   0  0  0  0  0  0  0  0  0  0  0  0
    5.8593   -0.2049   24.5811 C   0  0  0  0  0  0  0  0  0  0  0  0
    6.3021   -1.1541   24.3004 H   0  0  0  0  0  0  0  0  0  0  0  0
    4.7989   -0.3138   25.4337 N   0  0  0  0  0  0  0  0  0  0  0  0
    4.1956    0.7962   25.7954 C   0  0  0  0  0  0  0  0  0  0  0  0
    3.2963    0.7072   26.4045 H   0  0  0  0  0  0  0  0  0  0  0  0
    4.6535    2.1026   25.4491 C   0  0  0  0  0  0  0  0  0  0  0  0
    4.0367    3.2844   25.9523 C   0  0  0  0  0  0  0  0  0  0  0  0
    3.1054    3.1803   26.4985 H   0  0  0  0  0  0  0  0  0  0  0  0
    4.5931    4.5224   25.7215 C   0  0  0  0  0  0  0  0  0  0  0  0
    4.1346    5.4190   26.1404 H   0  0  0  0  0  0  0  0  0  0  0  0
    5.7729    4.6222   24.9358 C   0  0  0  0  0  0  0  0  0  0  0  0
    6.2114    5.6018   24.7602 H   0  0  0  0  0  0  0  0  0  0  0  0
    6.3525    3.4991   24.3779 C   0  0  0  0  0  0  0  0  0  0  0  0
    7.2197    3.5874   23.7298 H   0  0  0  0  0  0  0  0  0  0  0  0
    5.8048    2.2004   24.6117 C   0  0  0  0  0  0  0  0  0  0  0  0
    5.4317    0.7514   20.1996 C   0  0  0  0  0  0  0  0  0  0  0  0
    4.9877    0.7756   21.1988 H   0  0  0  0  0  0  0  0  0  0  0  0
    4.8077    1.3635   19.1105 C   0  0  0  0  0  0  0  0  0  0  0  0
    3.8689    1.8959   19.2218 H   0  0  0  0  0  0  0  0  0  0  0  0
  1  2  1  0
  2  3  2  0
  3  4  1  0
  4  5  1  0
  4  6  2  0
  6  7  1  0
  7  8  2  0
  8  9  1  0
  9 10  2  0
 10 11  1  0
 10 12  1  0
 12 13  1  0
 13 14  1  0
 13 15  1  0
 13 16  1  0
 16 17  2  0
 17 18  1  0
 17 19  1  0
 19 20  2  0
 20 21  1  0
 20 22  1  0
 22 23  2  0
 23 24  1  0
 23 25  1  0
 25 26  1  0
 25 27  2  0
 27 28  1  0
 27 29  1  0
 29 30  1  0
 29 31  2  0
  6 32  1  0
 32 33  1  0
 32 34  2  0
 34 35  1  0
 34  2  1  0
 12  7  1  0
 31 16  1  0
 31 22  1  0
M  END
>  <cnnaffinity>  (1) 
-5.53475

>  <filename>  (1) 
c1cncc(-c2nncn2Cc2cncc3ccccc23)c1

$$$$
