
     RDKit          3D

 40 44  0  0  0  0  0  0  0  0999 V2000
    4.7195    1.3225   18.9100 C   0  0  0  0  0  0  0  0  0  0  0  0
    5.3488    1.3020   17.6623 C   0  0  0  0  0  0  0  0  0  0  0  0
    6.4442    0.5744   17.3987 N   0  0  0  0  0  0  0  0  0  0  0  0
    6.9664   -0.1332   18.4077 C   0  0  0  0  0  0  0  0  0  0  0  0
    6.4449   -0.1551   19.7134 C   0  0  0  0  0  0  0  0  0  0  0  0
    7.2332   -0.7449   20.8776 C   0  0  0  0  0  0  0  0  0  0  0  0
    8.1047    0.3017   21.5175 C   0  0  0  0  0  0  0  0  0  0  0  0
    9.2543    0.6644   20.9797 N   0  0  0  0  0  0  0  0  0  0  0  0
    9.6887    1.6327   21.8214 N   0  0  0  0  0  0  0  0  0  0  0  0
   11.0457    2.0858   21.8264 C   0  0  0  0  0  0  0  0  0  0  0  0
   11.5851    2.9838   20.9069 C   0  0  0  0  0  0  0  0  0  0  0  0
   12.7288    3.7452   21.2340 C   0  0  0  0  0  0  0  0  0  0  0  0
   13.4872    3.4568   22.3656 C   0  0  0  0  0  0  0  0  0  0  0  0
   13.0667    2.3813   23.1723 C   0  0  0  0  0  0  0  0  0  0  0  0
   11.8494    1.7357   22.9161 C   0  0  0  0  0  0  0  0  0  0  0  0
   11.6896    0.8262   23.9345 N   0  0  0  0  0  0  0  0  0  0  0  0
   12.8007    0.9201   24.7126 C   0  0  0  0  0  0  0  0  0  0  0  0
   13.6370    1.8140   24.2854 N   0  0  0  0  0  0  0  0  0  0  0  0
   12.9086    0.3352   25.6200 H   0  0  0  0  0  0  0  0  0  0  0  0
   10.9601    0.1404   24.0153 H   0  0  0  0  0  0  0  0  0  0  0  0
   14.4206    3.9692   22.5789 H   0  0  0  0  0  0  0  0  0  0  0  0
   13.0107    4.5751   20.5949 H   0  0  0  0  0  0  0  0  0  0  0  0
   11.1178    3.1196   19.9468 H   0  0  0  0  0  0  0  0  0  0  0  0
    8.7528    1.8276   22.8062 C   0  0  0  0  0  0  0  0  0  0  0  0
    8.8793    2.8596   23.8572 C   0  0  0  0  0  0  0  0  0  0  0  0
    9.6506    3.9927   23.7550 C   0  0  0  0  0  0  0  0  0  0  0  0
    9.6197    4.9396   25.1759 S   0  0  0  0  0  0  0  0  0  0  0  0
    8.5309    3.8467   25.9378 C   0  0  0  0  0  0  0  0  0  0  0  0
    8.2101    2.8001   25.1324 C   0  0  0  0  0  0  0  0  0  0  0  0
    7.5319    2.0024   25.4252 H   0  0  0  0  0  0  0  0  0  0  0  0
    8.1621    4.0668   26.9328 H   0  0  0  0  0  0  0  0  0  0  0  0
   10.2240    4.3357   22.9002 H   0  0  0  0  0  0  0  0  0  0  0  0
    7.7582    0.9712   22.6431 N   0  0  0  0  0  0  0  0  0  0  0  0
    7.8728   -1.5696   20.5427 H   0  0  0  0  0  0  0  0  0  0  0  0
    6.5692   -1.1334   21.6564 H   0  0  0  0  0  0  0  0  0  0  0  0
    5.2736    0.5754   19.9507 C   0  0  0  0  0  0  0  0  0  0  0  0
    4.8185    0.5784   20.9434 H   0  0  0  0  0  0  0  0  0  0  0  0
    7.8696   -0.7006   18.1760 H   0  0  0  0  0  0  0  0  0  0  0  0
    4.9606    1.8965   16.8378 H   0  0  0  0  0  0  0  0  0  0  0  0
    3.8375    1.9355   19.0558 H   0  0  0  0  0  0  0  0  0  0  0  0
  1  2  2  0
  2  3  1  0
  3  4  2  0
  4  5  1  0
  5  6  1  0
  6  7  1  0
  7  8  2  0
  8  9  1  0
  9 10  1  0
 10 11  2  0
 11 12  1  0
 12 13  2  0
 13 14  1  0
 14 15  2  0
 15 16  1  0
 16 17  1  0
 17 18  2  0
 17 19  1  0
 16 20  1  0
 13 21  1  0
 12 22  1  0
 11 23  1  0
  9 24  1  0
 24 25  1  0
 25 26  2  0
 26 27  1  0
 27 28  1  0
 28 29  2  0
 29 30  1  0
 28 31  1  0
 26 32  1  0
 24 33  2  0
  6 34  1  0
  6 35  1  0
  5 36  2  0
 36 37  1  0
  4 38  1  0
  2 39  1  0
  1 40  1  0
 36  1  1  0
 33  7  1  0
 15 10  1  0
 29 25  1  0
 18 14  1  0
M  END
>  <cnnaffinity>  (1) 
-6.33167

>  <filename>  (1) 
c1cncc(Cc2nc(-c3ccsc3)n(-c3cccc4nc[nH]c34)n2)c1

$$$$
