
     RDKit          3D

 30 32  0  0  0  0  0  0  0  0999 V2000
    4.9381    1.7974   16.9855 H   0  0  0  0  0  0  0  0  0  0  0  0
    5.4027    1.2938   17.8306 C   0  0  0  0  0  0  0  0  0  0  0  0
    6.5625    0.6704   17.5705 N   0  0  0  0  0  0  0  0  0  0  0  0
    7.1589    0.0325   18.5820 C   0  0  0  0  0  0  0  0  0  0  0  0
    8.1112   -0.4466   18.3655 H   0  0  0  0  0  0  0  0  0  0  0  0
    6.6401   -0.0157   19.8857 C   0  0  0  0  0  0  0  0  0  0  0  0
    7.3740   -0.7204   20.9256 C   0  0  0  0  0  0  0  0  0  0  0  0
    7.9834   -1.9470   20.7539 N   0  0  0  0  0  0  0  0  0  0  0  0
    8.4707   -2.2562   21.9252 C   0  0  0  0  0  0  0  0  0  0  0  0
    8.9913   -3.1722   22.1652 H   0  0  0  0  0  0  0  0  0  0  0  0
    8.2415   -1.2790   22.8583 N   0  0  0  0  0  0  0  0  0  0  0  0
    8.5227   -1.2308   23.8245 H   0  0  0  0  0  0  0  0  0  0  0  0
    7.5582   -0.2854   22.2303 C   0  0  0  0  0  0  0  0  0  0  0  0
    7.1591    0.8587   22.8789 N   0  0  0  0  0  0  0  0  0  0  0  0
    6.9455    1.6267   22.2571 H   0  0  0  0  0  0  0  0  0  0  0  0
    7.5119    1.2171   24.2345 C   0  0  0  0  0  0  0  0  0  0  0  0
    7.2468    0.3971   24.9204 H   0  0  0  0  0  0  0  0  0  0  0  0
    6.8784    2.0735   24.5028 H   0  0  0  0  0  0  0  0  0  0  0  0
    8.9602    1.6151   24.4244 C   0  0  0  0  0  0  0  0  0  0  0  0
    9.6688    0.8251   24.1702 H   0  0  0  0  0  0  0  0  0  0  0  0
    9.3229    2.4878   25.5909 C   0  0  0  0  0  0  0  0  0  0  0  0
   10.2212    2.2087   26.1349 H   0  0  0  0  0  0  0  0  0  0  0  0
    8.5294    2.8568   26.2454 H   0  0  0  0  0  0  0  0  0  0  0  0
    9.4220    3.0318   24.1842 C   0  0  0  0  0  0  0  0  0  0  0  0
   10.4004    3.2063   23.7348 H   0  0  0  0  0  0  0  0  0  0  0  0
    8.6772    3.7533   23.8378 H   0  0  0  0  0  0  0  0  0  0  0  0
    5.4285    0.6524   20.1458 C   0  0  0  0  0  0  0  0  0  0  0  0
    5.0037    0.6389   21.1517 H   0  0  0  0  0  0  0  0  0  0  0  0
    4.7977    1.3124   19.0934 C   0  0  0  0  0  0  0  0  0  0  0  0
    3.8660    1.8478   19.2375 H   0  0  0  0  0  0  0  0  0  0  0  0
  1  2  1  0
  2  3  2  0
  3  4  1  0
  4  5  1  0
  4  6  2  0
  6  7  1  0
  7  8  1  0
  8  9  2  0
  9 10  1  0
  9 11  1  0
 11 12  1  0
 11 13  1  0
 13 14  1  0
 14 15  1  0
 14 16  1  0
 16 17  1  0
 16 18  1  0
 16 19  1  0
 19 20  1  0
 19 21  1  0
 21 22  1  0
 21 23  1  0
 21 24  1  0
 24 25  1  0
 24 26  1  0
  6 27  1  0
 27 28  1  0
 27 29  2  0
 29 30  1  0
 29  2  1  0
 13  7  2  0
 24 19  1  0
M  END
>  <cnnaffinity>  (1) 
-5.00726

>  <filename>  (1) 
c1cncc(-c2nc[nH]c2NCC2CC2)c1

$$$$
