
     RDKit          3D

 33 35  0  0  0  0  0  0  0  0999 V2000
    4.9343    1.7996   16.9712 H   0  0  0  0  0  0  0  0  0  0  0  0
    5.3925    1.3103   17.8250 C   0  0  0  0  0  0  0  0  0  0  0  0
    6.5544    0.6828   17.5886 N   0  0  0  0  0  0  0  0  0  0  0  0
    7.1483    0.0824   18.6288 C   0  0  0  0  0  0  0  0  0  0  0  0
    8.0905   -0.4101   18.3916 H   0  0  0  0  0  0  0  0  0  0  0  0
    6.6367    0.0828   19.9471 C   0  0  0  0  0  0  0  0  0  0  0  0
    7.3185   -0.6765   21.0197 C   0  0  0  0  0  0  0  0  0  0  0  0
    7.7050   -1.9900   20.9948 C   0  0  0  0  0  0  0  0  0  0  0  0
    7.3712   -2.6547   20.2178 H   0  0  0  0  0  0  0  0  0  0  0  0
    8.4197   -2.2826   22.1873 C   0  0  0  0  0  0  0  0  0  0  0  0
    8.9631   -3.1877   22.4496 H   0  0  0  0  0  0  0  0  0  0  0  0
    8.3762   -1.1411   22.9407 C   0  0  0  0  0  0  0  0  0  0  0  0
    8.7013   -0.9650   23.9543 H   0  0  0  0  0  0  0  0  0  0  0  0
    7.7005   -0.1638   22.2477 N   0  0  0  0  0  0  0  0  0  0  0  0
    7.3718    1.1364   22.7672 C   0  0  0  0  0  0  0  0  0  0  0  0
    8.1966    1.4955   23.3979 H   0  0  0  0  0  0  0  0  0  0  0  0
    7.3063    1.8209   21.9178 H   0  0  0  0  0  0  0  0  0  0  0  0
    6.1419    1.1373   23.5171 N   0  0  0  0  0  0  0  0  0  0  0  0
    5.6738    0.2612   23.6813 H   0  0  0  0  0  0  0  0  0  0  0  0
    5.6082    2.2379   24.1031 C   0  0  0  0  0  0  0  0  0  0  0  0
    4.4099    2.1022   24.8061 C   0  0  0  0  0  0  0  0  0  0  0  0
    3.9457    1.1286   24.8851 H   0  0  0  0  0  0  0  0  0  0  0  0
    3.8723    3.2360   25.3899 C   0  0  0  0  0  0  0  0  0  0  0  0
    2.9380    3.1619   25.9437 H   0  0  0  0  0  0  0  0  0  0  0  0
    4.4256    4.4553   25.3263 N   0  0  0  0  0  0  0  0  0  0  0  0
    5.5734    4.5580   24.6447 C   0  0  0  0  0  0  0  0  0  0  0  0
    6.0142    5.5527   24.5998 H   0  0  0  0  0  0  0  0  0  0  0  0
    6.2090    3.4993   24.0206 C   0  0  0  0  0  0  0  0  0  0  0  0
    7.1375    3.6263   23.4848 H   0  0  0  0  0  0  0  0  0  0  0  0
    5.4139    0.7439   20.1578 C   0  0  0  0  0  0  0  0  0  0  0  0
    4.9746    0.7435   21.1548 H   0  0  0  0  0  0  0  0  0  0  0  0
    4.7759    1.3567   19.0793 C   0  0  0  0  0  0  0  0  0  0  0  0
    3.8258    1.8662   19.1995 H   0  0  0  0  0  0  0  0  0  0  0  0
  1  2  1  0
  2  3  2  0
  3  4  1  0
  4  5  1  0
  4  6  2  0
  6  7  1  0
  7  8  2  0
  8  9  1  0
  8 10  1  0
 10 11  1  0
 10 12  2  0
 12 13  1  0
 12 14  1  0
 14 15  1  0
 15 16  1  0
 15 17  1  0
 15 18  1  0
 18 19  1  0
 18 20  1  0
 20 21  2  0
 21 22  1  0
 21 23  1  0
 23 24  1  0
 23 25  2  0
 25 26  1  0
 26 27  1  0
 26 28  2  0
 28 29  1  0
  6 30  1  0
 30 31  1  0
 30 32  2  0
 32 33  1  0
 32  2  1  0
 14  7  1  0
 28 20  1  0
M  END
>  <cnnaffinity>  (1) 
-5.09205

>  <filename>  (1) 
c1cncc(-c2cccn2CNc2ccncc2)c1

$$$$
