
     RDKit          3D

 40 44  0  0  0  0  0  0  0  0999 V2000
    4.6915    1.4869   18.7686 C   0  0  0  0  0  0  0  0  0  0  0  0
    5.3544    1.4207   17.5373 C   0  0  0  0  0  0  0  0  0  0  0  0
    6.5010    0.7475   17.3558 N   0  0  0  0  0  0  0  0  0  0  0  0
    7.0375    0.1375   18.4179 C   0  0  0  0  0  0  0  0  0  0  0  0
    6.4661    0.1666   19.7041 C   0  0  0  0  0  0  0  0  0  0  0  0
    7.1603   -0.4931   20.8168 C   0  0  0  0  0  0  0  0  0  0  0  0
    8.2964   -1.1316   20.6295 N   0  0  0  0  0  0  0  0  0  0  0  0
    8.6323   -1.5270   21.8763 N   0  0  0  0  0  0  0  0  0  0  0  0
    9.8388   -2.2820   22.0340 C   0  0  0  0  0  0  0  0  0  0  0  0
   11.1408   -1.6068   21.7288 C   0  0  0  0  0  0  0  0  0  0  0  0
   10.8108   -2.0107   23.1359 C   0  0  0  0  0  0  0  0  0  0  0  0
   10.5999   -1.2202   23.8511 H   0  0  0  0  0  0  0  0  0  0  0  0
   11.3275   -2.8821   23.5307 H   0  0  0  0  0  0  0  0  0  0  0  0
   11.0860   -0.5532   21.4724 H   0  0  0  0  0  0  0  0  0  0  0  0
   11.9143   -2.1534   21.1996 H   0  0  0  0  0  0  0  0  0  0  0  0
    9.6920   -3.2999   21.7211 H   0  0  0  0  0  0  0  0  0  0  0  0
    7.6664   -1.1708   22.7478 C   0  0  0  0  0  0  0  0  0  0  0  0
    7.7000   -1.5482   24.2044 C   0  0  0  0  0  0  0  0  0  0  0  0
    7.4725   -3.0202   24.4986 C   0  0  0  0  0  0  0  0  0  0  0  0
    6.2654   -3.6162   24.2543 C   0  0  0  0  0  0  0  0  0  0  0  0
    6.2698   -4.9005   24.7401 N   0  0  0  0  0  0  0  0  0  0  0  0
    7.4910   -5.1751   25.2697 C   0  0  0  0  0  0  0  0  0  0  0  0
    7.8091   -6.3661   25.7765 N   0  0  0  0  0  0  0  0  0  0  0  0
    9.0780   -6.4766   26.1702 C   0  0  0  0  0  0  0  0  0  0  0  0
   10.0160   -5.4280   26.0907 C   0  0  0  0  0  0  0  0  0  0  0  0
    9.6381   -4.1974   25.5617 C   0  0  0  0  0  0  0  0  0  0  0  0
    8.3094   -4.0201   25.1301 C   0  0  0  0  0  0  0  0  0  0  0  0
   10.3982   -3.4258   25.4754 H   0  0  0  0  0  0  0  0  0  0  0  0
   11.0321   -5.5948   26.4072 H   0  0  0  0  0  0  0  0  0  0  0  0
    9.3603   -7.4690   26.5108 H   0  0  0  0  0  0  0  0  0  0  0  0
    5.5445   -5.5869   24.7886 H   0  0  0  0  0  0  0  0  0  0  0  0
    5.4166   -3.1768   23.7416 H   0  0  0  0  0  0  0  0  0  0  0  0
    8.6444   -1.2033   24.6421 H   0  0  0  0  0  0  0  0  0  0  0  0
    6.9118   -0.9613   24.6880 H   0  0  0  0  0  0  0  0  0  0  0  0
    6.7294   -0.4958   22.1078 N   0  0  0  0  0  0  0  0  0  0  0  0
    5.2541    0.8492   19.8736 C   0  0  0  0  0  0  0  0  0  0  0  0
    4.7785    0.8677   20.8558 H   0  0  0  0  0  0  0  0  0  0  0  0
    7.9660   -0.3968   18.2250 H   0  0  0  0  0  0  0  0  0  0  0  0
    4.9432    1.9178   16.6597 H   0  0  0  0  0  0  0  0  0  0  0  0
    3.7579    2.0323   18.8521 H   0  0  0  0  0  0  0  0  0  0  0  0
  1  2  2  0
  2  3  1  0
  3  4  2  0
  4  5  1  0
  5  6  1  0
  6  7  2  0
  7  8  1  0
  8  9  1  0
  9 10  1  0
 10 11  1  0
 11 12  1  0
 11 13  1  0
 10 14  1  0
 10 15  1  0
  9 16  1  0
  8 17  1  0
 17 18  1  0
 18 19  1  0
 19 20  2  0
 20 21  1  0
 21 22  1  0
 22 23  2  0
 23 24  1  0
 24 25  2  0
 25 26  1  0
 26 27  2  0
 26 28  1  0
 25 29  1  0
 24 30  1  0
 21 31  1  0
 20 32  1  0
 18 33  1  0
 18 34  1  0
 17 35  2  0
  5 36  2  0
 36 37  1  0
  4 38  1  0
  2 39  1  0
  1 40  1  0
 36  1  1  0
 35  6  1  0
 11  9  1  0
 27 19  1  0
 27 22  1  0
M  END
>  <cnnaffinity>  (1) 
-5.96794

>  <filename>  (1) 
c1cncc(-c2nc(Cc3c[nH]c4ncccc34)n(C3CC3)n2)c1

$$$$
