
     RDKit          3D

 29 31  0  0  0  0  0  0  0  0999 V2000
    4.9162    1.7754   17.0023 H   0  0  0  0  0  0  0  0  0  0  0  0
    5.4058    1.2902   17.8440 C   0  0  0  0  0  0  0  0  0  0  0  0
    6.5724    0.6778   17.5843 N   0  0  0  0  0  0  0  0  0  0  0  0
    7.1753    0.0476   18.5966 C   0  0  0  0  0  0  0  0  0  0  0  0
    8.1249   -0.4356   18.3770 H   0  0  0  0  0  0  0  0  0  0  0  0
    6.6529   -0.0019   19.8982 C   0  0  0  0  0  0  0  0  0  0  0  0
    7.3757   -0.7021   20.9515 C   0  0  0  0  0  0  0  0  0  0  0  0
    8.1143   -1.8431   20.7443 N   0  0  0  0  0  0  0  0  0  0  0  0
    8.5795   -2.1789   21.9119 C   0  0  0  0  0  0  0  0  0  0  0  0
    9.2167   -3.0368   22.1015 H   0  0  0  0  0  0  0  0  0  0  0  0
    8.1983   -1.3059   22.8851 N   0  0  0  0  0  0  0  0  0  0  0  0
    8.4860   -1.3043   23.8458 H   0  0  0  0  0  0  0  0  0  0  0  0
    7.4512   -0.3338   22.2831 C   0  0  0  0  0  0  0  0  0  0  0  0
    7.0079    0.7867   22.9619 N   0  0  0  0  0  0  0  0  0  0  0  0
    6.9309    1.6221   22.4045 H   0  0  0  0  0  0  0  0  0  0  0  0
    6.6753    0.9196   24.2946 C   0  0  0  0  0  0  0  0  0  0  0  0
    6.2127   -0.1654   25.0331 C   0  0  0  0  0  0  0  0  0  0  0  0
    6.0681   -1.1278   24.5630 H   0  0  0  0  0  0  0  0  0  0  0  0
    5.9149    0.0347   26.3714 C   0  0  0  0  0  0  0  0  0  0  0  0
    5.5589   -0.8002   26.9648 H   0  0  0  0  0  0  0  0  0  0  0  0
    6.0344    1.2074   27.0030 N   0  0  0  0  0  0  0  0  0  0  0  0
    6.4672    2.2377   26.2670 C   0  0  0  0  0  0  0  0  0  0  0  0
    6.5546    3.1867   26.7860 H   0  0  0  0  0  0  0  0  0  0  0  0
    6.7872    2.1611   24.9173 C   0  0  0  0  0  0  0  0  0  0  0  0
    7.1352    3.0347   24.3801 H   0  0  0  0  0  0  0  0  0  0  0  0
    5.4389    0.6561   20.1585 C   0  0  0  0  0  0  0  0  0  0  0  0
    5.0027    0.6280   21.1606 H   0  0  0  0  0  0  0  0  0  0  0  0
    4.8038    1.3102   19.1087 C   0  0  0  0  0  0  0  0  0  0  0  0
    3.8715    1.8443   19.2622 H   0  0  0  0  0  0  0  0  0  0  0  0
  1  2  1  0
  2  3  2  0
  3  4  1  0
  4  5  1  0
  4  6  2  0
  6  7  1  0
  7  8  1  0
  8  9  2  0
  9 10  1  0
  9 11  1  0
 11 12  1  0
 11 13  1  0
 13 14  1  0
 14 15  1  0
 14 16  1  0
 16 17  2  0
 17 18  1  0
 17 19  1  0
 19 20  1  0
 19 21  2  0
 21 22  1  0
 22 23  1  0
 22 24  2  0
 24 25  1  0
  6 26  1  0
 26 27  1  0
 26 28  2  0
 28 29  1  0
 28  2  1  0
 13  7  2  0
 24 16  1  0
M  END
>  <cnnaffinity>  (1) 
-5.08474

>  <filename>  (1) 
c1cncc(-c2nc[nH]c2Nc2ccncc2)c1

$$$$
