
     RDKit          3D

 48 53  0  0  0  0  0  0  0  0999 V2000
    4.8530    1.3758   18.8713 C   0  0  0  0  0  0  0  0  0  0  0  0
    5.4821    1.2046   17.6349 C   0  0  0  0  0  0  0  0  0  0  0  0
    6.5910    0.4684   17.4626 N   0  0  0  0  0  0  0  0  0  0  0  0
    7.1078   -0.1162   18.5527 C   0  0  0  0  0  0  0  0  0  0  0  0
    6.5637   -0.0152   19.8456 C   0  0  0  0  0  0  0  0  0  0  0  0
    7.2352   -0.6403   21.0693 C   0  0  0  0  0  0  0  0  0  0  0  0
    8.0033    0.3584   21.8933 C   0  0  0  0  0  0  0  0  0  0  0  0
    7.4806    1.0385   22.8975 N   0  0  0  0  0  0  0  0  0  0  0  0
    8.4706    1.9268   23.2023 N   0  0  0  0  0  0  0  0  0  0  0  0
    8.3376    2.9019   24.2297 C   0  0  0  0  0  0  0  0  0  0  0  0
    7.8756    2.5134   25.5018 C   0  0  0  0  0  0  0  0  0  0  0  0
    7.3455    1.3449   25.9895 N   0  0  0  0  0  0  0  0  0  0  0  0
    7.1369    1.5269   27.3267 C   0  0  0  0  0  0  0  0  0  0  0  0
    7.5070    2.7012   27.7504 N   0  0  0  0  0  0  0  0  0  0  0  0
    7.9686    3.3605   26.6197 C   0  0  0  0  0  0  0  0  0  0  0  0
    8.4508    4.6777   26.4743 C   0  0  0  0  0  0  0  0  0  0  0  0
    8.8065    5.1046   25.1931 C   0  0  0  0  0  0  0  0  0  0  0  0
    8.7478    4.2323   24.0826 C   0  0  0  0  0  0  0  0  0  0  0  0
    9.0301    4.6057   23.0993 H   0  0  0  0  0  0  0  0  0  0  0  0
    9.1334    6.1284   25.0297 H   0  0  0  0  0  0  0  0  0  0  0  0
    8.5173    5.3094   27.3542 H   0  0  0  0  0  0  0  0  0  0  0  0
    6.7091    0.7465   27.9500 H   0  0  0  0  0  0  0  0  0  0  0  0
    7.0221    0.5989   25.3966 H   0  0  0  0  0  0  0  0  0  0  0  0
    9.5605    1.6755   22.4200 C   0  0  0  0  0  0  0  0  0  0  0  0
   10.8843    2.3404   22.6421 C   0  0  2  0  0  0  0  0  0  0  0  0
   12.0585    1.9743   21.6881 C   0  0  0  0  0  0  0  0  0  0  0  0
   13.0723    1.4302   22.7106 C   0  0  2  0  0  0  0  0  0  0  0  0
   12.5858    0.0581   23.2264 C   0  0  0  0  0  0  0  0  0  0  0  0
   11.5418    0.4889   24.2852 C   0  0  0  0  0  0  0  0  0  0  0  0
   11.5067    2.0091   24.0374 C   0  0  1  0  0  0  0  0  0  0  0  0
   12.8745    2.2996   23.8268 O   0  0  0  0  0  0  0  0  0  0  0  0
   11.0947    2.6001   24.8575 H   0  0  0  0  0  0  0  0  0  0  0  0
   10.5589    0.0261   24.1593 H   0  0  0  0  0  0  0  0  0  0  0  0
   11.8894    0.2767   25.2982 H   0  0  0  0  0  0  0  0  0  0  0  0
   13.4111   -0.4941   23.6656 H   0  0  0  0  0  0  0  0  0  0  0  0
   12.1470   -0.5513   22.4302 H   0  0  0  0  0  0  0  0  0  0  0  0
   14.1275    1.4597   22.4335 H   0  0  0  0  0  0  0  0  0  0  0  0
   11.7928    1.2386   20.9238 H   0  0  0  0  0  0  0  0  0  0  0  0
   12.4467    2.8698   21.1916 H   0  0  0  0  0  0  0  0  0  0  0  0
   10.7461    3.4209   22.5875 H   0  0  0  0  0  0  0  0  0  0  0  0
    9.2845    0.6994   21.5770 N   0  0  0  0  0  0  0  0  0  0  0  0
    6.4805   -1.1015   21.7159 H   0  0  0  0  0  0  0  0  0  0  0  0
    7.9309   -1.4297   20.7623 H   0  0  0  0  0  0  0  0  0  0  0  0
    5.3992    0.7505   19.9959 C   0  0  0  0  0  0  0  0  0  0  0  0
    4.9437    0.8606   20.9827 H   0  0  0  0  0  0  0  0  0  0  0  0
    8.0190   -0.6961   18.4005 H   0  0  0  0  0  0  0  0  0  0  0  0
    5.0849    1.6825   16.7403 H   0  0  0  0  0  0  0  0  0  0  0  0
    3.9796    2.0149   18.9513 H   0  0  0  0  0  0  0  0  0  0  0  0
  1  2  2  0
  2  3  1  0
  3  4  2  0
  4  5  1  0
  5  6  1  0
  6  7  1  0
  7  8  2  0
  8  9  1  0
  9 10  1  0
 10 11  2  0
 11 12  1  0
 12 13  1  0
 13 14  2  0
 14 15  1  0
 15 16  2  0
 16 17  1  0
 17 18  2  0
 18 19  1  0
 17 20  1  0
 16 21  1  0
 13 22  1  0
 12 23  1  0
  9 24  1  0
 24 25  1  0
 25 26  1  0
 26 27  1  0
 27 28  1  0
 28 29  1  0
 29 30  1  0
 30 31  1  0
 30 32  1  1
 29 33  1  0
 29 34  1  0
 28 35  1  0
 28 36  1  0
 27 37  1  6
 26 38  1  0
 26 39  1  0
 25 40  1  1
 24 41  2  0
  6 42  1  0
  6 43  1  0
  5 44  2  0
 44 45  1  0
  4 46  1  0
  2 47  1  0
  1 48  1  0
 44  1  1  0
 41  7  1  0
 18 10  1  0
 30 25  1  0
 15 11  1  0
 31 27  1  0
M  END
>  <cnnaffinity>  (1) 
-6.61053

>  <filename>  (1) 
c1cncc(Cc2nc([C@@H]3C[C@@H]4CC[C@H]3O4)n(-c3cccc4nc[nH]c34)n2)c1

$$$$
