
     RDKit          3D

 45 49  0  0  0  0  0  0  0  0999 V2000
    4.7782    1.3122   19.0353 C   0  0  0  0  0  0  0  0  0  0  0  0
    5.3915    1.3043   17.7798 C   0  0  0  0  0  0  0  0  0  0  0  0
    6.5371    0.6557   17.5200 N   0  0  0  0  0  0  0  0  0  0  0  0
    7.1203    0.0148   18.5408 C   0  0  0  0  0  0  0  0  0  0  0  0
    6.6060   -0.0304   19.8481 C   0  0  0  0  0  0  0  0  0  0  0  0
    7.3865   -0.6513   20.9956 C   0  0  0  0  0  0  0  0  0  0  0  0
    8.2599    0.3453   21.6989 C   0  0  0  0  0  0  0  0  0  0  0  0
    7.8523    1.0718   22.7225 N   0  0  0  0  0  0  0  0  0  0  0  0
    8.9360    1.8274   23.0156 N   0  0  0  0  0  0  0  0  0  0  0  0
    8.8677    2.8568   24.0536 C   0  0  0  0  0  0  0  0  0  0  0  0
    8.3783    4.2150   23.5547 C   0  0  0  0  0  0  0  0  0  0  0  0
    9.0997    5.3996   23.7548 C   0  0  0  0  0  0  0  0  0  0  0  0
    8.5682    6.6180   23.3118 C   0  0  0  0  0  0  0  0  0  0  0  0
    7.3854    6.7317   22.6967 N   0  0  0  0  0  0  0  0  0  0  0  0
    6.7024    5.5956   22.4904 C   0  0  0  0  0  0  0  0  0  0  0  0
    7.1500    4.3346   22.8938 C   0  0  0  0  0  0  0  0  0  0  0  0
    6.5469    3.4601   22.6802 H   0  0  0  0  0  0  0  0  0  0  0  0
    5.7431    5.6892   21.9823 H   0  0  0  0  0  0  0  0  0  0  0  0
    9.1286    7.5402   23.4588 H   0  0  0  0  0  0  0  0  0  0  0  0
   10.0775    5.3951   24.2208 H   0  0  0  0  0  0  0  0  0  0  0  0
    9.8596    2.9719   24.4979 H   0  0  0  0  0  0  0  0  0  0  0  0
    8.1988    2.4789   24.8321 H   0  0  0  0  0  0  0  0  0  0  0  0
    9.9554    1.4866   22.1833 C   0  0  0  0  0  0  0  0  0  0  0  0
   11.2937    2.0722   22.3336 C   0  0  0  0  0  0  0  0  0  0  0  0
   11.4907    3.4646   22.3069 C   0  0  0  0  0  0  0  0  0  0  0  0
   12.7649    4.0402   22.4341 C   0  0  0  0  0  0  0  0  0  0  0  0
   13.8873    3.2440   22.6472 C   0  0  0  0  0  0  0  0  0  0  0  0
   13.6925    1.8546   22.6802 C   0  0  0  0  0  0  0  0  0  0  0  0
   12.4269    1.2554   22.5227 C   0  0  0  0  0  0  0  0  0  0  0  0
   12.5519   -0.1282   22.5114 N   0  0  0  0  0  0  0  0  0  0  0  0
   13.8279   -0.3467   22.5962 C   0  0  0  0  0  0  0  0  0  0  0  0
   14.5754    0.7921   22.7386 N   0  0  0  0  0  0  0  0  0  0  0  0
   15.5702    0.8674   22.6275 H   0  0  0  0  0  0  0  0  0  0  0  0
   14.2956   -1.3228   22.5162 H   0  0  0  0  0  0  0  0  0  0  0  0
   14.8728    3.6811   22.7526 H   0  0  0  0  0  0  0  0  0  0  0  0
   12.8712    5.1160   22.3122 H   0  0  0  0  0  0  0  0  0  0  0  0
   10.6254    4.1025   22.1953 H   0  0  0  0  0  0  0  0  0  0  0  0
    9.5355    0.5798   21.3123 N   0  0  0  0  0  0  0  0  0  0  0  0
    6.6993   -1.0710   21.7350 H   0  0  0  0  0  0  0  0  0  0  0  0
    8.0203   -1.4713   20.6398 H   0  0  0  0  0  0  0  0  0  0  0  0
    5.3983    0.6380   20.0888 C   0  0  0  0  0  0  0  0  0  0  0  0
    4.9553    0.6464   21.0878 H   0  0  0  0  0  0  0  0  0  0  0  0
    8.0589   -0.4907   18.3095 H   0  0  0  0  0  0  0  0  0  0  0  0
    4.9467    1.8486   16.9481 H   0  0  0  0  0  0  0  0  0  0  0  0
    3.8548    1.8634   19.1796 H   0  0  0  0  0  0  0  0  0  0  0  0
  1  2  2  0
  2  3  1  0
  3  4  2  0
  4  5  1  0
  5  6  1  0
  6  7  1  0
  7  8  2  0
  8  9  1  0
  9 10  1  0
 10 11  1  0
 11 12  2  0
 12 13  1  0
 13 14  2  0
 14 15  1  0
 15 16  2  0
 16 17  1  0
 15 18  1  0
 13 19  1  0
 12 20  1  0
 10 21  1  0
 10 22  1  0
  9 23  1  0
 23 24  1  0
 24 25  2  0
 25 26  1  0
 26 27  2  0
 27 28  1  0
 28 29  2  0
 29 30  1  0
 30 31  2  0
 31 32  1  0
 32 33  1  0
 31 34  1  0
 27 35  1  0
 26 36  1  0
 25 37  1  0
 23 38  2  0
  6 39  1  0
  6 40  1  0
  5 41  2  0
 41 42  1  0
  4 43  1  0
  2 44  1  0
  1 45  1  0
 41  1  1  0
 38  7  1  0
 16 11  1  0
 29 24  1  0
 32 28  1  0
M  END
>  <cnnaffinity>  (1) 
-6.6105

>  <filename>  (1) 
c1cncc(Cc2nc(-c3cccc4[nH]cnc34)n(Cc3ccncc3)n2)c1

$$$$
