
     RDKit          3D

 39 43  0  0  0  0  0  0  0  0999 V2000
    4.7100    1.4261   18.9013 C   0  0  0  0  0  0  0  0  0  0  0  0
    5.3764    1.3728   17.6714 C   0  0  0  0  0  0  0  0  0  0  0  0
    6.5262    0.7093   17.4782 N   0  0  0  0  0  0  0  0  0  0  0  0
    7.0633    0.0880   18.5302 C   0  0  0  0  0  0  0  0  0  0  0  0
    6.4850    0.1000   19.8012 C   0  0  0  0  0  0  0  0  0  0  0  0
    7.2027   -0.5935   20.8550 C   0  0  0  0  0  0  0  0  0  0  0  0
    6.7691   -0.6256   22.0982 N   0  0  0  0  0  0  0  0  0  0  0  0
    7.6997   -1.3990   22.7057 N   0  0  0  0  0  0  0  0  0  0  0  0
    7.6001   -1.8308   24.0463 C   0  0  0  0  0  0  0  0  0  0  0  0
    7.6702   -3.1839   24.3306 C   0  0  0  0  0  0  0  0  0  0  0  0
    7.5158   -3.6291   25.6603 C   0  0  0  0  0  0  0  0  0  0  0  0
    7.2891   -2.7263   26.6753 C   0  0  0  0  0  0  0  0  0  0  0  0
    7.2810   -1.3265   26.4144 C   0  0  0  0  0  0  0  0  0  0  0  0
    7.0966   -0.3389   27.4242 C   0  0  0  0  0  0  0  0  0  0  0  0
    7.2513    0.9839   27.1036 C   0  0  0  0  0  0  0  0  0  0  0  0
    7.5434    1.4534   25.8660 N   0  0  0  0  0  0  0  0  0  0  0  0
    7.6556    0.5614   24.9018 C   0  0  0  0  0  0  0  0  0  0  0  0
    7.4977   -0.8541   25.0852 C   0  0  0  0  0  0  0  0  0  0  0  0
    7.8850    0.9472   23.9108 H   0  0  0  0  0  0  0  0  0  0  0  0
    7.1563    1.7465   27.8691 H   0  0  0  0  0  0  0  0  0  0  0  0
    6.8427   -0.6214   28.4357 H   0  0  0  0  0  0  0  0  0  0  0  0
    7.1204   -3.0697   27.6825 H   0  0  0  0  0  0  0  0  0  0  0  0
    7.5814   -4.6907   25.8831 H   0  0  0  0  0  0  0  0  0  0  0  0
    7.8457   -3.9029   23.5374 H   0  0  0  0  0  0  0  0  0  0  0  0
    8.6811   -1.7199   21.8229 C   0  0  0  0  0  0  0  0  0  0  0  0
    9.8781   -2.4520   22.2907 C   0  0  0  0  0  0  0  0  0  0  0  0
   11.2801   -1.9039   22.2216 C   0  0  0  0  0  0  0  0  0  0  0  0
   10.6027   -2.0542   23.5528 C   0  0  0  0  0  0  0  0  0  0  0  0
   10.2322   -1.1756   24.0844 H   0  0  0  0  0  0  0  0  0  0  0  0
   10.9295   -2.8574   24.2091 H   0  0  0  0  0  0  0  0  0  0  0  0
   11.4118   -0.9052   21.8149 H   0  0  0  0  0  0  0  0  0  0  0  0
   12.0927   -2.5815   21.9739 H   0  0  0  0  0  0  0  0  0  0  0  0
    9.7469   -3.5220   22.2055 H   0  0  0  0  0  0  0  0  0  0  0  0
    8.3681   -1.2619   20.6292 N   0  0  0  0  0  0  0  0  0  0  0  0
    5.2681    0.7767   19.9980 C   0  0  0  0  0  0  0  0  0  0  0  0
    4.7872    0.7986   20.9789 H   0  0  0  0  0  0  0  0  0  0  0  0
    7.9981   -0.4464   18.3625 H   0  0  0  0  0  0  0  0  0  0  0  0
    4.9748    1.8864   16.8011 H   0  0  0  0  0  0  0  0  0  0  0  0
    3.7851    1.9872   18.9821 H   0  0  0  0  0  0  0  0  0  0  0  0
  1  2  2  0
  2  3  1  0
  3  4  2  0
  4  5  1  0
  5  6  1  0
  6  7  2  0
  7  8  1  0
  8  9  1  0
  9 10  2  0
 10 11  1  0
 11 12  2  0
 12 13  1  0
 13 14  2  0
 14 15  1  0
 15 16  2  0
 16 17  1  0
 17 18  2  0
 17 19  1  0
 15 20  1  0
 14 21  1  0
 12 22  1  0
 11 23  1  0
 10 24  1  0
  8 25  1  0
 25 26  1  0
 26 27  1  0
 27 28  1  0
 28 29  1  0
 28 30  1  0
 27 31  1  0
 27 32  1  0
 26 33  1  0
 25 34  2  0
  5 35  2  0
 35 36  1  0
  4 37  1  0
  2 38  1  0
  1 39  1  0
 35  1  1  0
 34  6  1  0
 18  9  1  0
 28 26  1  0
 18 13  1  0
M  END
>  <cnnaffinity>  (1) 
-6.07298

>  <filename>  (1) 
c1cncc(-c2nc(C3CC3)n(-c3cccc4ccncc34)n2)c1

$$$$
