
     RDKit          3D

 32 35  0  0  0  0  0  0  0  0999 V2000
    8.6163   -3.6971   21.4336 H   0  0  0  0  0  0  0  0  0  0  0  0
    8.3359   -2.6733   21.6549 C   0  0  0  0  0  0  0  0  0  0  0  0
    8.6161   -2.2313   22.8800 N   0  0  0  0  0  0  0  0  0  0  0  0
    8.2690   -0.9713   23.1306 C   0  0  0  0  0  0  0  0  0  0  0  0
    8.5132   -0.5933   24.1216 H   0  0  0  0  0  0  0  0  0  0  0  0
    7.6584   -0.1281   22.2056 C   0  0  0  0  0  0  0  0  0  0  0  0
    7.3790    1.3043   22.5412 C   0  0  0  0  0  0  0  0  0  0  0  0
    7.8447    2.3341   21.7028 C   0  0  0  0  0  0  0  0  0  0  0  0
    8.4029    2.0657   20.8075 H   0  0  0  0  0  0  0  0  0  0  0  0
    7.5861    3.6867   21.9948 C   0  0  0  0  0  0  0  0  0  0  0  0
    7.9410    4.4929   21.3603 H   0  0  0  0  0  0  0  0  0  0  0  0
    6.8543    3.9681   23.1312 C   0  0  0  0  0  0  0  0  0  0  0  0
    6.3917    2.9542   23.9732 C   0  0  0  0  0  0  0  0  0  0  0  0
    6.6437    1.6249   23.7065 C   0  0  0  0  0  0  0  0  0  0  0  0
    6.2749    0.8424   24.3631 H   0  0  0  0  0  0  0  0  0  0  0  0
    5.7150    3.5065   25.0266 O   0  0  0  0  0  0  0  0  0  0  0  0
    5.7544    4.9185   24.8230 C   0  0  0  0  0  0  0  0  0  0  0  0
    6.2537    5.3980   25.6695 H   0  0  0  0  0  0  0  0  0  0  0  0
    4.7354    5.3054   24.7330 H   0  0  0  0  0  0  0  0  0  0  0  0
    6.4793    5.1866   23.6256 O   0  0  0  0  0  0  0  0  0  0  0  0
    7.3895   -0.7319   20.9567 C   0  0  0  0  0  0  0  0  0  0  0  0
    6.6508   -0.0134   19.9041 C   0  0  0  0  0  0  0  0  0  0  0  0
    7.1737    0.0416   18.6103 C   0  0  0  0  0  0  0  0  0  0  0  0
    8.1230   -0.4385   18.3754 H   0  0  0  0  0  0  0  0  0  0  0  0
    6.5777    0.6741   17.5955 N   0  0  0  0  0  0  0  0  0  0  0  0
    5.4091    1.2873   17.8487 C   0  0  0  0  0  0  0  0  0  0  0  0
    4.9211    1.7748   17.0047 H   0  0  0  0  0  0  0  0  0  0  0  0
    4.8077    1.3017   19.1118 C   0  0  0  0  0  0  0  0  0  0  0  0
    3.8768    1.8414   19.2607 H   0  0  0  0  0  0  0  0  0  0  0  0
    5.4374    0.6421   20.1643 C   0  0  0  0  0  0  0  0  0  0  0  0
    5.0077    0.6384   21.1702 H   0  0  0  0  0  0  0  0  0  0  0  0
    7.7593   -1.9852   20.6772 N   0  0  0  0  0  0  0  0  0  0  0  0
  1  2  1  0
  2  3  2  0
  3  4  1  0
  4  5  1  0
  4  6  2  0
  6  7  1  0
  7  8  2  0
  8  9  1  0
  8 10  1  0
 10 11  1  0
 10 12  2  0
 12 13  1  0
 13 14  2  0
 14 15  1  0
 13 16  1  0
 16 17  1  0
 17 18  1  0
 17 19  1  0
 17 20  1  0
  6 21  1  0
 21 22  1  0
 22 23  2  0
 23 24  1  0
 23 25  1  0
 25 26  2  0
 26 27  1  0
 26 28  1  0
 28 29  1  0
 28 30  2  0
 30 31  1  0
 21 32  2  0
 32  2  1  0
 14  7  1  0
 30 22  1  0
 20 12  1  0
M  END
>  <cnnaffinity>  (1) 
-4.91027

>  <filename>  (1) 
c1cncc(-c2ncncc2-c2ccc3c(c2)OCO3)c1

$$$$
