
     RDKit          3D

 31 34  0  0  0  0  0  0  0  0999 V2000
    4.9352    1.8031   16.9805 H   0  0  0  0  0  0  0  0  0  0  0  0
    5.3895    1.2827   17.8220 C   0  0  0  0  0  0  0  0  0  0  0  0
    6.5533    0.6617   17.5760 N   0  0  0  0  0  0  0  0  0  0  0  0
    7.1634    0.0438   18.5924 C   0  0  0  0  0  0  0  0  0  0  0  0
    8.1224   -0.4206   18.3658 H   0  0  0  0  0  0  0  0  0  0  0  0
    6.6465    0.0087   19.9026 C   0  0  0  0  0  0  0  0  0  0  0  0
    7.3419   -0.6784   20.9449 N   0  0  0  0  0  0  0  0  0  0  0  0
    7.7009   -0.2660   22.2159 C   0  0  0  0  0  0  0  0  0  0  0  0
    7.6005    1.0888   22.7284 C   0  0  0  0  0  0  0  0  0  0  0  0
    7.6840    2.5004   21.6994 S   0  0  0  0  0  0  0  0  0  0  0  0
    7.5658    3.5575   23.0739 C   0  0  0  0  0  0  0  0  0  0  0  0
    7.5472    4.9626   23.0697 C   0  0  0  0  0  0  0  0  0  0  0  0
    7.5753    5.5201   22.1360 H   0  0  0  0  0  0  0  0  0  0  0  0
    7.4917    5.6201   24.2936 C   0  0  0  0  0  0  0  0  0  0  0  0
    7.4835    6.7040   24.3090 H   0  0  0  0  0  0  0  0  0  0  0  0
    7.4486    4.9019   25.5073 C   0  0  0  0  0  0  0  0  0  0  0  0
    7.4118    5.4401   26.4487 H   0  0  0  0  0  0  0  0  0  0  0  0
    7.4516    3.5179   25.5065 C   0  0  0  0  0  0  0  0  0  0  0  0
    7.4239    2.9489   26.4285 H   0  0  0  0  0  0  0  0  0  0  0  0
    7.5017    2.8247   24.2805 C   0  0  0  0  0  0  0  0  0  0  0  0
    7.5276    1.4170   24.0456 C   0  0  0  0  0  0  0  0  0  0  0  0
    7.5158    0.6632   24.8253 H   0  0  0  0  0  0  0  0  0  0  0  0
    8.1872   -1.2673   22.9202 N   0  0  0  0  0  0  0  0  0  0  0  0
    8.1622   -2.3573   22.1048 C   0  0  0  0  0  0  0  0  0  0  0  0
    8.5356   -3.3153   22.4464 H   0  0  0  0  0  0  0  0  0  0  0  0
    7.6230   -2.0235   20.8956 C   0  0  0  0  0  0  0  0  0  0  0  0
    7.2540   -2.5815   20.0597 H   0  0  0  0  0  0  0  0  0  0  0  0
    5.4147    0.6249   20.1422 C   0  0  0  0  0  0  0  0  0  0  0  0
    4.9969    0.6177   21.1484 H   0  0  0  0  0  0  0  0  0  0  0  0
    4.7875    1.2876   19.0838 C   0  0  0  0  0  0  0  0  0  0  0  0
    3.8686    1.8396   19.2368 H   0  0  0  0  0  0  0  0  0  0  0  0
  1  2  1  0
  2  3  2  0
  3  4  1  0
  4  5  1  0
  4  6  2  0
  6  7  1  0
  7  8  1  0
  8  9  1  0
  9 10  1  0
 10 11  1  0
 11 12  2  0
 12 13  1  0
 12 14  1  0
 14 15  1  0
 14 16  2  0
 16 17  1  0
 16 18  1  0
 18 19  1  0
 18 20  2  0
 20 21  1  0
 21 22  1  0
  8 23  2  0
 23 24  1  0
 24 25  1  0
 24 26  2  0
 26 27  1  0
  6 28  1  0
 28 29  1  0
 28 30  2  0
 30 31  1  0
 30  2  1  0
 26  7  1  0
 21  9  2  0
 20 11  1  0
M  END
>  <cnnaffinity>  (1) 
-5.14819

>  <filename>  (1) 
c1cncc(-n2ccnc2-c2cc3ccccc3s2)c1

$$$$
