
     RDKit          3D

 29 31  0  0  0  0  0  0  0  0999 V2000
    4.9462    1.8418   16.9926 H   0  0  0  0  0  0  0  0  0  0  0  0
    5.4030    1.2929   17.8149 C   0  0  0  0  0  0  0  0  0  0  0  0
    6.5519    0.6549   17.5402 N   0  0  0  0  0  0  0  0  0  0  0  0
    7.1565    0.0087   18.5459 C   0  0  0  0  0  0  0  0  0  0  0  0
    8.0893   -0.4992   18.2990 H   0  0  0  0  0  0  0  0  0  0  0  0
    6.6595   -0.0455   19.8649 C   0  0  0  0  0  0  0  0  0  0  0  0
    7.5755   -0.9058   21.1419 S   0  0  0  0  0  0  0  0  0  0  0  0
    8.6502    0.4668   21.7368 C   0  0  0  0  0  0  0  0  0  0  0  0
    9.1805    0.8624   20.8626 H   0  0  0  0  0  0  0  0  0  0  0  0
    9.4049   -0.0087   22.3758 H   0  0  0  0  0  0  0  0  0  0  0  0
    7.8885    1.5692   22.4031 C   0  0  0  0  0  0  0  0  0  0  0  0
    7.6835    2.7949   21.8528 C   0  0  0  0  0  0  0  0  0  0  0  0
    8.2094    3.2234   21.0175 H   0  0  0  0  0  0  0  0  0  0  0  0
    6.8134    3.5291   22.6249 N   0  0  0  0  0  0  0  0  0  0  0  0
    6.3886    4.3846   22.3154 H   0  0  0  0  0  0  0  0  0  0  0  0
    6.4694    2.7901   23.7363 C   0  0  0  0  0  0  0  0  0  0  0  0
    5.6888    3.1078   24.8688 C   0  0  0  0  0  0  0  0  0  0  0  0
    5.1651    4.0535   24.9633 H   0  0  0  0  0  0  0  0  0  0  0  0
    5.6193    2.1656   25.8880 C   0  0  0  0  0  0  0  0  0  0  0  0
    5.0477    2.3970   26.7826 H   0  0  0  0  0  0  0  0  0  0  0  0
    6.2866    0.9230   25.8005 C   0  0  0  0  0  0  0  0  0  0  0  0
    6.2144    0.2221   26.6244 H   0  0  0  0  0  0  0  0  0  0  0  0
    7.0399    0.6026   24.6781 C   0  0  0  0  0  0  0  0  0  0  0  0
    7.5494   -0.3533   24.5979 H   0  0  0  0  0  0  0  0  0  0  0  0
    7.1433    1.5444   23.6343 C   0  0  0  0  0  0  0  0  0  0  0  0
    5.4413    0.6057   20.1259 C   0  0  0  0  0  0  0  0  0  0  0  0
    5.0165    0.5867   21.1317 H   0  0  0  0  0  0  0  0  0  0  0  0
    4.8045    1.2847   19.0793 C   0  0  0  0  0  0  0  0  0  0  0  0
    3.8651    1.8070   19.2304 H   0  0  0  0  0  0  0  0  0  0  0  0
  1  2  1  0
  2  3  2  0
  3  4  1  0
  4  5  1  0
  4  6  2  0
  6  7  1  0
  7  8  1  0
  8  9  1  0
  8 10  1  0
  8 11  1  0
 11 12  2  0
 12 13  1  0
 12 14  1  0
 14 15  1  0
 14 16  1  0
 16 17  2  0
 17 18  1  0
 17 19  1  0
 19 20  1  0
 19 21  2  0
 21 22  1  0
 21 23  1  0
 23 24  1  0
 23 25  2  0
  6 26  1  0
 26 27  1  0
 26 28  2  0
 28 29  1  0
 28  2  1  0
 25 11  1  0
 25 16  1  0
M  END
>  <cnnaffinity>  (1) 
-4.75167

>  <filename>  (1) 
c1cncc(SCc2c[nH]c3ccccc23)c1

$$$$
