
     RDKit          3D

 42 46  0  0  0  0  0  0  0  0999 V2000
    4.7884    1.3038   19.0105 C   0  0  0  0  0  0  0  0  0  0  0  0
    5.3893    1.3063   17.7483 C   0  0  0  0  0  0  0  0  0  0  0  0
    6.5211    0.6420   17.4645 N   0  0  0  0  0  0  0  0  0  0  0  0
    7.1061   -0.0272   18.4661 C   0  0  0  0  0  0  0  0  0  0  0  0
    6.6091   -0.0788   19.7798 C   0  0  0  0  0  0  0  0  0  0  0  0
    7.3771   -0.7281   20.9282 C   0  0  0  0  0  0  0  0  0  0  0  0
    8.1932    0.2637   21.7067 C   0  0  0  0  0  0  0  0  0  0  0  0
    7.6570    1.1025   22.5624 N   0  0  0  0  0  0  0  0  0  0  0  0
    8.7014    1.8941   22.9293 N   0  0  0  0  0  0  0  0  0  0  0  0
    8.4638    2.8998   23.9069 C   0  0  0  0  0  0  0  0  0  0  0  0
    7.2359    3.5579   23.9430 C   0  0  0  0  0  0  0  0  0  0  0  0
    7.0552    4.5525   24.9059 C   0  0  0  0  0  0  0  0  0  0  0  0
    7.9946    4.8739   25.8044 N   0  0  0  0  0  0  0  0  0  0  0  0
    9.1586    4.2257   25.7883 N   0  0  0  0  0  0  0  0  0  0  0  0
    9.4025    3.2684   24.8870 C   0  0  0  0  0  0  0  0  0  0  0  0
   10.3918    2.8160   24.9454 H   0  0  0  0  0  0  0  0  0  0  0  0
    6.1361    5.1279   24.9766 H   0  0  0  0  0  0  0  0  0  0  0  0
    6.4546    3.2900   23.2396 H   0  0  0  0  0  0  0  0  0  0  0  0
    9.8264    1.4734   22.2548 C   0  0  0  0  0  0  0  0  0  0  0  0
   11.1427    2.1235   22.3284 C   0  0  0  0  0  0  0  0  0  0  0  0
   11.2977    3.5204   22.3343 C   0  0  0  0  0  0  0  0  0  0  0  0
   12.5596    4.1160   22.4971 C   0  0  0  0  0  0  0  0  0  0  0  0
   13.7024    3.3493   22.6698 C   0  0  0  0  0  0  0  0  0  0  0  0
   13.5596    1.9542   22.6033 C   0  0  0  0  0  0  0  0  0  0  0  0
   12.3119    1.3202   22.3820 C   0  0  0  0  0  0  0  0  0  0  0  0
   12.5888   -0.0953   22.2971 C   0  0  0  0  0  0  0  0  0  0  0  0
   13.9342   -0.2600   22.4461 C   0  0  0  0  0  0  0  0  0  0  0  0
   14.5199    0.9725   22.6485 N   0  0  0  0  0  0  0  0  0  0  0  0
   15.5045    1.1686   22.6556 H   0  0  0  0  0  0  0  0  0  0  0  0
   14.5378   -1.1593   22.4126 H   0  0  0  0  0  0  0  0  0  0  0  0
   11.8531   -0.8688   22.1306 H   0  0  0  0  0  0  0  0  0  0  0  0
   14.6637    3.8211   22.8359 H   0  0  0  0  0  0  0  0  0  0  0  0
   12.6401    5.1971   22.4725 H   0  0  0  0  0  0  0  0  0  0  0  0
   10.4305    4.1648   22.2613 H   0  0  0  0  0  0  0  0  0  0  0  0
    9.5201    0.4231   21.5060 N   0  0  0  0  0  0  0  0  0  0  0  0
    8.0669   -1.4970   20.5717 H   0  0  0  0  0  0  0  0  0  0  0  0
    6.6724   -1.2030   21.6194 H   0  0  0  0  0  0  0  0  0  0  0  0
    5.4105    0.5979   20.0430 C   0  0  0  0  0  0  0  0  0  0  0  0
    4.9964    0.5827   21.0534 H   0  0  0  0  0  0  0  0  0  0  0  0
    8.0300   -0.5506   18.2145 H   0  0  0  0  0  0  0  0  0  0  0  0
    4.9468    1.8651   16.9255 H   0  0  0  0  0  0  0  0  0  0  0  0
    3.8735    1.8649   19.1744 H   0  0  0  0  0  0  0  0  0  0  0  0
  1  2  2  0
  2  3  1  0
  3  4  2  0
  4  5  1  0
  5  6  1  0
  6  7  1  0
  7  8  2  0
  8  9  1  0
  9 10  1  0
 10 11  2  0
 11 12  1  0
 12 13  2  0
 13 14  1  0
 14 15  2  0
 15 16  1  0
 12 17  1  0
 11 18  1  0
  9 19  1  0
 19 20  1  0
 20 21  2  0
 21 22  1  0
 22 23  2  0
 23 24  1  0
 24 25  2  0
 25 26  1  0
 26 27  2  0
 27 28  1  0
 28 29  1  0
 27 30  1  0
 26 31  1  0
 23 32  1  0
 22 33  1  0
 21 34  1  0
 19 35  2  0
  6 36  1  0
  6 37  1  0
  5 38  2  0
 38 39  1  0
  4 40  1  0
  2 41  1  0
  1 42  1  0
 38  1  1  0
 35  7  1  0
 15 10  1  0
 25 20  1  0
 28 24  1  0
M  END
>  <cnnaffinity>  (1) 
-6.55889

>  <filename>  (1) 
c1cncc(Cc2nc(-c3cccc4[nH]ccc34)n(-c3ccnnc3)n2)c1

$$$$
