
     RDKit          3D

 35 37  0  0  0  0  0  0  0  0999 V2000
    4.9184    1.7873   16.9905 H   0  0  0  0  0  0  0  0  0  0  0  0
    5.3969    1.2972   17.8352 C   0  0  0  0  0  0  0  0  0  0  0  0
    6.5625    0.6809   17.5752 N   0  0  0  0  0  0  0  0  0  0  0  0
    7.1685    0.0621   18.5935 C   0  0  0  0  0  0  0  0  0  0  0  0
    8.1155   -0.4236   18.3659 H   0  0  0  0  0  0  0  0  0  0  0  0
    6.6663    0.0135   19.9129 C   0  0  0  0  0  0  0  0  0  0  0  0
    7.3773   -0.6841   21.0015 C   0  0  0  0  0  0  0  0  0  0  0  0
    8.1566   -2.2022   20.8094 S   0  0  0  0  0  0  0  0  0  0  0  0
    8.6320   -2.3932   22.3816 N   0  0  0  0  0  0  0  0  0  0  0  0
    8.2447   -1.3424   23.0502 C   0  0  0  0  0  0  0  0  0  0  0  0
    8.4772   -1.2859   24.1096 H   0  0  0  0  0  0  0  0  0  0  0  0
    7.5282   -0.3189   22.3244 C   0  0  0  0  0  0  0  0  0  0  0  0
    7.0174    0.8543   22.8525 N   0  0  0  0  0  0  0  0  0  0  0  0
    6.9754    1.6279   22.2033 H   0  0  0  0  0  0  0  0  0  0  0  0
    6.9445    1.1518   24.2675 C   0  0  0  0  0  0  0  0  0  0  0  0
    6.7927    0.1855   24.7692 H   0  0  0  0  0  0  0  0  0  0  0  0
    5.7169    2.0268   24.5404 C   0  0  0  0  0  0  0  0  0  0  0  0
    5.8204    2.9495   23.9514 H   0  0  0  0  0  0  0  0  0  0  0  0
    4.8222    1.5145   24.1680 H   0  0  0  0  0  0  0  0  0  0  0  0
    5.5757    2.3641   26.0309 C   0  0  0  0  0  0  0  0  0  0  0  0
    4.7173    3.0248   26.1886 H   0  0  0  0  0  0  0  0  0  0  0  0
    5.3590    1.4423   26.5891 H   0  0  0  0  0  0  0  0  0  0  0  0
    6.8590    2.9992   26.5881 C   0  0  0  0  0  0  0  0  0  0  0  0
    7.0059    3.9777   26.1098 H   0  0  0  0  0  0  0  0  0  0  0  0
    6.7560    3.1943   27.6625 H   0  0  0  0  0  0  0  0  0  0  0  0
    8.0932    2.1229   26.3171 C   0  0  0  0  0  0  0  0  0  0  0  0
    8.0099    1.1926   26.8971 H   0  0  0  0  0  0  0  0  0  0  0  0
    9.0003    2.6227   26.6709 H   0  0  0  0  0  0  0  0  0  0  0  0
    8.2291    1.7867   24.8253 C   0  0  0  0  0  0  0  0  0  0  0  0
    9.0762    1.1141   24.6444 H   0  0  0  0  0  0  0  0  0  0  0  0
    8.4348    2.7058   24.2595 H   0  0  0  0  0  0  0  0  0  0  0  0
    5.4403    0.6604   20.1544 C   0  0  0  0  0  0  0  0  0  0  0  0
    5.0147    0.6232   21.1565 H   0  0  0  0  0  0  0  0  0  0  0  0
    4.8000    1.3119   19.0994 C   0  0  0  0  0  0  0  0  0  0  0  0
    3.8701    1.8437   19.2526 H   0  0  0  0  0  0  0  0  0  0  0  0
  1  2  1  0
  2  3  2  0
  3  4  1  0
  4  5  1  0
  4  6  2  0
  6  7  1  0
  7  8  1  0
  8  9  1  0
  9 10  2  0
 10 11  1  0
 10 12  1  0
 12 13  1  0
 13 14  1  0
 13 15  1  0
 15 16  1  0
 15 17  1  0
 17 18  1  0
 17 19  1  0
 17 20  1  0
 20 21  1  0
 20 22  1  0
 20 23  1  0
 23 24  1  0
 23 25  1  0
 23 26  1  0
 26 27  1  0
 26 28  1  0
 26 29  1  0
 29 30  1  0
 29 31  1  0
  6 32  1  0
 32 33  1  0
 32 34  2  0
 34 35  1  0
 34  2  1  0
 12  7  2  0
 29 15  1  0
M  END
>  <cnnaffinity>  (1) 
-4.91961

>  <filename>  (1) 
c1cncc(-c2sncc2NC2CCCCC2)c1

$$$$
