
     RDKit          3D

 39 41  0  0  0  0  0  0  0  0999 V2000
    4.9156    1.7819   16.9934 H   0  0  0  0  0  0  0  0  0  0  0  0
    5.3966    1.2905   17.8362 C   0  0  0  0  0  0  0  0  0  0  0  0
    6.5592    0.6742   17.5741 N   0  0  0  0  0  0  0  0  0  0  0  0
    7.1692    0.0653   18.6001 C   0  0  0  0  0  0  0  0  0  0  0  0
    8.1152   -0.4260   18.3693 H   0  0  0  0  0  0  0  0  0  0  0  0
    6.6728    0.0293   19.9099 C   0  0  0  0  0  0  0  0  0  0  0  0
    7.3873   -0.7349   20.9915 C   0  0  0  0  0  0  0  0  0  0  0  0
    8.4757   -0.6684   20.8301 H   0  0  0  0  0  0  0  0  0  0  0  0
    7.1872   -0.2529   21.9625 H   0  0  0  0  0  0  0  0  0  0  0  0
    6.9658   -2.1822   21.0431 C   0  0  0  0  0  0  0  0  0  0  0  0
    6.0039   -2.8876   20.2872 C   0  0  0  0  0  0  0  0  0  0  0  0
    5.3953   -2.4784   19.4906 H   0  0  0  0  0  0  0  0  0  0  0  0
    5.8873   -4.1582   20.6325 N   0  0  0  0  0  0  0  0  0  0  0  0
    6.7952   -4.2844   21.6416 N   0  0  0  0  0  0  0  0  0  0  0  0
    6.9483   -5.1634   22.1040 H   0  0  0  0  0  0  0  0  0  0  0  0
    7.4582   -3.1349   21.9094 C   0  0  0  0  0  0  0  0  0  0  0  0
    8.4443   -3.0009   22.8490 N   0  0  0  0  0  0  0  0  0  0  0  0
    8.8445   -2.0816   22.9251 H   0  0  0  0  0  0  0  0  0  0  0  0
    8.8282   -3.9992   23.8278 C   0  0  0  0  0  0  0  0  0  0  0  0
    8.9467   -4.9481   23.2876 H   0  0  0  0  0  0  0  0  0  0  0  0
    7.7547   -4.1912   24.9153 C   0  0  0  0  0  0  0  0  0  0  0  0
    6.8048   -4.4548   24.4401 H   0  0  0  0  0  0  0  0  0  0  0  0
    7.5936   -3.2268   25.4161 H   0  0  0  0  0  0  0  0  0  0  0  0
    8.1699   -5.2458   25.9475 C   0  0  0  0  0  0  0  0  0  0  0  0
    8.2284   -6.2298   25.4603 H   0  0  0  0  0  0  0  0  0  0  0  0
    7.4081   -5.3297   26.7295 H   0  0  0  0  0  0  0  0  0  0  0  0
    9.5328   -4.9155   26.5668 C   0  0  0  0  0  0  0  0  0  0  0  0
    9.4511   -3.9924   27.1590 H   0  0  0  0  0  0  0  0  0  0  0  0
    9.8407   -5.6995   27.2675 H   0  0  0  0  0  0  0  0  0  0  0  0
   10.6009   -4.7208   25.4848 C   0  0  0  0  0  0  0  0  0  0  0  0
   10.7875   -5.6743   24.9727 H   0  0  0  0  0  0  0  0  0  0  0  0
   11.5418   -4.4658   25.9617 H   0  0  0  0  0  0  0  0  0  0  0  0
   10.1887   -3.6569   24.4531 C   0  0  0  0  0  0  0  0  0  0  0  0
   10.9516   -3.5644   23.6704 H   0  0  0  0  0  0  0  0  0  0  0  0
   10.1170   -2.6764   24.9471 H   0  0  0  0  0  0  0  0  0  0  0  0
    5.4451    0.6588   20.1555 C   0  0  0  0  0  0  0  0  0  0  0  0
    5.0091    0.6332   21.1571 H   0  0  0  0  0  0  0  0  0  0  0  0
    4.8019    1.3103   19.1013 C   0  0  0  0  0  0  0  0  0  0  0  0
    3.8710    1.8431   19.2550 H   0  0  0  0  0  0  0  0  0  0  0  0
  1  2  1  0
  2  3  2  0
  3  4  1  0
  4  5  1  0
  4  6  2  0
  6  7  1  0
  7  8  1  0
  7  9  1  0
  7 10  1  0
 10 11  1  0
 11 12  1  0
 11 13  2  0
 13 14  1  0
 14 15  1  0
 14 16  1  0
 16 17  1  0
 17 18  1  0
 17 19  1  0
 19 20  1  0
 19 21  1  0
 21 22  1  0
 21 23  1  0
 21 24  1  0
 24 25  1  0
 24 26  1  0
 24 27  1  0
 27 28  1  0
 27 29  1  0
 27 30  1  0
 30 31  1  0
 30 32  1  0
 30 33  1  0
 33 34  1  0
 33 35  1  0
  6 36  1  0
 36 37  1  0
 36 38  2  0
 38 39  1  0
 38  2  1  0
 16 10  2  0
 33 19  1  0
M  END
>  <cnnaffinity>  (1) 
-4.48503

>  <filename>  (1) 
c1cncc(Cc2cn[nH]c2NC2CCCCC2)c1

$$$$
