
     RDKit          3D

 34 37  0  0  0  0  0  0  0  0999 V2000
    4.9178    1.7868   16.9868 H   0  0  0  0  0  0  0  0  0  0  0  0
    5.4007    1.2972   17.8282 C   0  0  0  0  0  0  0  0  0  0  0  0
    6.5598    0.6755   17.5613 N   0  0  0  0  0  0  0  0  0  0  0  0
    7.1654    0.0752   18.5926 C   0  0  0  0  0  0  0  0  0  0  0  0
    8.1044   -0.4221   18.3663 H   0  0  0  0  0  0  0  0  0  0  0  0
    6.6556    0.0140   19.9021 C   0  0  0  0  0  0  0  0  0  0  0  0
    7.3881   -0.7091   20.9756 C   0  0  0  0  0  0  0  0  0  0  0  0
    8.7732   -0.5441   21.1257 C   0  0  0  0  0  0  0  0  0  0  0  0
    9.2989    0.1270   20.4519 H   0  0  0  0  0  0  0  0  0  0  0  0
    9.4469   -1.2067   22.1535 C   0  0  0  0  0  0  0  0  0  0  0  0
   10.5194   -1.0767   22.2690 H   0  0  0  0  0  0  0  0  0  0  0  0
    8.7406   -2.0454   23.0207 C   0  0  0  0  0  0  0  0  0  0  0  0
    9.2709   -2.5487   23.8201 H   0  0  0  0  0  0  0  0  0  0  0  0
    7.3533   -2.2360   22.8805 C   0  0  0  0  0  0  0  0  0  0  0  0
    6.6321   -3.1384   23.8069 C   0  0  0  0  0  0  0  0  0  0  0  0
    4.8806   -3.1460   23.8944 S   0  0  0  0  0  0  0  0  0  0  0  0
    4.8717   -4.3593   25.1257 C   0  0  0  0  0  0  0  0  0  0  0  0
    3.7592   -4.9256   25.7727 C   0  0  0  0  0  0  0  0  0  0  0  0
    2.7488   -4.5922   25.5402 H   0  0  0  0  0  0  0  0  0  0  0  0
    3.9901   -5.9269   26.7134 C   0  0  0  0  0  0  0  0  0  0  0  0
    3.1487   -6.3862   27.2267 H   0  0  0  0  0  0  0  0  0  0  0  0
    5.3064   -6.3604   27.0147 C   0  0  0  0  0  0  0  0  0  0  0  0
    5.4659   -7.1442   27.7523 H   0  0  0  0  0  0  0  0  0  0  0  0
    6.4006   -5.7917   26.3774 C   0  0  0  0  0  0  0  0  0  0  0  0
    7.4217   -6.1075   26.5933 H   0  0  0  0  0  0  0  0  0  0  0  0
    6.1901   -4.7755   25.4212 C   0  0  0  0  0  0  0  0  0  0  0  0
    7.1635   -4.0602   24.6506 C   0  0  0  0  0  0  0  0  0  0  0  0
    8.2286   -4.2651   24.7314 H   0  0  0  0  0  0  0  0  0  0  0  0
    6.6882   -1.5537   21.8485 C   0  0  0  0  0  0  0  0  0  0  0  0
    5.6204   -1.6784   21.6913 H   0  0  0  0  0  0  0  0  0  0  0  0
    5.4308    0.6497   20.1514 C   0  0  0  0  0  0  0  0  0  0  0  0
    5.0113    0.6336   21.1634 H   0  0  0  0  0  0  0  0  0  0  0  0
    4.8032    1.3171   19.0980 C   0  0  0  0  0  0  0  0  0  0  0  0
    3.8676    1.8476   19.2527 H   0  0  0  0  0  0  0  0  0  0  0  0
  1  2  1  0
  2  3  2  0
  3  4  1  0
  4  5  1  0
  4  6  2  0
  6  7  1  0
  7  8  2  0
  8  9  1  0
  8 10  1  0
 10 11  1  0
 10 12  2  0
 12 13  1  0
 12 14  1  0
 14 15  1  0
 15 16  1  0
 16 17  1  0
 17 18  2  0
 18 19  1  0
 18 20  1  0
 20 21  1  0
 20 22  2  0
 22 23  1  0
 22 24  1  0
 24 25  1  0
 24 26  2  0
 26 27  1  0
 27 28  1  0
 14 29  2  0
 29 30  1  0
  6 31  1  0
 31 32  1  0
 31 33  2  0
 33 34  1  0
 33  2  1  0
 29  7  1  0
 27 15  2  0
 26 17  1  0
M  END
>  <cnnaffinity>  (1) 
-5.10061

>  <filename>  (1) 
c1cncc(-c2cccc(-c3cc4ccccc4s3)c2)c1

$$$$
