
     RDKit          3D

 34 37  0  0  0  0  0  0  0  0999 V2000
    4.9138    1.7805   16.9944 H   0  0  0  0  0  0  0  0  0  0  0  0
    5.4010    1.2949   17.8347 C   0  0  0  0  0  0  0  0  0  0  0  0
    6.5633    0.6776   17.5686 N   0  0  0  0  0  0  0  0  0  0  0  0
    7.1713    0.0725   18.5945 C   0  0  0  0  0  0  0  0  0  0  0  0
    8.1130   -0.4272   18.3728 H   0  0  0  0  0  0  0  0  0  0  0  0
    6.6540    0.0154   19.8970 C   0  0  0  0  0  0  0  0  0  0  0  0
    7.3798   -0.6983   20.9623 C   0  0  0  0  0  0  0  0  0  0  0  0
    8.7552   -0.5451   21.1158 C   0  0  0  0  0  0  0  0  0  0  0  0
    9.3196    0.1135   20.4692 H   0  0  0  0  0  0  0  0  0  0  0  0
    9.3763   -1.2174   22.1646 C   0  0  0  0  0  0  0  0  0  0  0  0
   10.4412   -1.1019   22.3223 H   0  0  0  0  0  0  0  0  0  0  0  0
    8.7427   -2.0104   23.0303 N   0  0  0  0  0  0  0  0  0  0  0  0
    7.4158   -2.1861   22.8718 C   0  0  0  0  0  0  0  0  0  0  0  0
    6.7360   -3.0675   23.8333 C   0  0  0  0  0  0  0  0  0  0  0  0
    7.0420   -3.1915   25.1642 C   0  0  0  0  0  0  0  0  0  0  0  0
    7.8306   -2.6905   25.7253 H   0  0  0  0  0  0  0  0  0  0  0  0
    6.1793   -4.0857   25.7447 N   0  0  0  0  0  0  0  0  0  0  0  0
    6.1892   -4.3860   26.7035 H   0  0  0  0  0  0  0  0  0  0  0  0
    5.3085   -4.5768   24.8048 C   0  0  0  0  0  0  0  0  0  0  0  0
    4.2869   -5.5334   24.9335 C   0  0  0  0  0  0  0  0  0  0  0  0
    4.0817   -5.9913   25.9018 H   0  0  0  0  0  0  0  0  0  0  0  0
    3.5813   -5.8688   23.7819 C   0  0  0  0  0  0  0  0  0  0  0  0
    2.7859   -6.6081   23.8403 H   0  0  0  0  0  0  0  0  0  0  0  0
    3.8901   -5.2720   22.5294 C   0  0  0  0  0  0  0  0  0  0  0  0
    3.3284   -5.5769   21.6538 H   0  0  0  0  0  0  0  0  0  0  0  0
    4.9041   -4.3267   22.4180 C   0  0  0  0  0  0  0  0  0  0  0  0
    5.1779   -3.8891   21.4626 H   0  0  0  0  0  0  0  0  0  0  0  0
    5.6232   -3.9570   23.5750 C   0  0  0  0  0  0  0  0  0  0  0  0
    6.7075   -1.5323   21.8525 C   0  0  0  0  0  0  0  0  0  0  0  0
    5.6358   -1.6605   21.7577 H   0  0  0  0  0  0  0  0  0  0  0  0
    5.4314    0.6512   20.1505 C   0  0  0  0  0  0  0  0  0  0  0  0
    5.0131    0.6329   21.1618 H   0  0  0  0  0  0  0  0  0  0  0  0
    4.8022    1.3172   19.1020 C   0  0  0  0  0  0  0  0  0  0  0  0
    3.8686    1.8472   19.2585 H   0  0  0  0  0  0  0  0  0  0  0  0
  1  2  1  0
  2  3  2  0
  3  4  1  0
  4  5  1  0
  4  6  2  0
  6  7  1  0
  7  8  2  0
  8  9  1  0
  8 10  1  0
 10 11  1  0
 10 12  2  0
 12 13  1  0
 13 14  1  0
 14 15  2  0
 15 16  1  0
 15 17  1  0
 17 18  1  0
 17 19  1  0
 19 20  2  0
 20 21  1  0
 20 22  1  0
 22 23  1  0
 22 24  2  0
 24 25  1  0
 24 26  1  0
 26 27  1  0
 26 28  2  0
 13 29  2  0
 29 30  1  0
  6 31  1  0
 31 32  1  0
 31 33  2  0
 33 34  1  0
 33  2  1  0
 29  7  1  0
 28 14  1  0
 28 19  1  0
M  END
>  <cnnaffinity>  (1) 
-5.31827

>  <filename>  (1) 
c1cncc(-c2ccnc(-c3c[nH]c4ccccc34)c2)c1

$$$$
