
     RDKit          3D

 47 52  0  0  0  0  0  0  0  0999 V2000
    4.8422    1.3063   19.0366 C   0  0  0  0  0  0  0  0  0  0  0  0
    5.4217    1.2986   17.7642 C   0  0  0  0  0  0  0  0  0  0  0  0
    6.5548    0.6414   17.4712 N   0  0  0  0  0  0  0  0  0  0  0  0
    7.1598   -0.0146   18.4690 C   0  0  0  0  0  0  0  0  0  0  0  0
    6.6854   -0.0480   19.7899 C   0  0  0  0  0  0  0  0  0  0  0  0
    7.4470   -0.7117   20.9278 C   0  0  0  0  0  0  0  0  0  0  0  0
    8.2660    0.2588   21.7336 C   0  0  0  0  0  0  0  0  0  0  0  0
    9.5252    0.5203   21.4323 N   0  0  0  0  0  0  0  0  0  0  0  0
    9.8404    1.5172   22.3023 N   0  0  0  0  0  0  0  0  0  0  0  0
   11.1214    2.1249   22.3489 C   0  0  0  0  0  0  0  0  0  0  0  0
   11.3010    3.5044   22.4317 C   0  0  0  0  0  0  0  0  0  0  0  0
   12.5931    4.0492   22.6161 C   0  0  0  0  0  0  0  0  0  0  0  0
   13.7180    3.2360   22.7587 C   0  0  0  0  0  0  0  0  0  0  0  0
   13.5487    1.8388   22.6815 C   0  0  0  0  0  0  0  0  0  0  0  0
   12.2707    1.3159   22.4071 C   0  0  0  0  0  0  0  0  0  0  0  0
   12.4545   -0.0403   22.3061 N   0  0  0  0  0  0  0  0  0  0  0  0
   13.7776   -0.2747   22.5349 C   0  0  0  0  0  0  0  0  0  0  0  0
   14.4712    0.8030   22.7700 N   0  0  0  0  0  0  0  0  0  0  0  0
   14.1792   -1.2789   22.5384 H   0  0  0  0  0  0  0  0  0  0  0  0
   11.7490   -0.6663   21.9469 H   0  0  0  0  0  0  0  0  0  0  0  0
   14.7002    3.6721   22.8943 H   0  0  0  0  0  0  0  0  0  0  0  0
   12.7112    5.1284   22.6370 H   0  0  0  0  0  0  0  0  0  0  0  0
   10.4439    4.1683   22.3541 H   0  0  0  0  0  0  0  0  0  0  0  0
    8.7781    1.7538   23.1235 C   0  0  0  0  0  0  0  0  0  0  0  0
    8.8203    2.7087   24.2578 C   0  0  2  0  0  0  0  0  0  0  0  0
    7.5519    3.0955   24.9646 C   0  0  0  0  0  0  0  0  0  0  0  0
    8.2983    4.1389   24.1777 C   0  0  1  0  0  0  0  0  0  0  0  0
    8.9607    5.2704   24.8803 C   0  0  0  0  0  0  0  0  0  0  0  0
    8.4466    6.3509   25.5304 C   0  0  0  0  0  0  0  0  0  0  0  0
    9.5634    7.0966   26.0311 C   0  0  0  0  0  0  0  0  0  0  0  0
   10.6724    6.4325   25.6258 C   0  0  0  0  0  0  0  0  0  0  0  0
   10.3269    5.3209   24.9309 O   0  0  0  0  0  0  0  0  0  0  0  0
   11.7367    6.6095   25.7184 H   0  0  0  0  0  0  0  0  0  0  0  0
    9.5223    8.0095   26.6097 H   0  0  0  0  0  0  0  0  0  0  0  0
    7.3947    6.5826   25.6531 H   0  0  0  0  0  0  0  0  0  0  0  0
    7.8328    4.4297   23.2361 H   0  0  0  0  0  0  0  0  0  0  0  0
    7.5639    3.1458   26.0516 H   0  0  0  0  0  0  0  0  0  0  0  0
    6.6271    2.7086   24.5429 H   0  0  0  0  0  0  0  0  0  0  0  0
    9.7123    2.6097   24.8714 H   0  0  0  0  0  0  0  0  0  0  0  0
    7.7707    0.9649   22.7774 N   0  0  0  0  0  0  0  0  0  0  0  0
    8.1222   -1.4841   20.5492 H   0  0  0  0  0  0  0  0  0  0  0  0
    6.7376   -1.1969   21.6064 H   0  0  0  0  0  0  0  0  0  0  0  0
    5.4881    0.6227   20.0670 C   0  0  0  0  0  0  0  0  0  0  0  0
    5.0950    0.6073   21.0858 H   0  0  0  0  0  0  0  0  0  0  0  0
    8.0763   -0.5492   18.2109 H   0  0  0  0  0  0  0  0  0  0  0  0
    4.9525    1.8285   16.9374 H   0  0  0  0  0  0  0  0  0  0  0  0
    3.9210    1.8515   19.2076 H   0  0  0  0  0  0  0  0  0  0  0  0
  1  2  2  0
  2  3  1  0
  3  4  2  0
  4  5  1  0
  5  6  1  0
  6  7  1  0
  7  8  2  0
  8  9  1  0
  9 10  1  0
 10 11  2  0
 11 12  1  0
 12 13  2  0
 13 14  1  0
 14 15  2  0
 15 16  1  0
 16 17  1  0
 17 18  2  0
 17 19  1  0
 16 20  1  0
 13 21  1  0
 12 22  1  0
 11 23  1  0
  9 24  1  0
 24 25  1  0
 25 26  1  0
 26 27  1  0
 27 28  1  0
 28 29  2  0
 29 30  1  0
 30 31  2  0
 31 32  1  0
 31 33  1  0
 30 34  1  0
 29 35  1  0
 27 36  1  6
 26 37  1  0
 26 38  1  0
 25 39  1  1
 24 40  2  0
  6 41  1  0
  6 42  1  0
  5 43  2  0
 43 44  1  0
  4 45  1  0
  2 46  1  0
  1 47  1  0
 43  1  1  0
 40  7  1  0
 15 10  1  0
 27 25  1  0
 32 28  1  0
 18 14  1  0
M  END
>  <cnnaffinity>  (1) 
-6.69832

>  <filename>  (1) 
c1cncc(Cc2nc([C@@H]3C[C@H]3c3ccco3)n(-c3cccc4nc[nH]c34)n2)c1

$$$$
