
     RDKit          3D

 38 41  0  0  0  0  0  0  0  0999 V2000
    4.9346    1.8366   16.9503 H   0  0  0  0  0  0  0  0  0  0  0  0
    5.3968    1.3163   17.7860 C   0  0  0  0  0  0  0  0  0  0  0  0
    6.5542    0.6897   17.5331 N   0  0  0  0  0  0  0  0  0  0  0  0
    7.1500    0.0542   18.5528 C   0  0  0  0  0  0  0  0  0  0  0  0
    8.0989   -0.4248   18.3069 H   0  0  0  0  0  0  0  0  0  0  0  0
    6.6427   -0.0126   19.8657 C   0  0  0  0  0  0  0  0  0  0  0  0
    7.3507   -0.7986   20.9609 C   0  0  1  0  0  0  0  0  0  0  0  0
    6.9724   -1.8330   20.9234 H   0  0  0  0  0  0  0  0  0  0  0  0
    8.9080   -0.9138   20.8591 C   0  0  0  0  0  0  0  0  0  0  0  0
    9.3633    0.0167   20.5045 H   0  0  0  0  0  0  0  0  0  0  0  0
    9.2164   -1.7304   20.2036 H   0  0  0  0  0  0  0  0  0  0  0  0
    9.3001   -1.1427   22.2924 C   0  0  0  0  0  0  0  0  0  0  0  0
   10.3592   -1.6423   22.8959 N   0  0  0  0  0  0  0  0  0  0  0  0
    9.9838   -1.6105   24.2115 N   0  0  0  0  0  0  0  0  0  0  0  0
   10.4923   -2.1190   24.9168 H   0  0  0  0  0  0  0  0  0  0  0  0
    8.7352   -1.1311   24.4068 C   0  0  0  0  0  0  0  0  0  0  0  0
    8.2567   -1.1035   25.6671 O   0  0  0  0  0  0  0  0  0  0  0  0
    7.0039   -0.4091   25.8250 C   0  0  0  0  0  0  0  0  0  0  0  0
    6.6803   -0.6781   26.8326 H   0  0  0  0  0  0  0  0  0  0  0  0
    6.2662   -0.8190   25.1264 H   0  0  0  0  0  0  0  0  0  0  0  0
    7.1271    1.1004   25.6668 C   0  0  0  0  0  0  0  0  0  0  0  0
    6.1762    1.8841   24.9961 C   0  0  0  0  0  0  0  0  0  0  0  0
    5.2902    1.4505   24.5428 H   0  0  0  0  0  0  0  0  0  0  0  0
    6.3823    3.2659   24.8840 C   0  0  0  0  0  0  0  0  0  0  0  0
    5.6520    3.8833   24.3627 H   0  0  0  0  0  0  0  0  0  0  0  0
    7.4374    3.9061   25.3998 N   0  0  0  0  0  0  0  0  0  0  0  0
    8.3428    3.1576   26.0421 C   0  0  0  0  0  0  0  0  0  0  0  0
    9.1956    3.6914   26.4586 H   0  0  0  0  0  0  0  0  0  0  0  0
    8.2351    1.7749   26.2021 C   0  0  0  0  0  0  0  0  0  0  0  0
    9.0108    1.2331   26.7304 H   0  0  0  0  0  0  0  0  0  0  0  0
    8.2620   -0.7943   23.1647 C   0  0  0  0  0  0  0  0  0  0  0  0
    7.0702   -0.3047   22.4129 C   0  0  0  0  0  0  0  0  0  0  0  0
    6.1165   -0.6981   22.7729 H   0  0  0  0  0  0  0  0  0  0  0  0
    7.0093    0.7903   22.4544 H   0  0  0  0  0  0  0  0  0  0  0  0
    5.4195    0.6481   20.0908 C   0  0  0  0  0  0  0  0  0  0  0  0
    4.9670    0.6629   21.0827 H   0  0  0  0  0  0  0  0  0  0  0  0
    4.7907    1.3213   19.0432 C   0  0  0  0  0  0  0  0  0  0  0  0
    3.8612    1.8591   19.1983 H   0  0  0  0  0  0  0  0  0  0  0  0
  1  2  1  0
  2  3  2  0
  3  4  1  0
  4  5  1  0
  4  6  2  0
  6  7  1  0
  7  8  1  1
  7  9  1  0
  9 10  1  0
  9 11  1  0
  9 12  1  0
 12 13  2  0
 13 14  1  0
 14 15  1  0
 14 16  1  0
 16 17  1  0
 17 18  1  0
 18 19  1  0
 18 20  1  0
 18 21  1  0
 21 22  2  0
 22 23  1  0
 22 24  1  0
 24 25  1  0
 24 26  2  0
 26 27  1  0
 27 28  1  0
 27 29  2  0
 29 30  1  0
 16 31  2  0
 31 32  1  0
 32 33  1  0
 32 34  1  0
  6 35  1  0
 35 36  1  0
 35 37  2  0
 37 38  1  0
 37  2  1  0
 32  7  1  0
 31 12  1  0
 29 21  1  0
M  END
>  <cnnaffinity>  (1) 
-5.31214

>  <filename>  (1) 
c1cncc([C@H]2Cc3n[nH]c(OCc4ccncc4)c3C2)c1

$$$$
