
     RDKit          3D

 45 49  0  0  0  0  0  0  0  0999 V2000
    4.7860    1.3235   19.0155 C   0  0  0  0  0  0  0  0  0  0  0  0
    5.4047    1.3055   17.7631 C   0  0  0  0  0  0  0  0  0  0  0  0
    6.5415    0.6371   17.5070 N   0  0  0  0  0  0  0  0  0  0  0  0
    7.1092   -0.0165   18.5282 C   0  0  0  0  0  0  0  0  0  0  0  0
    6.6004   -0.0323   19.8388 C   0  0  0  0  0  0  0  0  0  0  0  0
    7.3701   -0.6509   21.0016 C   0  0  0  0  0  0  0  0  0  0  0  0
    8.2374    0.3309   21.7400 C   0  0  0  0  0  0  0  0  0  0  0  0
    7.7733    1.0940   22.7115 N   0  0  0  0  0  0  0  0  0  0  0  0
    8.8403    1.8511   23.0558 N   0  0  0  0  0  0  0  0  0  0  0  0
    8.7228    2.8685   24.1009 C   0  0  0  0  0  0  0  0  0  0  0  0
    8.2643    4.2282   23.5975 C   0  0  0  0  0  0  0  0  0  0  0  0
    8.9970    5.4009   23.8237 C   0  0  0  0  0  0  0  0  0  0  0  0
    8.4943    6.6189   23.3497 C   0  0  0  0  0  0  0  0  0  0  0  0
    7.3308    6.7363   22.7001 N   0  0  0  0  0  0  0  0  0  0  0  0
    6.6387    5.6097   22.4775 C   0  0  0  0  0  0  0  0  0  0  0  0
    7.0581    4.3465   22.8991 C   0  0  0  0  0  0  0  0  0  0  0  0
    6.4656    3.4657   22.6719 H   0  0  0  0  0  0  0  0  0  0  0  0
    5.6947    5.7243   21.9482 H   0  0  0  0  0  0  0  0  0  0  0  0
    9.0511    7.5411   23.5050 H   0  0  0  0  0  0  0  0  0  0  0  0
    9.9609    5.3758   24.3225 H   0  0  0  0  0  0  0  0  0  0  0  0
    8.0124    2.4883   24.8417 H   0  0  0  0  0  0  0  0  0  0  0  0
    9.6951    2.9684   24.5854 H   0  0  0  0  0  0  0  0  0  0  0  0
    9.8939    1.5141   22.2707 C   0  0  0  0  0  0  0  0  0  0  0  0
   11.2305    2.1517   22.4062 C   0  0  0  0  0  0  0  0  0  0  0  0
   11.4474    3.5488   22.3977 C   0  0  0  0  0  0  0  0  0  0  0  0
   12.7366    4.0816   22.5859 C   0  0  0  0  0  0  0  0  0  0  0  0
   13.8395    3.3521   22.8023 N   0  0  0  0  0  0  0  0  0  0  0  0
   13.6153    2.0350   22.7804 C   0  0  0  0  0  0  0  0  0  0  0  0
   12.3800    1.3597   22.5774 C   0  0  0  0  0  0  0  0  0  0  0  0
   12.6808   -0.0457   22.5900 C   0  0  0  0  0  0  0  0  0  0  0  0
   14.0255   -0.1726   22.7766 C   0  0  0  0  0  0  0  0  0  0  0  0
   14.5821    1.0847   22.8973 N   0  0  0  0  0  0  0  0  0  0  0  0
   15.5422    1.3714   22.8690 H   0  0  0  0  0  0  0  0  0  0  0  0
   14.6264   -1.0747   22.8415 H   0  0  0  0  0  0  0  0  0  0  0  0
   11.9522   -0.8330   22.4322 H   0  0  0  0  0  0  0  0  0  0  0  0
   12.8887    5.1566   22.5754 H   0  0  0  0  0  0  0  0  0  0  0  0
   10.6380    4.2425   22.2417 H   0  0  0  0  0  0  0  0  0  0  0  0
    9.5432    0.5397   21.4407 N   0  0  0  0  0  0  0  0  0  0  0  0
    8.0175   -1.4574   20.6430 H   0  0  0  0  0  0  0  0  0  0  0  0
    6.6728   -1.0730   21.7344 H   0  0  0  0  0  0  0  0  0  0  0  0
    5.3931    0.6372   20.0690 C   0  0  0  0  0  0  0  0  0  0  0  0
    4.9570    0.6184   21.0688 H   0  0  0  0  0  0  0  0  0  0  0  0
    8.0304   -0.5579   18.3012 H   0  0  0  0  0  0  0  0  0  0  0  0
    4.9691    1.8429   16.9233 H   0  0  0  0  0  0  0  0  0  0  0  0
    3.8592    1.8688   19.1568 H   0  0  0  0  0  0  0  0  0  0  0  0
  1  2  2  0
  2  3  1  0
  3  4  2  0
  4  5  1  0
  5  6  1  0
  6  7  1  0
  7  8  2  0
  8  9  1  0
  9 10  1  0
 10 11  1  0
 11 12  2  0
 12 13  1  0
 13 14  2  0
 14 15  1  0
 15 16  2  0
 16 17  1  0
 15 18  1  0
 13 19  1  0
 12 20  1  0
 10 21  1  0
 10 22  1  0
  9 23  1  0
 23 24  1  0
 24 25  2  0
 25 26  1  0
 26 27  2  0
 27 28  1  0
 28 29  2  0
 29 30  1  0
 30 31  2  0
 31 32  1  0
 32 33  1  0
 31 34  1  0
 30 35  1  0
 26 36  1  0
 25 37  1  0
 23 38  2  0
  6 39  1  0
  6 40  1  0
  5 41  2  0
 41 42  1  0
  4 43  1  0
  2 44  1  0
  1 45  1  0
 41  1  1  0
 38  7  1  0
 16 11  1  0
 29 24  1  0
 32 28  1  0
M  END
>  <cnnaffinity>  (1) 
-6.72523

>  <filename>  (1) 
c1cncc(Cc2nc(-c3ccnc4[nH]ccc34)n(Cc3ccncc3)n2)c1

$$$$
