
     RDKit          3D

 37 39  0  0  0  0  0  0  0  0999 V2000
    4.9084    1.8272   16.9520 H   0  0  0  0  0  0  0  0  0  0  0  0
    5.3691    1.3215   17.8010 C   0  0  0  0  0  0  0  0  0  0  0  0
    6.5315    0.6993   17.5501 N   0  0  0  0  0  0  0  0  0  0  0  0
    7.1422    0.0918   18.5754 C   0  0  0  0  0  0  0  0  0  0  0  0
    8.0941   -0.3785   18.3344 H   0  0  0  0  0  0  0  0  0  0  0  0
    6.6498    0.0373   19.8954 C   0  0  0  0  0  0  0  0  0  0  0  0
    7.3983   -0.6833   20.9375 C   0  0  0  0  0  0  0  0  0  0  0  0
    8.3583   -1.6680   20.8804 C   0  0  0  0  0  0  0  0  0  0  0  0
    8.8693   -2.0723   20.0182 H   0  0  0  0  0  0  0  0  0  0  0  0
    8.7230   -2.0714   22.1266 N   0  0  0  0  0  0  0  0  0  0  0  0
    8.0423   -1.3264   22.9630 C   0  0  0  0  0  0  0  0  0  0  0  0
    8.2415   -1.3256   24.4410 C   0  0  0  0  0  0  0  0  0  0  0  0
    7.3160   -1.0046   24.9277 H   0  0  0  0  0  0  0  0  0  0  0  0
    8.4305   -2.3680   24.7177 H   0  0  0  0  0  0  0  0  0  0  0  0
    9.4330   -0.4507   24.9123 C   0  0  0  0  0  0  0  0  0  0  0  0
    9.5170   -0.6228   25.9955 H   0  0  0  0  0  0  0  0  0  0  0  0
   10.7884   -0.8936   24.3063 C   0  0  0  0  0  0  0  0  0  0  0  0
   11.5119   -0.8625   25.1340 H   0  0  0  0  0  0  0  0  0  0  0  0
   10.7153   -1.9266   23.9487 H   0  0  0  0  0  0  0  0  0  0  0  0
   11.3192    0.0072   23.1767 C   0  0  0  0  0  0  0  0  0  0  0  0
   10.6034   -0.0091   22.3425 H   0  0  0  0  0  0  0  0  0  0  0  0
   12.2557   -0.4022   22.7764 H   0  0  0  0  0  0  0  0  0  0  0  0
   11.5416    1.4549   23.6816 C   0  0  0  0  0  0  0  0  0  0  0  0
   12.5596    1.5588   24.0865 H   0  0  0  0  0  0  0  0  0  0  0  0
   11.4887    2.1434   22.8273 H   0  0  0  0  0  0  0  0  0  0  0  0
   10.5180    1.8620   24.7842 C   0  0  0  0  0  0  0  0  0  0  0  0
   10.9611    1.6838   25.7754 H   0  0  0  0  0  0  0  0  0  0  0  0
   10.3118    2.9363   24.7317 H   0  0  0  0  0  0  0  0  0  0  0  0
    9.2026    1.0617   24.6867 C   0  0  0  0  0  0  0  0  0  0  0  0
    8.7691    1.2135   23.6878 H   0  0  0  0  0  0  0  0  0  0  0  0
    8.4647    1.4230   25.4140 H   0  0  0  0  0  0  0  0  0  0  0  0
    7.2101   -0.4838   22.2972 N   0  0  0  0  0  0  0  0  0  0  0  0
    6.6830    0.2500   22.7364 H   0  0  0  0  0  0  0  0  0  0  0  0
    5.4203    0.6825   20.1249 C   0  0  0  0  0  0  0  0  0  0  0  0
    4.9679    0.6625   21.1157 H   0  0  0  0  0  0  0  0  0  0  0  0
    4.7756    1.3349   19.0695 C   0  0  0  0  0  0  0  0  0  0  0  0
    3.8377    1.8637   19.2120 H   0  0  0  0  0  0  0  0  0  0  0  0
  1  2  1  0
  2  3  2  0
  3  4  1  0
  4  5  1  0
  4  6  2  0
  6  7  1  0
  7  8  2  0
  8  9  1  0
  8 10  1  0
 10 11  2  0
 11 12  1  0
 12 13  1  0
 12 14  1  0
 12 15  1  0
 15 16  1  0
 15 17  1  0
 17 18  1  0
 17 19  1  0
 17 20  1  0
 20 21  1  0
 20 22  1  0
 20 23  1  0
 23 24  1  0
 23 25  1  0
 23 26  1  0
 26 27  1  0
 26 28  1  0
 26 29  1  0
 29 30  1  0
 29 31  1  0
 11 32  1  0
 32 33  1  0
  6 34  1  0
 34 35  1  0
 34 36  2  0
 36 37  1  0
 36  2  1  0
 32  7  1  0
 29 15  1  0
M  END
>  <cnnaffinity>  (1) 
-5.41811

>  <filename>  (1) 
c1cncc(-c2cnc(CC3CCCCC3)[nH]2)c1

$$$$
