
     RDKit          3D

 51 56  0  0  0  0  0  0  0  0999 V2000
    4.9438    1.3169   18.7689 C   0  0  0  0  0  0  0  0  0  0  0  0
    5.3823    1.1513   17.4520 C   0  0  0  0  0  0  0  0  0  0  0  0
    6.4529    0.4167   17.1222 N   0  0  0  0  0  0  0  0  0  0  0  0
    7.1518   -0.1391   18.1195 C   0  0  0  0  0  0  0  0  0  0  0  0
    6.8442    0.0129   19.4833 C   0  0  0  0  0  0  0  0  0  0  0  0
    7.7441   -0.5282   20.5975 C   0  0  0  0  0  0  0  0  0  0  0  0
    8.4482    0.5407   21.3951 C   0  0  0  0  0  0  0  0  0  0  0  0
    7.8616    1.1537   22.4042 N   0  0  0  0  0  0  0  0  0  0  0  0
    8.7767    2.0886   22.7778 N   0  0  0  0  0  0  0  0  0  0  0  0
    8.4828    3.0294   23.8125 C   0  0  0  0  0  0  0  0  0  0  0  0
    8.6130    2.7371   25.1718 C   0  0  0  0  0  0  0  0  0  0  0  0
    8.3316    3.7164   26.1520 C   0  0  0  0  0  0  0  0  0  0  0  0
    7.9461    5.0076   25.7918 C   0  0  0  0  0  0  0  0  0  0  0  0
    7.8112    5.3129   24.4235 C   0  0  0  0  0  0  0  0  0  0  0  0
    8.0526    4.3211   23.4639 C   0  0  0  0  0  0  0  0  0  0  0  0
    7.7820    4.9222   22.2542 N   0  0  0  0  0  0  0  0  0  0  0  0
    7.4291    6.2102   22.5289 C   0  0  0  0  0  0  0  0  0  0  0  0
    7.4421    6.4963   23.8013 N   0  0  0  0  0  0  0  0  0  0  0  0
    7.1311    6.8914   21.7423 H   0  0  0  0  0  0  0  0  0  0  0  0
    7.8593    4.4884   21.3512 H   0  0  0  0  0  0  0  0  0  0  0  0
    7.7488    5.7851   26.5208 H   0  0  0  0  0  0  0  0  0  0  0  0
    8.3982    3.4477   27.2061 H   0  0  0  0  0  0  0  0  0  0  0  0
    8.9630    1.7576   25.4789 H   0  0  0  0  0  0  0  0  0  0  0  0
    9.8767    1.9763   21.9851 C   0  0  0  0  0  0  0  0  0  0  0  0
   11.1341    2.7617   22.0823 C   0  0  0  0  0  0  0  0  0  0  0  0
   11.2446    4.2278   22.5799 C   0  0  0  0  0  0  0  0  0  0  0  0
   12.3683    3.8059   23.5403 C   0  0  0  0  0  0  0  0  0  0  0  0
   12.1371    2.3335   23.2126 C   0  0  0  0  0  0  0  0  0  0  0  0
   13.3272    1.4749   22.7805 C   0  0  0  0  0  0  0  0  0  0  0  0
   13.2172    0.2169   23.6405 C   0  0  0  0  0  0  0  0  0  0  0  0
   11.7415    0.2519   24.0248 C   0  0  0  0  0  0  0  0  0  0  0  0
   11.4977    1.6334   24.2606 O   0  0  0  0  0  0  0  0  0  0  0  0
   11.4888   -0.2916   24.9371 H   0  0  0  0  0  0  0  0  0  0  0  0
   11.1049   -0.1004   23.2012 H   0  0  0  0  0  0  0  0  0  0  0  0
   13.5146   -0.6869   23.1064 H   0  0  0  0  0  0  0  0  0  0  0  0
   13.8441    0.2841   24.5306 H   0  0  0  0  0  0  0  0  0  0  0  0
   13.2278    1.2018   21.7283 H   0  0  0  0  0  0  0  0  0  0  0  0
   14.2845    1.9884   22.9129 H   0  0  0  0  0  0  0  0  0  0  0  0
   13.3636    4.1382   23.2341 H   0  0  0  0  0  0  0  0  0  0  0  0
   12.2100    4.0608   24.5850 H   0  0  0  0  0  0  0  0  0  0  0  0
   11.5572    4.9346   21.8083 H   0  0  0  0  0  0  0  0  0  0  0  0
   10.3851    4.6368   23.1074 H   0  0  0  0  0  0  0  0  0  0  0  0
   11.6088    2.6501   21.1065 H   0  0  0  0  0  0  0  0  0  0  0  0
    9.6976    1.0003   21.1063 N   0  0  0  0  0  0  0  0  0  0  0  0
    7.1345   -1.1045   21.3027 H   0  0  0  0  0  0  0  0  0  0  0  0
    8.5072   -1.2036   20.1981 H   0  0  0  0  0  0  0  0  0  0  0  0
    5.6905    0.7461   19.8025 C   0  0  0  0  0  0  0  0  0  0  0  0
    5.3982    0.8812   20.8471 H   0  0  0  0  0  0  0  0  0  0  0  0
    8.0229   -0.7250   17.8228 H   0  0  0  0  0  0  0  0  0  0  0  0
    4.8602    1.6263   16.6236 H   0  0  0  0  0  0  0  0  0  0  0  0
    4.0505    1.8991   18.9666 H   0  0  0  0  0  0  0  0  0  0  0  0
  1  2  2  0
  2  3  1  0
  3  4  2  0
  4  5  1  0
  5  6  1  0
  6  7  1  0
  7  8  2  0
  8  9  1  0
  9 10  1  0
 10 11  2  0
 11 12  1  0
 12 13  2  0
 13 14  1  0
 14 15  2  0
 15 16  1  0
 16 17  1  0
 17 18  2  0
 17 19  1  0
 16 20  1  0
 13 21  1  0
 12 22  1  0
 11 23  1  0
  9 24  1  0
 24 25  1  0
 25 26  1  0
 26 27  1  0
 27 28  1  0
 28 29  1  0
 29 30  1  0
 30 31  1  0
 31 32  1  0
 31 33  1  0
 31 34  1  0
 30 35  1  0
 30 36  1  0
 29 37  1  0
 29 38  1  0
 27 39  1  0
 27 40  1  0
 26 41  1  0
 26 42  1  0
 25 43  1  0
 24 44  2  0
  6 45  1  0
  6 46  1  0
  5 47  2  0
 47 48  1  0
  4 49  1  0
  2 50  1  0
  1 51  1  0
 47  1  1  0
 44  7  1  0
 15 10  1  0
 28 25  1  0
 18 14  1  0
 32 28  1  0
M  END
>  <cnnaffinity>  (1) 
-5.82097

>  <filename>  (1) 
c1cncc(Cc2nc(C3CCC34CCCO4)n(-c3cccc4nc[nH]c34)n2)c1

$$$$
