
     RDKit          3D

 39 43  0  0  0  0  0  0  0  0999 V2000
    4.6937    1.4498   18.8756 C   0  0  0  0  0  0  0  0  0  0  0  0
    5.3756    1.3872   17.6539 C   0  0  0  0  0  0  0  0  0  0  0  0
    6.5141    0.6993   17.4817 N   0  0  0  0  0  0  0  0  0  0  0  0
    7.0264    0.0761   18.5453 C   0  0  0  0  0  0  0  0  0  0  0  0
    6.4333    0.0961   19.8199 C   0  0  0  0  0  0  0  0  0  0  0  0
    7.1246   -0.5732   20.9227 C   0  0  0  0  0  0  0  0  0  0  0  0
    8.2754   -1.1890   20.7230 N   0  0  0  0  0  0  0  0  0  0  0  0
    8.6273   -1.5816   21.9648 N   0  0  0  0  0  0  0  0  0  0  0  0
    9.8347   -2.3338   22.1714 C   0  0  0  0  0  0  0  0  0  0  0  0
   11.1624   -1.6471   22.0059 C   0  0  0  0  0  0  0  0  0  0  0  0
   10.7104   -2.0949   23.3627 C   0  0  0  0  0  0  0  0  0  0  0  0
   11.1788   -2.9790   23.7963 H   0  0  0  0  0  0  0  0  0  0  0  0
   10.4187   -1.3224   24.0709 H   0  0  0  0  0  0  0  0  0  0  0  0
   11.1161   -0.5815   21.7949 H   0  0  0  0  0  0  0  0  0  0  0  0
   11.9732   -2.1551   21.4944 H   0  0  0  0  0  0  0  0  0  0  0  0
    9.7084   -3.3453   21.8173 H   0  0  0  0  0  0  0  0  0  0  0  0
    7.6401   -1.2747   22.8320 C   0  0  0  0  0  0  0  0  0  0  0  0
    7.6809   -1.6692   24.2684 C   0  0  0  0  0  0  0  0  0  0  0  0
    6.3957   -2.3109   24.6706 C   0  0  0  0  0  0  0  0  0  0  0  0
    5.5760   -1.6256   25.4016 N   0  0  0  0  0  0  0  0  0  0  0  0
    4.1437   -2.4561   25.6637 S   0  0  0  0  0  0  0  0  0  0  0  0
    4.6404   -3.8501   24.7491 C   0  0  0  0  0  0  0  0  0  0  0  0
    3.9192   -5.0254   24.4877 C   0  0  0  0  0  0  0  0  0  0  0  0
    4.5359   -6.0160   23.7385 C   0  0  0  0  0  0  0  0  0  0  0  0
    5.8547   -5.8484   23.2515 C   0  0  0  0  0  0  0  0  0  0  0  0
    6.5668   -4.6828   23.5005 C   0  0  0  0  0  0  0  0  0  0  0  0
    5.9511   -3.6447   24.2593 C   0  0  0  0  0  0  0  0  0  0  0  0
    7.5833   -4.5945   23.1148 H   0  0  0  0  0  0  0  0  0  0  0  0
    6.3070   -6.6505   22.6715 H   0  0  0  0  0  0  0  0  0  0  0  0
    3.9962   -6.9346   23.5274 H   0  0  0  0  0  0  0  0  0  0  0  0
    2.9045   -5.1375   24.8677 H   0  0  0  0  0  0  0  0  0  0  0  0
    7.8243   -0.7693   24.8746 H   0  0  0  0  0  0  0  0  0  0  0  0
    8.4958   -2.3681   24.4682 H   0  0  0  0  0  0  0  0  0  0  0  0
    6.6875   -0.6064   22.2096 N   0  0  0  0  0  0  0  0  0  0  0  0
    5.2246    0.7863   19.9818 C   0  0  0  0  0  0  0  0  0  0  0  0
    4.7256    0.7922   20.9510 H   0  0  0  0  0  0  0  0  0  0  0  0
    7.9522   -0.4703   18.3761 H   0  0  0  0  0  0  0  0  0  0  0  0
    4.9951    1.9035   16.7747 H   0  0  0  0  0  0  0  0  0  0  0  0
    3.7749    2.0200   18.9446 H   0  0  0  0  0  0  0  0  0  0  0  0
  1  2  2  0
  2  3  1  0
  3  4  2  0
  4  5  1  0
  5  6  1  0
  6  7  2  0
  7  8  1  0
  8  9  1  0
  9 10  1  0
 10 11  1  0
 11 12  1  0
 11 13  1  0
 10 14  1  0
 10 15  1  0
  9 16  1  0
  8 17  1  0
 17 18  1  0
 18 19  1  0
 19 20  2  0
 20 21  1  0
 21 22  1  0
 22 23  2  0
 23 24  1  0
 24 25  2  0
 25 26  1  0
 26 27  2  0
 26 28  1  0
 25 29  1  0
 24 30  1  0
 23 31  1  0
 18 32  1  0
 18 33  1  0
 17 34  2  0
  5 35  2  0
 35 36  1  0
  4 37  1  0
  2 38  1  0
  1 39  1  0
 35  1  1  0
 34  6  1  0
 11  9  1  0
 27 19  1  0
 27 22  1  0
M  END
>  <cnnaffinity>  (1) 
-6.13099

>  <filename>  (1) 
c1cncc(-c2nc(Cc3nsc4ccccc34)n(C3CC3)n2)c1

$$$$
