
     RDKit          3D

 33 36  0  0  0  0  0  0  0  0999 V2000
    4.9145    1.7927   16.9857 H   0  0  0  0  0  0  0  0  0  0  0  0
    5.3958    1.2983   17.8254 C   0  0  0  0  0  0  0  0  0  0  0  0
    6.5599    0.6830   17.5554 N   0  0  0  0  0  0  0  0  0  0  0  0
    7.1557    0.0574   18.5784 C   0  0  0  0  0  0  0  0  0  0  0  0
    8.1113   -0.4200   18.3580 H   0  0  0  0  0  0  0  0  0  0  0  0
    6.6539    0.0136   19.8938 C   0  0  0  0  0  0  0  0  0  0  0  0
    7.3943   -0.6903   20.9926 C   0  0  0  0  0  0  0  0  0  0  0  0
    7.7629   -0.1021   22.2288 C   0  0  0  0  0  0  0  0  0  0  0  0
    7.5633    1.3477   22.4371 C   0  0  0  0  0  0  0  0  0  0  0  0
    7.9502    2.3243   21.5733 C   0  0  0  0  0  0  0  0  0  0  0  0
    8.4391    2.2090   20.6120 H   0  0  0  0  0  0  0  0  0  0  0  0
    7.5898    3.9231   22.1249 S   0  0  0  0  0  0  0  0  0  0  0  0
    6.8368    3.2943   23.5661 C   0  0  0  0  0  0  0  0  0  0  0  0
    6.2400    4.0150   24.6184 C   0  0  0  0  0  0  0  0  0  0  0  0
    6.2184    5.1013   24.5999 H   0  0  0  0  0  0  0  0  0  0  0  0
    5.6791    3.3084   25.6780 C   0  0  0  0  0  0  0  0  0  0  0  0
    5.2157    3.8481   26.5033 H   0  0  0  0  0  0  0  0  0  0  0  0
    5.6924    1.8949   25.7031 C   0  0  0  0  0  0  0  0  0  0  0  0
    5.2490    1.3555   26.5398 H   0  0  0  0  0  0  0  0  0  0  0  0
    6.2782    1.1852   24.6683 C   0  0  0  0  0  0  0  0  0  0  0  0
    6.2988    0.0960   24.6661 H   0  0  0  0  0  0  0  0  0  0  0  0
    6.8851    1.8842   23.5988 C   0  0  0  0  0  0  0  0  0  0  0  0
    8.3249   -0.8255   23.2250 N   0  0  0  0  0  0  0  0  0  0  0  0
    8.6016   -2.1074   22.9965 C   0  0  0  0  0  0  0  0  0  0  0  0
    9.0673   -2.6345   23.8247 H   0  0  0  0  0  0  0  0  0  0  0  0
    8.2979   -2.7764   21.8052 C   0  0  0  0  0  0  0  0  0  0  0  0
    8.5299   -3.8307   21.6928 H   0  0  0  0  0  0  0  0  0  0  0  0
    7.6499   -2.0504   20.8128 C   0  0  0  0  0  0  0  0  0  0  0  0
    7.2171   -2.4812   19.9188 H   0  0  0  0  0  0  0  0  0  0  0  0
    5.4296    0.6485   20.1474 C   0  0  0  0  0  0  0  0  0  0  0  0
    5.0229    0.6341   21.1632 H   0  0  0  0  0  0  0  0  0  0  0  0
    4.7980    1.3080   19.0914 C   0  0  0  0  0  0  0  0  0  0  0  0
    3.8706    1.8455   19.2474 H   0  0  0  0  0  0  0  0  0  0  0  0
  1  2  1  0
  2  3  2  0
  3  4  1  0
  4  5  1  0
  4  6  2  0
  6  7  1  0
  7  8  1  0
  8  9  1  0
  9 10  2  0
 10 11  1  0
 10 12  1  0
 12 13  1  0
 13 14  2  0
 14 15  1  0
 14 16  1  0
 16 17  1  0
 16 18  2  0
 18 19  1  0
 18 20  1  0
 20 21  1  0
 20 22  2  0
  8 23  2  0
 23 24  1  0
 24 25  1  0
 24 26  2  0
 26 27  1  0
 26 28  1  0
 28 29  1  0
  6 30  1  0
 30 31  1  0
 30 32  2  0
 32 33  1  0
 32  2  1  0
 28  7  2  0
 22  9  1  0
 22 13  1  0
M  END
>  <cnnaffinity>  (1) 
-5.12213

>  <filename>  (1) 
c1cncc(-c2cccnc2-c2csc3ccccc23)c1

$$$$
