
     RDKit          3D

 33 35  0  0  0  0  0  0  0  0999 V2000
    4.9115    1.7911   16.9872 H   0  0  0  0  0  0  0  0  0  0  0  0
    5.3922    1.3005   17.8259 C   0  0  0  0  0  0  0  0  0  0  0  0
    6.5556    0.6881   17.5550 N   0  0  0  0  0  0  0  0  0  0  0  0
    7.1583    0.0547   18.5648 C   0  0  0  0  0  0  0  0  0  0  0  0
    8.1183   -0.4129   18.3522 H   0  0  0  0  0  0  0  0  0  0  0  0
    6.6435   -0.0016   19.8754 C   0  0  0  0  0  0  0  0  0  0  0  0
    7.3558   -0.6950   20.9386 C   0  0  0  0  0  0  0  0  0  0  0  0
    7.6711   -0.3015   22.2238 C   0  0  0  0  0  0  0  0  0  0  0  0
    7.4059    1.0322   22.8496 C   0  0  0  0  0  0  0  0  0  0  0  0
    6.9937    1.7038   22.0811 H   0  0  0  0  0  0  0  0  0  0  0  0
    6.3688    0.9332   23.9868 C   0  0  0  0  0  0  0  0  0  0  0  0
    5.4118    0.5632   23.6009 H   0  0  0  0  0  0  0  0  0  0  0  0
    6.7236    0.1969   24.7185 H   0  0  0  0  0  0  0  0  0  0  0  0
    6.1710    2.2862   24.6794 C   0  0  0  0  0  0  0  0  0  0  0  0
    5.4808    2.1926   25.5255 H   0  0  0  0  0  0  0  0  0  0  0  0
    5.7095    2.9971   23.9802 H   0  0  0  0  0  0  0  0  0  0  0  0
    7.4225    2.8820   25.1574 N   0  0  0  0  0  0  0  0  0  0  0  0
    7.8200    2.2255   25.8279 H   0  0  0  0  0  0  0  0  0  0  0  0
    8.4016    3.0178   24.0745 C   0  0  0  0  0  0  0  0  0  0  0  0
    8.0070    3.7501   23.3568 H   0  0  0  0  0  0  0  0  0  0  0  0
    9.3215    3.4501   24.4830 H   0  0  0  0  0  0  0  0  0  0  0  0
    8.7014    1.6968   23.3574 C   0  0  0  0  0  0  0  0  0  0  0  0
    9.1970    1.0075   24.0513 H   0  0  0  0  0  0  0  0  0  0  0  0
    9.3917    1.8651   22.5225 H   0  0  0  0  0  0  0  0  0  0  0  0
    8.3333   -1.3162   22.8713 N   0  0  0  0  0  0  0  0  0  0  0  0
    8.4379   -2.2867   22.0049 C   0  0  0  0  0  0  0  0  0  0  0  0
    8.9115   -3.2493   22.1762 H   0  0  0  0  0  0  0  0  0  0  0  0
    7.8843   -1.9530   20.8100 N   0  0  0  0  0  0  0  0  0  0  0  0
    7.7910   -2.5317   19.9910 H   0  0  0  0  0  0  0  0  0  0  0  0
    5.4332    0.6586   20.1400 C   0  0  0  0  0  0  0  0  0  0  0  0
    5.0127    0.6282   21.1504 H   0  0  0  0  0  0  0  0  0  0  0  0
    4.7944    1.3174   19.0919 C   0  0  0  0  0  0  0  0  0  0  0  0
    3.8668    1.8488   19.2540 H   0  0  0  0  0  0  0  0  0  0  0  0
  1  2  1  0
  2  3  2  0
  3  4  1  0
  4  5  1  0
  4  6  2  0
  6  7  1  0
  7  8  2  0
  8  9  1  0
  9 10  1  0
  9 11  1  0
 11 12  1  0
 11 13  1  0
 11 14  1  0
 14 15  1  0
 14 16  1  0
 14 17  1  0
 17 18  1  0
 17 19  1  0
 19 20  1  0
 19 21  1  0
 19 22  1  0
 22 23  1  0
 22 24  1  0
  8 25  1  0
 25 26  2  0
 26 27  1  0
 26 28  1  0
 28 29  1  0
  6 30  1  0
 30 31  1  0
 30 32  2  0
 32 33  1  0
 32  2  1  0
 28  7  1  0
 22  9  1  0
M  END
>  <cnnaffinity>  (1) 
-4.8845

>  <filename>  (1) 
c1cncc(-c2[nH]cnc2C2CCNCC2)c1

$$$$
