
     RDKit          3D

 47 51  0  0  0  0  0  0  0  0999 V2000
    4.7792    1.3140   19.0114 C   0  0  0  0  0  0  0  0  0  0  0  0
    5.3909    1.3084   17.7545 C   0  0  0  0  0  0  0  0  0  0  0  0
    6.5317    0.6529   17.4855 N   0  0  0  0  0  0  0  0  0  0  0  0
    7.1158    0.0012   18.4979 C   0  0  0  0  0  0  0  0  0  0  0  0
    6.6109   -0.0339   19.8090 C   0  0  0  0  0  0  0  0  0  0  0  0
    7.3963   -0.6516   20.9551 C   0  0  0  0  0  0  0  0  0  0  0  0
    8.2601    0.3478   21.6610 C   0  0  0  0  0  0  0  0  0  0  0  0
    7.7942    1.1150   22.6238 N   0  0  0  0  0  0  0  0  0  0  0  0
    8.8715    1.8562   22.9755 N   0  0  0  0  0  0  0  0  0  0  0  0
    8.7759    2.7783   24.1063 C   0  0  0  0  0  0  0  0  0  0  0  0
    7.8998    3.9902   23.7219 C   0  0  0  0  0  0  0  0  0  0  0  0
    7.4300    4.8344   24.9213 C   0  0  0  0  0  0  0  0  0  0  0  0
    8.3735    4.7061   26.1169 C   0  0  0  0  0  0  0  0  0  0  0  0
    8.2563    3.0477   26.8577 S   0  0  0  0  0  0  0  0  0  0  0  0
    8.3460    2.0089   25.3677 C   0  0  0  0  0  0  0  0  0  0  0  0
    9.0947    1.2369   25.5635 H   0  0  0  0  0  0  0  0  0  0  0  0
    7.3900    1.5047   25.2010 H   0  0  0  0  0  0  0  0  0  0  0  0
    9.4126    4.8915   25.8220 H   0  0  0  0  0  0  0  0  0  0  0  0
    8.1238    5.4075   26.9160 H   0  0  0  0  0  0  0  0  0  0  0  0
    6.4272    4.5205   25.2336 H   0  0  0  0  0  0  0  0  0  0  0  0
    7.3487    5.8875   24.6294 H   0  0  0  0  0  0  0  0  0  0  0  0
    7.0455    3.6419   23.1337 H   0  0  0  0  0  0  0  0  0  0  0  0
    8.5019    4.6119   23.0457 H   0  0  0  0  0  0  0  0  0  0  0  0
    9.7763    3.1463   24.3348 H   0  0  0  0  0  0  0  0  0  0  0  0
    9.9252    1.5086   22.1965 C   0  0  0  0  0  0  0  0  0  0  0  0
   11.2472    2.0939   22.3493 C   0  0  0  0  0  0  0  0  0  0  0  0
   11.4277    3.4728   22.4493 C   0  0  0  0  0  0  0  0  0  0  0  0
   12.6070    4.0709   22.7038 N   0  0  0  0  0  0  0  0  0  0  0  0
   13.6963    3.3146   22.8170 C   0  0  0  0  0  0  0  0  0  0  0  0
   13.6302    1.9096   22.6686 C   0  0  0  0  0  0  0  0  0  0  0  0
   12.3944    1.2807   22.4139 C   0  0  0  0  0  0  0  0  0  0  0  0
   12.6463   -0.1258   22.3107 C   0  0  0  0  0  0  0  0  0  0  0  0
   13.9927   -0.2988   22.4611 C   0  0  0  0  0  0  0  0  0  0  0  0
   14.5929    0.9214   22.6946 N   0  0  0  0  0  0  0  0  0  0  0  0
   15.5859    1.0930   22.6437 H   0  0  0  0  0  0  0  0  0  0  0  0
   14.5710   -1.2120   22.4598 H   0  0  0  0  0  0  0  0  0  0  0  0
   11.8707   -0.8596   22.1403 H   0  0  0  0  0  0  0  0  0  0  0  0
   14.6272    3.8444   23.0027 H   0  0  0  0  0  0  0  0  0  0  0  0
   10.5894    4.1566   22.3589 H   0  0  0  0  0  0  0  0  0  0  0  0
    9.5665    0.5474   21.3594 N   0  0  0  0  0  0  0  0  0  0  0  0
    6.7126   -1.0720   21.7014 H   0  0  0  0  0  0  0  0  0  0  0  0
    8.0492   -1.4557   20.6011 H   0  0  0  0  0  0  0  0  0  0  0  0
    5.4019    0.6280   20.0548 C   0  0  0  0  0  0  0  0  0  0  0  0
    4.9714    0.6103   21.0582 H   0  0  0  0  0  0  0  0  0  0  0  0
    8.0428   -0.5254   18.2599 H   0  0  0  0  0  0  0  0  0  0  0  0
    4.9515    1.8546   16.9238 H   0  0  0  0  0  0  0  0  0  0  0  0
    3.8564    1.8642   19.1630 H   0  0  0  0  0  0  0  0  0  0  0  0
  1  2  2  0
  2  3  1  0
  3  4  2  0
  4  5  1  0
  5  6  1  0
  6  7  1  0
  7  8  2  0
  8  9  1  0
  9 10  1  0
 10 11  1  0
 11 12  1  0
 12 13  1  0
 13 14  1  0
 14 15  1  0
 15 16  1  0
 15 17  1  0
 13 18  1  0
 13 19  1  0
 12 20  1  0
 12 21  1  0
 11 22  1  0
 11 23  1  0
 10 24  1  0
  9 25  1  0
 25 26  1  0
 26 27  2  0
 27 28  1  0
 28 29  2  0
 29 30  1  0
 30 31  2  0
 31 32  1  0
 32 33  2  0
 33 34  1  0
 34 35  1  0
 33 36  1  0
 32 37  1  0
 29 38  1  0
 27 39  1  0
 25 40  2  0
  6 41  1  0
  6 42  1  0
  5 43  2  0
 43 44  1  0
  4 45  1  0
  2 46  1  0
  1 47  1  0
 43  1  1  0
 40  7  1  0
 15 10  1  0
 31 26  1  0
 34 30  1  0
M  END
>  <cnnaffinity>  (1) 
-6.73909

>  <filename>  (1) 
c1cncc(Cc2nc(-c3cncc4[nH]ccc34)n(C3CCCSC3)n2)c1

$$$$
