
     RDKit          3D

 33 35  0  0  0  0  0  0  0  0999 V2000
    4.8548    1.2468   19.0830 C   0  0  0  0  0  0  0  0  0  0  0  0
    5.4421    1.3036   17.8138 C   0  0  0  0  0  0  0  0  0  0  0  0
    6.6151    0.7190   17.5207 N   0  0  0  0  0  0  0  0  0  0  0  0
    7.2428    0.0660   18.5078 C   0  0  0  0  0  0  0  0  0  0  0  0
    6.7437   -0.0656   19.8359 C   0  0  0  0  0  0  0  0  0  0  0  0
    7.4412   -0.7738   20.8197 N   0  0  0  0  0  0  0  0  0  0  0  0
    6.7911   -1.5821   21.8492 C   0  0  0  0  0  0  0  0  0  0  0  0
    7.8714   -1.7737   22.9146 C   0  0  0  0  0  0  0  0  0  0  0  0
    9.1879   -1.5494   22.1873 C   0  0  0  0  0  0  0  0  0  0  0  0
   10.2098   -1.2211   23.1613 N   0  0  0  0  0  0  0  0  0  0  0  0
   11.4668   -0.8678   22.8487 C   0  0  0  0  0  0  0  0  0  0  0  0
   12.1351   -1.3487   21.7301 C   0  0  0  0  0  0  0  0  0  0  0  0
   13.4734   -1.0452   21.7215 C   0  0  0  0  0  0  0  0  0  0  0  0
   14.0643   -0.2847   22.6477 N   0  0  0  0  0  0  0  0  0  0  0  0
   13.2817    0.1917   23.6101 C   0  0  0  0  0  0  0  0  0  0  0  0
   11.9885   -0.0493   23.7632 N   0  0  0  0  0  0  0  0  0  0  0  0
   13.7731    0.8180   24.3586 H   0  0  0  0  0  0  0  0  0  0  0  0
   14.1232   -1.4047   20.9245 H   0  0  0  0  0  0  0  0  0  0  0  0
   11.6308   -1.8970   20.9496 H   0  0  0  0  0  0  0  0  0  0  0  0
    9.9581   -0.5781   23.8973 H   0  0  0  0  0  0  0  0  0  0  0  0
    8.8355   -0.4838   21.1338 C   0  0  0  0  0  0  0  0  0  0  0  0
    9.4848   -0.5427   20.2507 H   0  0  0  0  0  0  0  0  0  0  0  0
    8.9804    0.5253   21.5577 H   0  0  0  0  0  0  0  0  0  0  0  0
    9.4497   -2.4638   21.6347 H   0  0  0  0  0  0  0  0  0  0  0  0
    7.8417   -2.7463   23.4137 H   0  0  0  0  0  0  0  0  0  0  0  0
    7.7639   -1.0169   23.7006 H   0  0  0  0  0  0  0  0  0  0  0  0
    6.4490   -2.5462   21.4397 H   0  0  0  0  0  0  0  0  0  0  0  0
    5.9147   -1.0778   22.2681 H   0  0  0  0  0  0  0  0  0  0  0  0
    5.5046    0.5531   20.1083 C   0  0  0  0  0  0  0  0  0  0  0  0
    5.0977    0.5031   21.1184 H   0  0  0  0  0  0  0  0  0  0  0  0
    8.1897   -0.4048   18.2435 H   0  0  0  0  0  0  0  0  0  0  0  0
    4.9626    1.8374   16.9993 H   0  0  0  0  0  0  0  0  0  0  0  0
    3.9123    1.7526   19.2651 H   0  0  0  0  0  0  0  0  0  0  0  0
  1  2  2  0
  2  3  1  0
  3  4  2  0
  4  5  1  0
  5  6  1  0
  6  7  1  0
  7  8  1  0
  8  9  1  0
  9 10  1  0
 10 11  1  0
 11 12  2  0
 12 13  1  0
 13 14  2  0
 14 15  1  0
 15 16  2  0
 15 17  1  0
 13 18  1  0
 12 19  1  0
 10 20  1  0
  9 21  1  0
 21 22  1  0
 21 23  1  0
  9 24  1  0
  8 25  1  0
  8 26  1  0
  7 27  1  0
  7 28  1  0
  5 29  2  0
 29 30  1  0
  4 31  1  0
  2 32  1  0
  1 33  1  0
 29  1  1  0
 21  6  1  0
 16 11  1  0
M  END
>  <cnnaffinity>  (1) 
-5.30772

>  <filename>  (1) 
c1cncc(N2CCC(Nc3ccncn3)C2)c1

$$$$
