
     RDKit          3D

 40 44  0  0  0  0  0  0  0  0999 V2000
    4.6653    1.3407   18.7826 C   0  0  0  0  0  0  0  0  0  0  0  0
    5.3048    1.2507   17.5429 C   0  0  0  0  0  0  0  0  0  0  0  0
    6.3761    0.4754   17.3158 N   0  0  0  0  0  0  0  0  0  0  0  0
    6.8741   -0.1982   18.3588 C   0  0  0  0  0  0  0  0  0  0  0  0
    6.3574   -0.1250   19.6637 C   0  0  0  0  0  0  0  0  0  0  0  0
    7.1240   -0.6629   20.8604 C   0  0  0  0  0  0  0  0  0  0  0  0
    8.0527    0.3709   21.4363 C   0  0  0  0  0  0  0  0  0  0  0  0
    9.2506    0.5877   20.9218 N   0  0  0  0  0  0  0  0  0  0  0  0
    9.7315    1.5821   21.7070 N   0  0  0  0  0  0  0  0  0  0  0  0
   11.0942    1.9878   21.7531 C   0  0  0  0  0  0  0  0  0  0  0  0
   11.6717    2.9353   20.9076 C   0  0  0  0  0  0  0  0  0  0  0  0
   12.8213    3.6452   21.3228 C   0  0  0  0  0  0  0  0  0  0  0  0
   13.5103    3.2902   22.4884 C   0  0  0  0  0  0  0  0  0  0  0  0
   13.0398    2.1781   23.2191 C   0  0  0  0  0  0  0  0  0  0  0  0
   11.8490    1.5465   22.8455 C   0  0  0  0  0  0  0  0  0  0  0  0
   11.6377    0.5566   23.7776 N   0  0  0  0  0  0  0  0  0  0  0  0
   12.6979    0.6074   24.6333 C   0  0  0  0  0  0  0  0  0  0  0  0
   13.5395    1.5575   24.3443 N   0  0  0  0  0  0  0  0  0  0  0  0
   12.7969   -0.0694   25.4723 H   0  0  0  0  0  0  0  0  0  0  0  0
   10.9485   -0.1725   23.7029 H   0  0  0  0  0  0  0  0  0  0  0  0
   14.4088    3.8061   22.8120 H   0  0  0  0  0  0  0  0  0  0  0  0
   13.2103    4.4383   20.6889 H   0  0  0  0  0  0  0  0  0  0  0  0
   11.2176    3.1473   19.9495 H   0  0  0  0  0  0  0  0  0  0  0  0
    8.7999    1.9067   22.6545 C   0  0  0  0  0  0  0  0  0  0  0  0
    8.9446    2.9412   23.6880 C   0  0  0  0  0  0  0  0  0  0  0  0
    9.7074    4.0916   23.7632 C   0  0  0  0  0  0  0  0  0  0  0  0
    9.4938    4.8051   24.9829 C   0  0  0  0  0  0  0  0  0  0  0  0
    8.5677    4.1972   25.7850 C   0  0  0  0  0  0  0  0  0  0  0  0
    7.9430    2.7673   25.0830 S   0  0  0  0  0  0  0  0  0  0  0  0
    8.2240    4.5016   26.7647 H   0  0  0  0  0  0  0  0  0  0  0  0
    9.9755    5.7397   25.2531 H   0  0  0  0  0  0  0  0  0  0  0  0
   10.3747    4.4246   22.9686 H   0  0  0  0  0  0  0  0  0  0  0  0
    7.7366    1.1373   22.5004 N   0  0  0  0  0  0  0  0  0  0  0  0
    6.4425   -0.9756   21.6596 H   0  0  0  0  0  0  0  0  0  0  0  0
    7.7350   -1.5225   20.5718 H   0  0  0  0  0  0  0  0  0  0  0  0
    5.1997    0.6338   19.8597 C   0  0  0  0  0  0  0  0  0  0  0  0
    4.7500    0.6827   20.8531 H   0  0  0  0  0  0  0  0  0  0  0  0
    7.7442   -0.8264   18.1591 H   0  0  0  0  0  0  0  0  0  0  0  0
    4.9482    1.8270   16.6924 H   0  0  0  0  0  0  0  0  0  0  0  0
    3.7954    1.9764   18.8971 H   0  0  0  0  0  0  0  0  0  0  0  0
  1  2  2  0
  2  3  1  0
  3  4  2  0
  4  5  1  0
  5  6  1  0
  6  7  1  0
  7  8  2  0
  8  9  1  0
  9 10  1  0
 10 11  2  0
 11 12  1  0
 12 13  2  0
 13 14  1  0
 14 15  2  0
 15 16  1  0
 16 17  1  0
 17 18  2  0
 17 19  1  0
 16 20  1  0
 13 21  1  0
 12 22  1  0
 11 23  1  0
  9 24  1  0
 24 25  1  0
 25 26  2  0
 26 27  1  0
 27 28  2  0
 28 29  1  0
 28 30  1  0
 27 31  1  0
 26 32  1  0
 24 33  2  0
  6 34  1  0
  6 35  1  0
  5 36  2  0
 36 37  1  0
  4 38  1  0
  2 39  1  0
  1 40  1  0
 36  1  1  0
 33  7  1  0
 15 10  1  0
 29 25  1  0
 18 14  1  0
M  END
>  <cnnaffinity>  (1) 
-6.28044

>  <filename>  (1) 
c1cncc(Cc2nc(-c3cccs3)n(-c3cccc4nc[nH]c34)n2)c1

$$$$
