
     RDKit          3D

 34 37  0  0  0  0  0  0  0  0999 V2000
    4.9215    1.8133   16.9698 H   0  0  0  0  0  0  0  0  0  0  0  0
    5.3856    1.3007   17.8118 C   0  0  0  0  0  0  0  0  0  0  0  0
    6.5500    0.6855   17.5530 N   0  0  0  0  0  0  0  0  0  0  0  0
    7.1526    0.0603   18.5719 C   0  0  0  0  0  0  0  0  0  0  0  0
    8.1109   -0.4072   18.3408 H   0  0  0  0  0  0  0  0  0  0  0  0
    6.6499    0.0088   19.8842 C   0  0  0  0  0  0  0  0  0  0  0  0
    7.3939   -0.6819   20.9853 C   0  0  0  0  0  0  0  0  0  0  0  0
    7.6332   -2.0544   20.8893 C   0  0  0  0  0  0  0  0  0  0  0  0
    7.2319   -2.5678   20.0188 H   0  0  0  0  0  0  0  0  0  0  0  0
    8.2515   -2.8023   21.8039 N   0  0  0  0  0  0  0  0  0  0  0  0
    8.6137   -2.1963   22.9441 C   0  0  0  0  0  0  0  0  0  0  0  0
    9.0922   -2.8313   23.6948 H   0  0  0  0  0  0  0  0  0  0  0  0
    8.3784   -0.8514   23.1871 C   0  0  0  0  0  0  0  0  0  0  0  0
    8.6564   -0.4042   24.1339 H   0  0  0  0  0  0  0  0  0  0  0  0
    7.7852   -0.0554   22.1868 C   0  0  0  0  0  0  0  0  0  0  0  0
    7.6048    1.3792   22.3880 C   0  0  0  0  0  0  0  0  0  0  0  0
    7.9344    2.3843   21.5169 C   0  0  0  0  0  0  0  0  0  0  0  0
    8.3623    2.3023   20.5220 H   0  0  0  0  0  0  0  0  0  0  0  0
    7.5973    3.5959   22.0727 N   0  0  0  0  0  0  0  0  0  0  0  0
    7.7355    4.4944   21.6452 H   0  0  0  0  0  0  0  0  0  0  0  0
    7.0159    3.3916   23.3027 C   0  0  0  0  0  0  0  0  0  0  0  0
    6.4988    4.3059   24.2443 C   0  0  0  0  0  0  0  0  0  0  0  0
    6.5336    5.3763   24.0615 H   0  0  0  0  0  0  0  0  0  0  0  0
    5.9442    3.7904   25.4107 C   0  0  0  0  0  0  0  0  0  0  0  0
    5.5407    4.4668   26.1637 H   0  0  0  0  0  0  0  0  0  0  0  0
    5.8854    2.3932   25.6449 C   0  0  0  0  0  0  0  0  0  0  0  0
    5.4438    2.0117   26.5625 H   0  0  0  0  0  0  0  0  0  0  0  0
    6.3935    1.4988   24.7108 C   0  0  0  0  0  0  0  0  0  0  0  0
    6.3319    0.4221   24.8633 H   0  0  0  0  0  0  0  0  0  0  0  0
    6.9920    2.0029   23.5360 C   0  0  0  0  0  0  0  0  0  0  0  0
    5.4222    0.6411   20.1281 C   0  0  0  0  0  0  0  0  0  0  0  0
    5.0173    0.6344   21.1419 H   0  0  0  0  0  0  0  0  0  0  0  0
    4.7862    1.3018   19.0752 C   0  0  0  0  0  0  0  0  0  0  0  0
    3.8624    1.8423   19.2253 H   0  0  0  0  0  0  0  0  0  0  0  0
  1  2  1  0
  2  3  2  0
  3  4  1  0
  4  5  1  0
  4  6  2  0
  6  7  1  0
  7  8  2  0
  8  9  1  0
  8 10  1  0
 10 11  2  0
 11 12  1  0
 11 13  1  0
 13 14  1  0
 13 15  2  0
 15 16  1  0
 16 17  2  0
 17 18  1  0
 17 19  1  0
 19 20  1  0
 19 21  1  0
 21 22  2  0
 22 23  1  0
 22 24  1  0
 24 25  1  0
 24 26  2  0
 26 27  1  0
 26 28  1  0
 28 29  1  0
 28 30  2  0
  6 31  1  0
 31 32  1  0
 31 33  2  0
 33 34  1  0
 33  2  1  0
 15  7  1  0
 30 16  1  0
 30 21  1  0
M  END
>  <cnnaffinity>  (1) 
-5.28944

>  <filename>  (1) 
c1cncc(-c2cnccc2-c2c[nH]c3ccccc23)c1

$$$$
