
     RDKit          3D

 36 38  0  0  0  0  0  0  0  0999 V2000
    5.7447   -1.5614   21.9998 H   0  0  0  0  0  0  0  0  0  0  0  0
    6.8238   -1.4398   21.9823 C   0  0  0  0  0  0  0  0  0  0  0  0
    7.5247   -2.0099   22.9763 N   0  0  0  0  0  0  0  0  0  0  0  0
    8.8665   -1.8858   22.8931 C   0  0  0  0  0  0  0  0  0  0  0  0
    9.4465   -2.3094   23.7066 H   0  0  0  0  0  0  0  0  0  0  0  0
    9.4972   -1.2821   21.7871 C   0  0  0  0  0  0  0  0  0  0  0  0
   11.0088   -1.2201   21.6946 C   0  0  0  0  0  0  0  0  0  0  0  0
   11.2710   -0.9559   20.6589 H   0  0  0  0  0  0  0  0  0  0  0  0
   11.4189   -2.2200   21.8993 H   0  0  0  0  0  0  0  0  0  0  0  0
   11.6188   -0.3160   22.6670 N   0  0  0  0  0  0  0  0  0  0  0  0
   13.0914   -0.3829   22.6783 C   0  0  0  0  0  0  0  0  0  0  0  0
   13.5503    0.1038   21.7901 H   0  0  0  0  0  0  0  0  0  0  0  0
   13.4345   -1.4236   22.6764 H   0  0  0  0  0  0  0  0  0  0  0  0
   13.5950    0.3639   23.9214 C   0  0  0  0  0  0  0  0  0  0  0  0
   13.1512   -0.1009   24.8099 H   0  0  0  0  0  0  0  0  0  0  0  0
   14.6778    0.2734   24.0117 H   0  0  0  0  0  0  0  0  0  0  0  0
   13.2390    1.7907   23.9260 N   0  0  0  0  0  0  0  0  0  0  0  0
   13.7723    2.2555   23.1928 H   0  0  0  0  0  0  0  0  0  0  0  0
   11.8001    1.9515   23.6548 C   0  0  0  0  0  0  0  0  0  0  0  0
   11.2543    1.6671   24.5621 H   0  0  0  0  0  0  0  0  0  0  0  0
   11.5922    3.0118   23.4754 H   0  0  0  0  0  0  0  0  0  0  0  0
   11.2317    1.1038   22.4947 C   0  0  0  0  0  0  0  0  0  0  0  0
   11.5791    1.5171   21.5211 H   0  0  0  0  0  0  0  0  0  0  0  0
   10.1389    1.1879   22.5000 H   0  0  0  0  0  0  0  0  0  0  0  0
    8.7825   -0.7335   20.7816 N   0  0  0  0  0  0  0  0  0  0  0  0
    7.4395   -0.7472   20.9073 C   0  0  0  0  0  0  0  0  0  0  0  0
    6.6797   -0.0281   19.8599 C   0  0  0  0  0  0  0  0  0  0  0  0
    7.2201    0.0450   18.5625 C   0  0  0  0  0  0  0  0  0  0  0  0
    8.1710   -0.4394   18.3486 H   0  0  0  0  0  0  0  0  0  0  0  0
    6.6227    0.6655   17.5423 N   0  0  0  0  0  0  0  0  0  0  0  0
    5.4604    1.2840   17.7932 C   0  0  0  0  0  0  0  0  0  0  0  0
    5.0009    1.7951   16.9494 H   0  0  0  0  0  0  0  0  0  0  0  0
    4.8424    1.2911   19.0467 C   0  0  0  0  0  0  0  0  0  0  0  0
    3.9161    1.8353   19.1840 H   0  0  0  0  0  0  0  0  0  0  0  0
    5.4534    0.6115   20.1006 C   0  0  0  0  0  0  0  0  0  0  0  0
    4.9930    0.6027   21.0902 H   0  0  0  0  0  0  0  0  0  0  0  0
  1  2  1  0
  2  3  2  0
  3  4  1  0
  4  5  1  0
  4  6  2  0
  6  7  1  0
  7  8  1  0
  7  9  1  0
  7 10  1  0
 10 11  1  0
 11 12  1  0
 11 13  1  0
 11 14  1  0
 14 15  1  0
 14 16  1  0
 14 17  1  0
 17 18  1  0
 17 19  1  0
 19 20  1  0
 19 21  1  0
 19 22  1  0
 22 23  1  0
 22 24  1  0
  6 25  1  0
 25 26  2  0
 26 27  1  0
 27 28  2  0
 28 29  1  0
 28 30  1  0
 30 31  2  0
 31 32  1  0
 31 33  1  0
 33 34  1  0
 33 35  2  0
 35 36  1  0
 26  2  1  0
 35 27  1  0
 22 10  1  0
M  END
>  <cnnaffinity>  (1) 
-4.60754

>  <filename>  (1) 
c1cncc(-c2cncc(CN3CCNCC3)n2)c1

$$$$
