
     RDKit          3D

 43 47  0  0  0  0  0  0  0  0999 V2000
    4.7956    1.2974   19.0851 C   0  0  0  0  0  0  0  0  0  0  0  0
    5.4164    1.2862   17.8330 C   0  0  0  0  0  0  0  0  0  0  0  0
    6.5744    0.6568   17.5804 N   0  0  0  0  0  0  0  0  0  0  0  0
    7.1685    0.0441   18.6141 C   0  0  0  0  0  0  0  0  0  0  0  0
    6.6459    0.0097   19.9230 C   0  0  0  0  0  0  0  0  0  0  0  0
    7.3549   -0.7076   21.0488 C   0  0  0  0  0  0  0  0  0  0  0  0
    6.9903   -2.1542   21.2705 C   0  0  0  0  0  0  0  0  0  0  0  0
    7.8319   -3.1250   21.0386 N   0  0  0  0  0  0  0  0  0  0  0  0
    7.1421   -4.2575   21.4051 O   0  0  0  0  0  0  0  0  0  0  0  0
    5.9456   -3.8591   21.8586 C   0  0  0  0  0  0  0  0  0  0  0  0
    5.1002   -4.9399   22.4493 C   0  0  0  0  0  0  0  0  0  0  0  0
    5.7409   -5.4587   23.7488 C   0  0  0  0  0  0  0  0  0  0  0  0
    5.7257   -4.3991   24.8918 C   0  0  0  0  0  0  0  0  0  0  0  0
    5.0753   -5.1628   26.0620 C   0  0  0  0  0  0  0  0  0  0  0  0
    3.5758   -5.3679   25.7505 C   0  0  0  0  0  0  0  0  0  0  0  0
    3.5883   -6.4521   24.6317 C   0  0  0  0  0  0  0  0  0  0  0  0
    5.0913   -6.6918   24.4072 C   0  0  0  0  0  0  0  0  0  0  0  0
    5.6382   -6.5771   25.8428 C   0  0  0  0  0  0  0  0  0  0  0  0
    6.7331   -6.6205   25.9094 H   0  0  0  0  0  0  0  0  0  0  0  0
    5.2284   -7.3268   26.5289 H   0  0  0  0  0  0  0  0  0  0  0  0
    5.3032   -7.6244   23.8733 H   0  0  0  0  0  0  0  0  0  0  0  0
    3.0762   -6.1420   23.7155 H   0  0  0  0  0  0  0  0  0  0  0  0
    3.1063   -7.3749   24.9676 H   0  0  0  0  0  0  0  0  0  0  0  0
    3.0939   -4.4355   25.4357 H   0  0  0  0  0  0  0  0  0  0  0  0
    3.0428   -5.7304   26.6344 H   0  0  0  0  0  0  0  0  0  0  0  0
    5.2674   -4.7060   27.0370 H   0  0  0  0  0  0  0  0  0  0  0  0
    5.1641   -3.4988   24.6061 H   0  0  0  0  0  0  0  0  0  0  0  0
    6.7417   -4.0726   25.1363 H   0  0  0  0  0  0  0  0  0  0  0  0
    6.7788   -5.7276   23.5178 H   0  0  0  0  0  0  0  0  0  0  0  0
    4.9997   -5.7432   21.7162 H   0  0  0  0  0  0  0  0  0  0  0  0
    4.0963   -4.5526   22.6353 H   0  0  0  0  0  0  0  0  0  0  0  0
    5.7701   -2.5763   21.7626 N   0  0  0  0  0  0  0  0  0  0  0  0
    8.7893   -0.3188   21.3070 C   0  0  0  0  0  0  0  0  0  0  0  0
    7.7417    0.0991   22.2892 C   0  0  0  0  0  0  0  0  0  0  0  0
    7.7035   -0.3994   23.2572 H   0  0  0  0  0  0  0  0  0  0  0  0
    7.4694    1.1544   22.3286 H   0  0  0  0  0  0  0  0  0  0  0  0
    9.4634   -1.1238   21.5937 H   0  0  0  0  0  0  0  0  0  0  0  0
    9.2131    0.4468   20.6581 H   0  0  0  0  0  0  0  0  0  0  0  0
    5.4183    0.6423   20.1480 C   0  0  0  0  0  0  0  0  0  0  0  0
    4.9763    0.6248   21.1473 H   0  0  0  0  0  0  0  0  0  0  0  0
    8.1115   -0.4598   18.3914 H   0  0  0  0  0  0  0  0  0  0  0  0
    4.9648    1.8034   16.9914 H   0  0  0  0  0  0  0  0  0  0  0  0
    3.8620    1.8293   19.2199 H   0  0  0  0  0  0  0  0  0  0  0  0
  1  2  2  0
  2  3  1  0
  3  4  2  0
  4  5  1  0
  5  6  1  0
  6  7  1  0
  7  8  2  0
  8  9  1  0
  9 10  1  0
 10 11  1  0
 11 12  1  0
 12 13  1  0
 13 14  1  0
 14 15  1  0
 15 16  1  0
 16 17  1  0
 17 18  1  0
 18 19  1  0
 18 20  1  0
 17 21  1  0
 16 22  1  0
 16 23  1  0
 15 24  1  0
 15 25  1  0
 14 26  1  0
 13 27  1  0
 13 28  1  0
 12 29  1  0
 11 30  1  0
 11 31  1  0
 10 32  2  0
  6 33  1  0
 33 34  1  0
 34 35  1  0
 34 36  1  0
 33 37  1  0
 33 38  1  0
  5 39  2  0
 39 40  1  0
  4 41  1  0
  2 42  1  0
  1 43  1  0
 39  1  1  0
 34  6  1  0
 32  7  1  0
 17 12  1  0
 18 14  1  0
M  END
>  <cnnaffinity>  (1) 
-5.74289

>  <filename>  (1) 
c1cncc(C2(c3noc(CC4CC5CCC4C5)n3)CC2)c1

$$$$
