
     RDKit          3D

 31 34  0  0  0  0  0  0  0  0999 V2000
    4.8078    1.3011   19.1069 C   0  0  0  0  0  0  0  0  0  0  0  0
    5.4084    1.2909   17.8426 C   0  0  0  0  0  0  0  0  0  0  0  0
    6.5774    0.6729   17.5960 N   0  0  0  0  0  0  0  0  0  0  0  0
    7.1767    0.0410   18.6086 C   0  0  0  0  0  0  0  0  0  0  0  0
    6.6534   -0.0046   19.9129 C   0  0  0  0  0  0  0  0  0  0  0  0
    7.3497   -0.7061   20.9395 N   0  0  0  0  0  0  0  0  0  0  0  0
    7.7502   -1.9737   20.7371 N   0  0  0  0  0  0  0  0  0  0  0  0
    8.2438   -2.3649   21.9040 C   0  0  0  0  0  0  0  0  0  0  0  0
    8.1904   -1.3582   22.8736 C   0  0  0  0  0  0  0  0  0  0  0  0
    7.6129   -0.2907   22.2253 C   0  0  0  0  0  0  0  0  0  0  0  0
    7.4349    1.0712   22.7017 C   0  0  0  0  0  0  0  0  0  0  0  0
    7.4468    2.2484   21.9769 C   0  0  0  0  0  0  0  0  0  0  0  0
    7.3010    3.2496   22.9001 N   0  0  0  0  0  0  0  0  0  0  0  0
    7.2475    4.6235   22.7503 C   0  0  0  0  0  0  0  0  0  0  0  0
    7.1036    5.4082   23.8563 C   0  0  0  0  0  0  0  0  0  0  0  0
    7.0112    4.8004   25.1649 C   0  0  0  0  0  0  0  0  0  0  0  0
    7.0638    3.4399   25.3147 C   0  0  0  0  0  0  0  0  0  0  0  0
    7.2103    2.6202   24.1504 C   0  0  0  0  0  0  0  0  0  0  0  0
    7.3016    1.3088   24.0350 N   0  0  0  0  0  0  0  0  0  0  0  0
    7.0057    2.9287   26.2712 H   0  0  0  0  0  0  0  0  0  0  0  0
    6.8975    5.4403   26.0401 H   0  0  0  0  0  0  0  0  0  0  0  0
    7.0586    6.4904   23.7496 H   0  0  0  0  0  0  0  0  0  0  0  0
    7.3248    4.9869   21.7269 H   0  0  0  0  0  0  0  0  0  0  0  0
    7.5689    2.4272   20.9192 H   0  0  0  0  0  0  0  0  0  0  0  0
    8.5320   -1.3618   23.8981 H   0  0  0  0  0  0  0  0  0  0  0  0
    8.6299   -3.3621   22.0282 H   0  0  0  0  0  0  0  0  0  0  0  0
    5.4340    0.6380   20.1669 C   0  0  0  0  0  0  0  0  0  0  0  0
    5.0021    0.6312   21.1716 H   0  0  0  0  0  0  0  0  0  0  0  0
    8.1237   -0.4392   18.3807 H   0  0  0  0  0  0  0  0  0  0  0  0
    4.9209    1.7792   16.9978 H   0  0  0  0  0  0  0  0  0  0  0  0
    3.8764    1.8401   19.2613 H   0  0  0  0  0  0  0  0  0  0  0  0
  1  2  2  0
  2  3  1  0
  3  4  2  0
  4  5  1  0
  5  6  1  0
  6  7  1  0
  7  8  2  0
  8  9  1  0
  9 10  2  0
 10 11  1  0
 11 12  2  0
 12 13  1  0
 13 14  1  0
 14 15  2  0
 15 16  1  0
 16 17  2  0
 17 18  1  0
 18 19  2  0
 17 20  1  0
 16 21  1  0
 15 22  1  0
 14 23  1  0
 12 24  1  0
  9 25  1  0
  8 26  1  0
  5 27  2  0
 27 28  1  0
  4 29  1  0
  2 30  1  0
  1 31  1  0
 27  1  1  0
 10  6  1  0
 19 11  1  0
 18 13  1  0
M  END
>  <cnnaffinity>  (1) 
-5.23539

>  <filename>  (1) 
c1cncc(-n2nccc2-c2cn3ccccc3n2)c1

$$$$
