
     RDKit          3D

 34 36  0  0  0  0  0  0  0  0999 V2000
    4.8282    1.3120   19.0656 C   0  0  0  0  0  0  0  0  0  0  0  0
    5.4168    1.3094   17.7962 C   0  0  0  0  0  0  0  0  0  0  0  0
    6.5671    0.6800   17.5183 N   0  0  0  0  0  0  0  0  0  0  0  0
    7.1780    0.0524   18.5343 C   0  0  0  0  0  0  0  0  0  0  0  0
    6.6998    0.0129   19.8551 C   0  0  0  0  0  0  0  0  0  0  0  0
    7.4703   -0.6530   20.9752 C   0  0  0  0  0  0  0  0  0  0  0  0
    8.1601    0.3051   21.9517 C   0  0  0  0  0  0  0  0  0  0  0  0
    9.3502    0.8733   21.3758 N   0  0  0  0  0  0  0  0  0  0  0  0
   10.0185    1.9201   21.9109 C   0  0  0  0  0  0  0  0  0  0  0  0
    9.7241    2.4794   23.1371 C   0  0  0  0  0  0  0  0  0  0  0  0
   10.4730    3.5867   23.5856 C   0  0  0  0  0  0  0  0  0  0  0  0
   10.1357    4.3278   24.7550 C   0  0  0  0  0  0  0  0  0  0  0  0
   10.9657    5.3278   25.2090 C   0  0  0  0  0  0  0  0  0  0  0  0
   12.1651    5.6269   24.4982 C   0  0  0  0  0  0  0  0  0  0  0  0
   12.4813    4.9779   23.3248 C   0  0  0  0  0  0  0  0  0  0  0  0
   11.6150    3.9623   22.8189 C   0  0  0  0  0  0  0  0  0  0  0  0
   11.7803    3.3060   21.5580 C   0  0  0  0  0  0  0  0  0  0  0  0
   11.0087    2.3496   21.0830 N   0  0  0  0  0  0  0  0  0  0  0  0
   12.5886    3.6500   20.9147 H   0  0  0  0  0  0  0  0  0  0  0  0
   13.3835    5.2391   22.7699 H   0  0  0  0  0  0  0  0  0  0  0  0
   12.8155    6.4104   24.8756 H   0  0  0  0  0  0  0  0  0  0  0  0
   10.7185    5.8702   26.1214 H   0  0  0  0  0  0  0  0  0  0  0  0
    9.2144    4.0801   25.2721 H   0  0  0  0  0  0  0  0  0  0  0  0
    8.9438    2.0687   23.7581 H   0  0  0  0  0  0  0  0  0  0  0  0
    9.5549    0.8514   20.3934 H   0  0  0  0  0  0  0  0  0  0  0  0
    8.4471   -0.2549   22.8533 H   0  0  0  0  0  0  0  0  0  0  0  0
    7.4646    1.1003   22.2703 H   0  0  0  0  0  0  0  0  0  0  0  0
    8.2359   -1.3262   20.5717 H   0  0  0  0  0  0  0  0  0  0  0  0
    6.7802   -1.2726   21.5580 H   0  0  0  0  0  0  0  0  0  0  0  0
    5.4787    0.6572   20.1118 C   0  0  0  0  0  0  0  0  0  0  0  0
    5.0496    0.6424   21.1178 H   0  0  0  0  0  0  0  0  0  0  0  0
    8.1009   -0.4705   18.2793 H   0  0  0  0  0  0  0  0  0  0  0  0
    4.9366    1.8238   16.9650 H   0  0  0  0  0  0  0  0  0  0  0  0
    3.8873    1.8282   19.2201 H   0  0  0  0  0  0  0  0  0  0  0  0
  1  2  2  0
  2  3  1  0
  3  4  2  0
  4  5  1  0
  5  6  1  0
  6  7  1  0
  7  8  1  0
  8  9  1  0
  9 10  2  0
 10 11  1  0
 11 12  2  0
 12 13  1  0
 13 14  2  0
 14 15  1  0
 15 16  2  0
 16 17  1  0
 17 18  2  0
 17 19  1  0
 15 20  1  0
 14 21  1  0
 13 22  1  0
 12 23  1  0
 10 24  1  0
  8 25  1  0
  7 26  1  0
  7 27  1  0
  6 28  1  0
  6 29  1  0
  5 30  2  0
 30 31  1  0
  4 32  1  0
  2 33  1  0
  1 34  1  0
 30  1  1  0
 18  9  1  0
 16 11  1  0
M  END
>  <cnnaffinity>  (1) 
-4.8308

>  <filename>  (1) 
c1cncc(CCNc2cc3ccccc3cn2)c1

$$$$
