
     RDKit          3D

 25 27  0  0  0  0  0  0  0  0999 V2000
    9.1839   -5.3167   24.6289 H   0  0  0  0  0  0  0  0  0  0  0  0
    8.7208   -4.5654   23.9981 C   0  0  0  0  0  0  0  0  0  0  0  0
    9.4991   -3.6270   23.3782 N   0  0  0  0  0  0  0  0  0  0  0  0
    8.7607   -2.8137   22.6692 C   0  0  0  0  0  0  0  0  0  0  0  0
    9.2741   -1.7150   21.8877 C   0  0  0  0  0  0  0  0  0  0  0  0
    8.6353   -0.7677   21.0972 C   0  0  0  0  0  0  0  0  0  0  0  0
    7.2723   -0.7077   20.9554 O   0  0  0  0  0  0  0  0  0  0  0  0
    6.6915    0.0084   19.9226 C   0  0  0  0  0  0  0  0  0  0  0  0
    7.1905    0.0511   18.6053 C   0  0  0  0  0  0  0  0  0  0  0  0
    8.1286   -0.4382   18.3604 H   0  0  0  0  0  0  0  0  0  0  0  0
    6.5669    0.6669   17.5897 N   0  0  0  0  0  0  0  0  0  0  0  0
    5.4061    1.2881   17.8451 C   0  0  0  0  0  0  0  0  0  0  0  0
    4.9200    1.7796   17.0018 H   0  0  0  0  0  0  0  0  0  0  0  0
    4.8255    1.2988   19.1184 C   0  0  0  0  0  0  0  0  0  0  0  0
    3.8913    1.8281   19.2683 H   0  0  0  0  0  0  0  0  0  0  0  0
    5.4656    0.6403   20.1771 C   0  0  0  0  0  0  0  0  0  0  0  0
    5.0354    0.6089   21.1777 H   0  0  0  0  0  0  0  0  0  0  0  0
    9.6604    0.0721   20.6260 C   0  0  0  0  0  0  0  0  0  0  0  0
    9.5763    0.9383   19.9903 H   0  0  0  0  0  0  0  0  0  0  0  0
   10.8450   -0.3262   21.0728 N   0  0  0  0  0  0  0  0  0  0  0  0
   10.5988   -1.3967   21.8152 N   0  0  0  0  0  0  0  0  0  0  0  0
   11.3643   -1.8803   22.2638 H   0  0  0  0  0  0  0  0  0  0  0  0
    7.0587   -3.1517   22.7159 S   0  0  0  0  0  0  0  0  0  0  0  0
    7.3848   -4.4681   23.7526 C   0  0  0  0  0  0  0  0  0  0  0  0
    6.6066   -5.1040   24.1441 H   0  0  0  0  0  0  0  0  0  0  0  0
  1  2  1  0
  2  3  1  0
  3  4  2  0
  4  5  1  0
  5  6  2  0
  6  7  1  0
  7  8  1  0
  8  9  2  0
  9 10  1  0
  9 11  1  0
 11 12  2  0
 12 13  1  0
 12 14  1  0
 14 15  1  0
 14 16  2  0
 16 17  1  0
  6 18  1  0
 18 19  1  0
 18 20  2  0
 20 21  1  0
 21 22  1  0
  4 23  1  0
 23 24  1  0
 24 25  1  0
 24  2  2  0
 21  5  1  0
 16  8  1  0
M  END
>  <cnnaffinity>  (1) 
-5.18955

>  <filename>  (1) 
c1cncc(Oc2cn[nH]c2-c2nccs2)c1

$$$$
