
     RDKit          3D

 35 38  0  0  0  0  0  0  0  0999 V2000
    8.6075   -1.7688   19.8239 H   0  0  0  0  0  0  0  0  0  0  0  0
    8.4364   -1.4586   20.8417 C   0  0  0  0  0  0  0  0  0  0  0  0
    9.0302   -2.1721   21.8131 N   0  0  0  0  0  0  0  0  0  0  0  0
    8.8334   -1.6965   23.0510 C   0  0  0  0  0  0  0  0  0  0  0  0
    9.3013   -2.2655   23.8440 H   0  0  0  0  0  0  0  0  0  0  0  0
    8.0401   -0.5415   23.3458 C   0  0  0  0  0  0  0  0  0  0  0  0
    7.9988   -0.0476   24.7622 C   0  0  0  0  0  0  0  0  0  0  0  0
    9.1818   -0.1474   25.4909 C   0  0  0  0  0  0  0  0  0  0  0  0
   10.1000   -0.4933   25.0259 H   0  0  0  0  0  0  0  0  0  0  0  0
    9.2543    0.1789   26.8628 C   0  0  0  0  0  0  0  0  0  0  0  0
   10.1900    0.0187   27.3965 H   0  0  0  0  0  0  0  0  0  0  0  0
    8.1508    0.6515   27.5249 C   0  0  0  0  0  0  0  0  0  0  0  0
    8.2023    0.9015   28.5826 H   0  0  0  0  0  0  0  0  0  0  0  0
    6.9046    0.7584   26.8437 C   0  0  0  0  0  0  0  0  0  0  0  0
    5.7311    1.1182   27.5715 C   0  0  0  0  0  0  0  0  0  0  0  0
    5.8361    1.4118   28.6151 H   0  0  0  0  0  0  0  0  0  0  0  0
    4.4928    1.0394   26.9860 C   0  0  0  0  0  0  0  0  0  0  0  0
    3.5974    1.1934   27.5760 H   0  0  0  0  0  0  0  0  0  0  0  0
    4.3775    0.7075   25.6112 C   0  0  0  0  0  0  0  0  0  0  0  0
    3.3928    0.6264   25.1616 H   0  0  0  0  0  0  0  0  0  0  0  0
    5.5044    0.4677   24.8578 C   0  0  0  0  0  0  0  0  0  0  0  0
    5.4271    0.2841   23.7944 H   0  0  0  0  0  0  0  0  0  0  0  0
    6.8087    0.4207   25.4469 C   0  0  0  0  0  0  0  0  0  0  0  0
    7.4021    0.1080   22.3477 N   0  0  0  0  0  0  0  0  0  0  0  0
    7.6052   -0.3447   21.0903 C   0  0  0  0  0  0  0  0  0  0  0  0
    6.8499    0.3082   19.9903 C   0  0  0  0  0  0  0  0  0  0  0  0
    7.3365    0.3049   18.6715 C   0  0  0  0  0  0  0  0  0  0  0  0
    8.3342   -0.0768   18.4507 H   0  0  0  0  0  0  0  0  0  0  0  0
    6.6539    0.7625   17.6183 N   0  0  0  0  0  0  0  0  0  0  0  0
    5.4424    1.2930   17.8498 C   0  0  0  0  0  0  0  0  0  0  0  0
    4.9135    1.6800   16.9794 H   0  0  0  0  0  0  0  0  0  0  0  0
    4.8792    1.3799   19.1267 C   0  0  0  0  0  0  0  0  0  0  0  0
    3.9112    1.8482   19.2592 H   0  0  0  0  0  0  0  0  0  0  0  0
    5.5915    0.8822   20.2152 C   0  0  0  0  0  0  0  0  0  0  0  0
    5.1908    0.9292   21.2298 H   0  0  0  0  0  0  0  0  0  0  0  0
  1  2  1  0
  2  3  2  0
  3  4  1  0
  4  5  1  0
  4  6  2  0
  6  7  1  0
  7  8  2  0
  8  9  1  0
  8 10  1  0
 10 11  1  0
 10 12  2  0
 12 13  1  0
 12 14  1  0
 14 15  2  0
 15 16  1  0
 15 17  1  0
 17 18  1  0
 17 19  2  0
 19 20  1  0
 19 21  1  0
 21 22  1  0
 21 23  2  0
  6 24  1  0
 24 25  2  0
 25 26  1  0
 26 27  2  0
 27 28  1  0
 27 29  1  0
 29 30  2  0
 30 31  1  0
 30 32  1  0
 32 33  1  0
 32 34  2  0
 34 35  1  0
 25  2  1  0
 34 26  1  0
 23  7  1  0
 23 14  1  0
M  END
>  <cnnaffinity>  (1) 
-5.43192

>  <filename>  (1) 
c1cncc(-c2cncc(-c3cccc4ccccc34)n2)c1

$$$$
