
     RDKit          3D

 47 51  0  0  0  0  0  0  0  0999 V2000
    4.8100    1.3080   19.0598 C   0  0  0  0  0  0  0  0  0  0  0  0
    5.4014    1.2974   17.7931 C   0  0  0  0  0  0  0  0  0  0  0  0
    6.5497    0.6576   17.5230 N   0  0  0  0  0  0  0  0  0  0  0  0
    7.1517    0.0177   18.5334 C   0  0  0  0  0  0  0  0  0  0  0  0
    6.6597   -0.0243   19.8495 C   0  0  0  0  0  0  0  0  0  0  0  0
    7.4332   -0.6704   20.9928 C   0  0  0  0  0  0  0  0  0  0  0  0
    8.3162    0.2942   21.7328 C   0  0  0  0  0  0  0  0  0  0  0  0
    9.5925    0.4514   21.4326 N   0  0  0  0  0  0  0  0  0  0  0  0
    9.9507    1.5044   22.2216 N   0  0  0  0  0  0  0  0  0  0  0  0
   11.2535    2.0560   22.2770 C   0  0  0  0  0  0  0  0  0  0  0  0
   11.5024    3.4320   22.2415 C   0  0  0  0  0  0  0  0  0  0  0  0
   12.8143    3.9351   22.3854 C   0  0  0  0  0  0  0  0  0  0  0  0
   13.8825    3.0849   22.6551 C   0  0  0  0  0  0  0  0  0  0  0  0
   13.6492    1.6904   22.6804 C   0  0  0  0  0  0  0  0  0  0  0  0
   12.3554    1.2035   22.4440 C   0  0  0  0  0  0  0  0  0  0  0  0
   12.4795   -0.1629   22.4048 N   0  0  0  0  0  0  0  0  0  0  0  0
   13.8013   -0.4360   22.5958 C   0  0  0  0  0  0  0  0  0  0  0  0
   14.5356    0.6248   22.7731 N   0  0  0  0  0  0  0  0  0  0  0  0
   14.1790   -1.4508   22.5885 H   0  0  0  0  0  0  0  0  0  0  0  0
   11.7434   -0.7681   22.0690 H   0  0  0  0  0  0  0  0  0  0  0  0
   14.8914    3.4716   22.7128 H   0  0  0  0  0  0  0  0  0  0  0  0
   12.9981    5.0043   22.3040 H   0  0  0  0  0  0  0  0  0  0  0  0
   10.6786    4.1352   22.1472 H   0  0  0  0  0  0  0  0  0  0  0  0
    8.9012    1.8628   23.0030 C   0  0  0  0  0  0  0  0  0  0  0  0
    8.9236    2.9571   24.0132 C   0  0  0  0  0  0  0  0  0  0  0  0
    8.1522    4.1881   23.5442 C   0  0  0  0  0  0  0  0  0  0  0  0
    6.6433    3.9727   23.4335 C   0  0  0  0  0  0  0  0  0  0  0  0
    6.0846    5.3540   23.7772 C   0  0  0  0  0  0  0  0  0  0  0  0
    7.1453    5.9249   24.7371 C   0  0  0  0  0  0  0  0  0  0  0  0
    8.3420    5.1844   24.5322 O   0  0  0  0  0  0  0  0  0  0  0  0
    7.3409    6.9895   24.5533 H   0  0  0  0  0  0  0  0  0  0  0  0
    6.8471    5.8160   25.7881 H   0  0  0  0  0  0  0  0  0  0  0  0
    6.0015    5.9760   22.8774 H   0  0  0  0  0  0  0  0  0  0  0  0
    5.0958    5.3047   24.2454 H   0  0  0  0  0  0  0  0  0  0  0  0
    6.3337    3.2288   24.1777 H   0  0  0  0  0  0  0  0  0  0  0  0
    6.3521    3.5921   22.4482 H   0  0  0  0  0  0  0  0  0  0  0  0
    8.5513    4.5638   22.5827 H   0  0  0  0  0  0  0  0  0  0  0  0
    9.9422    3.2589   24.2562 H   0  0  0  0  0  0  0  0  0  0  0  0
    8.4625    2.6167   24.9470 H   0  0  0  0  0  0  0  0  0  0  0  0
    7.8539    1.1177   22.7125 N   0  0  0  0  0  0  0  0  0  0  0  0
    6.7296   -1.0822   21.7218 H   0  0  0  0  0  0  0  0  0  0  0  0
    8.0540   -1.4930   20.6242 H   0  0  0  0  0  0  0  0  0  0  0  0
    5.4537    0.6401   20.1036 C   0  0  0  0  0  0  0  0  0  0  0  0
    5.0357    0.6356   21.1123 H   0  0  0  0  0  0  0  0  0  0  0  0
    8.0850   -0.4917   18.2871 H   0  0  0  0  0  0  0  0  0  0  0  0
    4.9346    1.8219   16.9599 H   0  0  0  0  0  0  0  0  0  0  0  0
    3.8776    1.8386   19.2137 H   0  0  0  0  0  0  0  0  0  0  0  0
  1  2  2  0
  2  3  1  0
  3  4  2  0
  4  5  1  0
  5  6  1  0
  6  7  1  0
  7  8  2  0
  8  9  1  0
  9 10  1  0
 10 11  2  0
 11 12  1  0
 12 13  2  0
 13 14  1  0
 14 15  2  0
 15 16  1  0
 16 17  1  0
 17 18  2  0
 17 19  1  0
 16 20  1  0
 13 21  1  0
 12 22  1  0
 11 23  1  0
  9 24  1  0
 24 25  1  0
 25 26  1  0
 26 27  1  0
 27 28  1  0
 28 29  1  0
 29 30  1  0
 29 31  1  0
 29 32  1  0
 28 33  1  0
 28 34  1  0
 27 35  1  0
 27 36  1  0
 26 37  1  0
 25 38  1  0
 25 39  1  0
 24 40  2  0
  6 41  1  0
  6 42  1  0
  5 43  2  0
 43 44  1  0
  4 45  1  0
  2 46  1  0
  1 47  1  0
 43  1  1  0
 40  7  1  0
 15 10  1  0
 30 26  1  0
 18 14  1  0
M  END
>  <cnnaffinity>  (1) 
-6.56894

>  <filename>  (1) 
c1cncc(Cc2nc(CC3CCCO3)n(-c3cccc4nc[nH]c34)n2)c1

$$$$
