
     RDKit          3D

 38 41  0  0  0  0  0  0  0  0999 V2000
    4.7997    1.3145   19.0816 C   0  0  0  0  0  0  0  0  0  0  0  0
    5.3994    1.3056   17.8175 C   0  0  0  0  0  0  0  0  0  0  0  0
    6.5600    0.6828   17.5653 N   0  0  0  0  0  0  0  0  0  0  0  0
    7.1537    0.0437   18.5834 C   0  0  0  0  0  0  0  0  0  0  0  0
    6.6329   -0.0427   19.8825 C   0  0  0  0  0  0  0  0  0  0  0  0
    7.3629   -0.7742   20.9927 C   0  0  0  0  0  0  0  0  0  0  0  0
    7.9126    0.1121   21.9535 O   0  0  0  0  0  0  0  0  0  0  0  0
    9.1454    0.6988   21.5768 C   0  0  0  0  0  0  0  0  0  0  0  0
    9.4601    1.8453   22.4827 C   0  0  0  0  0  0  0  0  0  0  0  0
    9.0920    3.0832   22.3781 N   0  0  0  0  0  0  0  0  0  0  0  0
    9.6835    3.6599   23.4774 C   0  0  0  0  0  0  0  0  0  0  0  0
    9.4786    5.0912   23.8256 C   0  0  0  0  0  0  0  0  0  0  0  0
    8.2688    5.7126   23.5656 C   0  0  0  0  0  0  0  0  0  0  0  0
    8.0467    7.0554   23.9736 C   0  0  0  0  0  0  0  0  0  0  0  0
    8.9358    7.7818   24.6158 N   0  0  0  0  0  0  0  0  0  0  0  0
   10.1503    7.2046   24.8683 C   0  0  0  0  0  0  0  0  0  0  0  0
   11.1067    8.0102   25.5498 C   0  0  0  0  0  0  0  0  0  0  0  0
   12.3964    7.5665   25.7160 C   0  0  0  0  0  0  0  0  0  0  0  0
   12.7673    6.2758   25.2548 C   0  0  0  0  0  0  0  0  0  0  0  0
   11.8566    5.4471   24.6429 C   0  0  0  0  0  0  0  0  0  0  0  0
   10.5087    5.8805   24.4551 C   0  0  0  0  0  0  0  0  0  0  0  0
   12.1215    4.4487   24.3066 H   0  0  0  0  0  0  0  0  0  0  0  0
   13.7879    5.9414   25.3809 H   0  0  0  0  0  0  0  0  0  0  0  0
   13.1500    8.2116   26.1575 H   0  0  0  0  0  0  0  0  0  0  0  0
   10.7570    9.0046   25.8118 H   0  0  0  0  0  0  0  0  0  0  0  0
    7.0854    7.5308   23.7686 H   0  0  0  0  0  0  0  0  0  0  0  0
    7.4701    5.1836   23.0581 H   0  0  0  0  0  0  0  0  0  0  0  0
   10.3699    2.8161   24.2147 N   0  0  0  0  0  0  0  0  0  0  0  0
   10.2216    1.6137   23.5568 O   0  0  0  0  0  0  0  0  0  0  0  0
    9.9706   -0.0244   21.6285 H   0  0  0  0  0  0  0  0  0  0  0  0
    9.0911    1.1043   20.5580 H   0  0  0  0  0  0  0  0  0  0  0  0
    6.6844   -1.4049   21.5769 H   0  0  0  0  0  0  0  0  0  0  0  0
    8.1421   -1.4292   20.5729 H   0  0  0  0  0  0  0  0  0  0  0  0
    5.4336    0.6436   20.1317 C   0  0  0  0  0  0  0  0  0  0  0  0
    5.0275    0.6622   21.1433 H   0  0  0  0  0  0  0  0  0  0  0  0
    8.1124   -0.4146   18.3351 H   0  0  0  0  0  0  0  0  0  0  0  0
    4.9382    1.8193   16.9709 H   0  0  0  0  0  0  0  0  0  0  0  0
    3.8689    1.8553   19.2250 H   0  0  0  0  0  0  0  0  0  0  0  0
  1  2  2  0
  2  3  1  0
  3  4  2  0
  4  5  1  0
  5  6  1  0
  6  7  1  0
  7  8  1  0
  8  9  1  0
  9 10  2  0
 10 11  1  0
 11 12  1  0
 12 13  2  0
 13 14  1  0
 14 15  2  0
 15 16  1  0
 16 17  2  0
 17 18  1  0
 18 19  2  0
 19 20  1  0
 20 21  2  0
 20 22  1  0
 19 23  1  0
 18 24  1  0
 17 25  1  0
 14 26  1  0
 13 27  1  0
 11 28  2  0
 28 29  1  0
  8 30  1  0
  8 31  1  0
  6 32  1  0
  6 33  1  0
  5 34  2  0
 34 35  1  0
  4 36  1  0
  2 37  1  0
  1 38  1  0
 34  1  1  0
 29  9  1  0
 21 12  1  0
 21 16  1  0
M  END
>  <cnnaffinity>  (1) 
-5.15643

>  <filename>  (1) 
c1cncc(COCc2nc(-c3ccnc4ccccc34)no2)c1

$$$$
