
     RDKit          3D

 26 28  0  0  0  0  0  0  0  0999 V2000
    4.9598    1.8049   16.9421 H   0  0  0  0  0  0  0  0  0  0  0  0
    5.4081    1.3354   17.8217 C   0  0  0  0  0  0  0  0  0  0  0  0
    6.5747    0.6968   17.6320 N   0  0  0  0  0  0  0  0  0  0  0  0
    7.1156    0.0811   18.6952 C   0  0  0  0  0  0  0  0  0  0  0  0
    8.0681   -0.4151   18.5143 H   0  0  0  0  0  0  0  0  0  0  0  0
    6.5559    0.0682   19.9936 C   0  0  0  0  0  0  0  0  0  0  0  0
    7.1946   -0.7039   21.0993 C   0  0  0  0  0  0  0  0  0  0  0  0
    7.5789   -2.0204   21.0870 C   0  0  0  0  0  0  0  0  0  0  0  0
    7.2796   -2.7277   20.3270 H   0  0  0  0  0  0  0  0  0  0  0  0
    8.2957   -2.2929   22.2840 C   0  0  0  0  0  0  0  0  0  0  0  0
    8.7744   -3.2207   22.5431 H   0  0  0  0  0  0  0  0  0  0  0  0
    8.2924   -1.1531   23.0428 C   0  0  0  0  0  0  0  0  0  0  0  0
    8.6774   -0.9357   24.0320 H   0  0  0  0  0  0  0  0  0  0  0  0
    7.5969   -0.1904   22.3391 N   0  0  0  0  0  0  0  0  0  0  0  0
    7.3264    1.0690   22.8576 N   0  0  0  0  0  0  0  0  0  0  0  0
    6.7541    1.3671   24.0738 C   0  0  0  0  0  0  0  0  0  0  0  0
    6.4614    0.6172   24.7971 H   0  0  0  0  0  0  0  0  0  0  0  0
    6.6112    2.6552   24.2308 N   0  0  0  0  0  0  0  0  0  0  0  0
    7.0942    3.2263   23.0739 C   0  0  0  0  0  0  0  0  0  0  0  0
    7.0570    4.2987   22.9353 H   0  0  0  0  0  0  0  0  0  0  0  0
    7.5425    2.2713   22.2095 C   0  0  0  0  0  0  0  0  0  0  0  0
    7.8953    2.3005   21.1886 H   0  0  0  0  0  0  0  0  0  0  0  0
    5.3577    0.7785   20.1723 C   0  0  0  0  0  0  0  0  0  0  0  0
    4.9268    0.8517   21.1720 H   0  0  0  0  0  0  0  0  0  0  0  0
    4.7654    1.3917   19.0643 C   0  0  0  0  0  0  0  0  0  0  0  0
    3.8122    1.8991   19.1479 H   0  0  0  0  0  0  0  0  0  0  0  0
  1  2  1  0
  2  3  2  0
  3  4  1  0
  4  5  1  0
  4  6  2  0
  6  7  1  0
  7  8  2  0
  8  9  1  0
  8 10  1  0
 10 11  1  0
 10 12  2  0
 12 13  1  0
 12 14  1  0
 14 15  1  0
 15 16  1  0
 16 17  1  0
 16 18  2  0
 18 19  1  0
 19 20  1  0
 19 21  2  0
 21 22  1  0
  6 23  1  0
 23 24  1  0
 23 25  2  0
 25 26  1  0
 25  2  1  0
 14  7  1  0
 21 15  1  0
M  END
>  <cnnaffinity>  (1) 
-4.46777

>  <filename>  (1) 
c1cncc(-c2cccn2-n2ccnc2)c1

$$$$
