
     RDKit          3D

 27 29  0  0  0  0  0  0  0  0999 V2000
    4.9138    1.7865   16.9940 H   0  0  0  0  0  0  0  0  0  0  0  0
    5.3971    1.2974   17.8374 C   0  0  0  0  0  0  0  0  0  0  0  0
    6.5608    0.6818   17.5716 N   0  0  0  0  0  0  0  0  0  0  0  0
    7.1718    0.0596   18.5901 C   0  0  0  0  0  0  0  0  0  0  0  0
    8.1178   -0.4276   18.3688 H   0  0  0  0  0  0  0  0  0  0  0  0
    6.6667   -0.0153   19.9132 C   0  0  0  0  0  0  0  0  0  0  0  0
    7.3157   -0.7432   20.9245 N   0  0  0  0  0  0  0  0  0  0  0  0
    6.7631   -1.0104   21.7309 H   0  0  0  0  0  0  0  0  0  0  0  0
    8.7056   -0.7902   21.1106 C   0  0  0  0  0  0  0  0  0  0  0  0
    9.7017    0.1179   20.6951 C   0  0  0  0  0  0  0  0  0  0  0  0
    9.5524    1.0126   20.1112 H   0  0  0  0  0  0  0  0  0  0  0  0
   10.9041   -0.2365   21.1174 N   0  0  0  0  0  0  0  0  0  0  0  0
   10.7063   -1.3811   21.7878 N   0  0  0  0  0  0  0  0  0  0  0  0
   11.4823   -1.8280   22.2482 H   0  0  0  0  0  0  0  0  0  0  0  0
    9.4030   -1.7619   21.8109 C   0  0  0  0  0  0  0  0  0  0  0  0
    8.9393   -2.9278   22.4256 N   0  0  0  0  0  0  0  0  0  0  0  0
    9.6117   -3.5166   23.4370 N   0  0  0  0  0  0  0  0  0  0  0  0
    8.8815   -4.5667   23.7614 C   0  0  0  0  0  0  0  0  0  0  0  0
    9.1971   -5.2308   24.5564 H   0  0  0  0  0  0  0  0  0  0  0  0
    7.7280   -4.6813   22.9485 C   0  0  0  0  0  0  0  0  0  0  0  0
    6.9694   -5.4513   22.9883 H   0  0  0  0  0  0  0  0  0  0  0  0
    7.7990   -3.6106   22.1037 C   0  0  0  0  0  0  0  0  0  0  0  0
    7.1774   -3.2819   21.2801 H   0  0  0  0  0  0  0  0  0  0  0  0
    5.4463    0.6319   20.1652 C   0  0  0  0  0  0  0  0  0  0  0  0
    5.0188    0.6221   21.1701 H   0  0  0  0  0  0  0  0  0  0  0  0
    4.8140    1.3046   19.1108 C   0  0  0  0  0  0  0  0  0  0  0  0
    3.8823    1.8371   19.2639 H   0  0  0  0  0  0  0  0  0  0  0  0
  1  2  1  0
  2  3  2  0
  3  4  1  0
  4  5  1  0
  4  6  2  0
  6  7  1  0
  7  8  1  0
  7  9  1  0
  9 10  1  0
 10 11  1  0
 10 12  2  0
 12 13  1  0
 13 14  1  0
 13 15  1  0
 15 16  1  0
 16 17  1  0
 17 18  2  0
 18 19  1  0
 18 20  1  0
 20 21  1  0
 20 22  2  0
 22 23  1  0
  6 24  1  0
 24 25  1  0
 24 26  2  0
 26 27  1  0
 26  2  1  0
 15  9  2  0
 22 16  1  0
M  END
>  <cnnaffinity>  (1) 
-5.48575

>  <filename>  (1) 
c1cncc(Nc2cn[nH]c2-n2cccn2)c1

$$$$
