
     RDKit          3D

 30 33  0  0  0  0  0  0  0  0999 V2000
    4.9222    1.7790   16.9972 H   0  0  0  0  0  0  0  0  0  0  0  0
    5.4082    1.2900   17.8422 C   0  0  0  0  0  0  0  0  0  0  0  0
    6.5761    0.6695   17.5936 N   0  0  0  0  0  0  0  0  0  0  0  0
    7.1770    0.0423   18.6079 C   0  0  0  0  0  0  0  0  0  0  0  0
    8.1233   -0.4391   18.3776 H   0  0  0  0  0  0  0  0  0  0  0  0
    6.6532   -0.0010   19.9122 C   0  0  0  0  0  0  0  0  0  0  0  0
    7.3534   -0.7009   20.9320 N   0  0  0  0  0  0  0  0  0  0  0  0
    7.7247   -1.9743   20.7523 N   0  0  0  0  0  0  0  0  0  0  0  0
    8.2716   -2.3453   21.9026 C   0  0  0  0  0  0  0  0  0  0  0  0
    8.6540   -3.3432   22.0286 H   0  0  0  0  0  0  0  0  0  0  0  0
    8.2858   -1.3118   22.8406 C   0  0  0  0  0  0  0  0  0  0  0  0
    8.6801   -1.2953   23.8470 H   0  0  0  0  0  0  0  0  0  0  0  0
    7.6982   -0.2553   22.1789 C   0  0  0  0  0  0  0  0  0  0  0  0
    7.5431    1.0902   22.6863 C   0  0  0  0  0  0  0  0  0  0  0  0
    7.7484    1.3896   23.9243 N   0  0  0  0  0  0  0  0  0  0  0  0
    7.5356    2.7580   23.9841 C   0  0  0  0  0  0  0  0  0  0  0  0
    7.5997    3.6678   25.0509 C   0  0  0  0  0  0  0  0  0  0  0  0
    7.8581    3.3027   26.0416 H   0  0  0  0  0  0  0  0  0  0  0  0
    7.3247    5.0137   24.7816 C   0  0  0  0  0  0  0  0  0  0  0  0
    7.3668    5.7387   25.5926 H   0  0  0  0  0  0  0  0  0  0  0  0
    6.9923    5.4431   23.4727 C   0  0  0  0  0  0  0  0  0  0  0  0
    6.7815    6.4939   23.2898 H   0  0  0  0  0  0  0  0  0  0  0  0
    6.9289    4.5422   22.4007 C   0  0  0  0  0  0  0  0  0  0  0  0
    6.6720    4.8428   21.3853 H   0  0  0  0  0  0  0  0  0  0  0  0
    7.2136    3.2158   22.7024 C   0  0  0  0  0  0  0  0  0  0  0  0
    7.2275    2.1408   21.8669 O   0  0  0  0  0  0  0  0  0  0  0  0
    5.4279    0.6266   20.1625 C   0  0  0  0  0  0  0  0  0  0  0  0
    4.9948    0.6304   21.1655 H   0  0  0  0  0  0  0  0  0  0  0  0
    4.8042    1.2952   19.1038 C   0  0  0  0  0  0  0  0  0  0  0  0
    3.8761    1.8398   19.2632 H   0  0  0  0  0  0  0  0  0  0  0  0
  1  2  1  0
  2  3  2  0
  3  4  1  0
  4  5  1  0
  4  6  2  0
  6  7  1  0
  7  8  1  0
  8  9  2  0
  9 10  1  0
  9 11  1  0
 11 12  1  0
 11 13  2  0
 13 14  1  0
 14 15  2  0
 15 16  1  0
 16 17  2  0
 17 18  1  0
 17 19  1  0
 19 20  1  0
 19 21  2  0
 21 22  1  0
 21 23  1  0
 23 24  1  0
 23 25  2  0
 25 26  1  0
  6 27  1  0
 27 28  1  0
 27 29  2  0
 29 30  1  0
 29  2  1  0
 13  7  1  0
 26 14  1  0
 25 16  1  0
M  END
>  <cnnaffinity>  (1) 
-5.07344

>  <filename>  (1) 
c1cncc(-n2nccc2-c2nc3ccccc3o2)c1

$$$$
