
     RDKit          3D

 46 50  0  0  0  0  0  0  0  0999 V2000
    4.7963    1.3219   19.0191 C   0  0  0  0  0  0  0  0  0  0  0  0
    5.4080    1.3023   17.7625 C   0  0  0  0  0  0  0  0  0  0  0  0
    6.5469    0.6396   17.5020 N   0  0  0  0  0  0  0  0  0  0  0  0
    7.1252   -0.0064   18.5222 C   0  0  0  0  0  0  0  0  0  0  0  0
    6.6251   -0.0185   19.8368 C   0  0  0  0  0  0  0  0  0  0  0  0
    7.3983   -0.6342   20.9997 C   0  0  0  0  0  0  0  0  0  0  0  0
    8.2670    0.3452   21.7444 C   0  0  0  0  0  0  0  0  0  0  0  0
    7.7978    1.1192   22.7029 N   0  0  0  0  0  0  0  0  0  0  0  0
    8.8710    1.8596   23.0640 N   0  0  0  0  0  0  0  0  0  0  0  0
    8.7584    2.8809   24.1059 C   0  0  0  0  0  0  0  0  0  0  0  0
    8.3179    4.2468   23.5962 C   0  0  0  0  0  0  0  0  0  0  0  0
    7.1187    4.3738   22.8874 C   0  0  0  0  0  0  0  0  0  0  0  0
    6.7229    5.6372   22.4435 C   0  0  0  0  0  0  0  0  0  0  0  0
    7.4325    6.7556   22.6510 N   0  0  0  0  0  0  0  0  0  0  0  0
    8.5893    6.6289   23.3115 C   0  0  0  0  0  0  0  0  0  0  0  0
    9.0662    5.4108   23.8132 C   0  0  0  0  0  0  0  0  0  0  0  0
   10.0287    5.3781   24.3163 H   0  0  0  0  0  0  0  0  0  0  0  0
    9.1622    7.5435   23.4504 H   0  0  0  0  0  0  0  0  0  0  0  0
    5.7840    5.7585   21.9061 H   0  0  0  0  0  0  0  0  0  0  0  0
    6.5164    3.4986   22.6618 H   0  0  0  0  0  0  0  0  0  0  0  0
    8.0388    2.5135   24.8426 H   0  0  0  0  0  0  0  0  0  0  0  0
    9.7281    2.9681   24.5982 H   0  0  0  0  0  0  0  0  0  0  0  0
    9.9330    1.5017   22.3000 C   0  0  0  0  0  0  0  0  0  0  0  0
   11.2519    2.1361   22.4367 C   0  0  0  0  0  0  0  0  0  0  0  0
   11.4200    3.5309   22.3967 C   0  0  0  0  0  0  0  0  0  0  0  0
   12.6829    4.1345   22.5214 C   0  0  0  0  0  0  0  0  0  0  0  0
   13.8179    3.3618   22.7260 C   0  0  0  0  0  0  0  0  0  0  0  0
   13.6491    1.9669   22.7836 C   0  0  0  0  0  0  0  0  0  0  0  0
   12.3984    1.3304   22.6068 C   0  0  0  0  0  0  0  0  0  0  0  0
   12.6485   -0.0852   22.6352 C   0  0  0  0  0  0  0  0  0  0  0  0
   13.9912   -0.2604   22.8064 C   0  0  0  0  0  0  0  0  0  0  0  0
   14.5908    0.9766   22.9160 N   0  0  0  0  0  0  0  0  0  0  0  0
   15.5758    1.1690   22.8540 H   0  0  0  0  0  0  0  0  0  0  0  0
   14.5699   -1.1747   22.8742 H   0  0  0  0  0  0  0  0  0  0  0  0
   11.8718   -0.8271   22.5041 H   0  0  0  0  0  0  0  0  0  0  0  0
   14.8053    3.8111   22.7789 H   0  0  0  0  0  0  0  0  0  0  0  0
   12.7764    5.2180   22.4588 H   0  0  0  0  0  0  0  0  0  0  0  0
   10.5601    4.1597   22.2225 H   0  0  0  0  0  0  0  0  0  0  0  0
    9.5805    0.5281   21.4675 N   0  0  0  0  0  0  0  0  0  0  0  0
    8.0497   -1.4345   20.6374 H   0  0  0  0  0  0  0  0  0  0  0  0
    6.7011   -1.0636   21.7295 H   0  0  0  0  0  0  0  0  0  0  0  0
    5.4161    0.6452   20.0716 C   0  0  0  0  0  0  0  0  0  0  0  0
    4.9892    0.6270   21.0757 H   0  0  0  0  0  0  0  0  0  0  0  0
    8.0462   -0.5455   18.2900 H   0  0  0  0  0  0  0  0  0  0  0  0
    4.9628    1.8334   16.9239 H   0  0  0  0  0  0  0  0  0  0  0  0
    3.8652    1.8590   19.1642 H   0  0  0  0  0  0  0  0  0  0  0  0
  1  2  2  0
  2  3  1  0
  3  4  2  0
  4  5  1  0
  5  6  1  0
  6  7  1  0
  7  8  2  0
  8  9  1  0
  9 10  1  0
 10 11  1  0
 11 12  2  0
 12 13  1  0
 13 14  2  0
 14 15  1  0
 15 16  2  0
 16 17  1  0
 15 18  1  0
 13 19  1  0
 12 20  1  0
 10 21  1  0
 10 22  1  0
  9 23  1  0
 23 24  1  0
 24 25  2  0
 25 26  1  0
 26 27  2  0
 27 28  1  0
 28 29  2  0
 29 30  1  0
 30 31  2  0
 31 32  1  0
 32 33  1  0
 31 34  1  0
 30 35  1  0
 27 36  1  0
 26 37  1  0
 25 38  1  0
 23 39  2  0
  6 40  1  0
  6 41  1  0
  5 42  2  0
 42 43  1  0
  4 44  1  0
  2 45  1  0
  1 46  1  0
 42  1  1  0
 39  7  1  0
 16 11  1  0
 29 24  1  0
 32 28  1  0
M  END
>  <cnnaffinity>  (1) 
-6.53383

>  <filename>  (1) 
c1cncc(Cc2nc(-c3cccc4[nH]ccc34)n(Cc3ccncc3)n2)c1

$$$$
