
     RDKit          3D

 35 38  0  0  0  0  0  0  0  0999 V2000
    4.9210    1.8181   16.9682 H   0  0  0  0  0  0  0  0  0  0  0  0
    5.3879    1.3097   17.8097 C   0  0  0  0  0  0  0  0  0  0  0  0
    6.5466    0.6847   17.5435 N   0  0  0  0  0  0  0  0  0  0  0  0
    7.1588    0.0698   18.5641 C   0  0  0  0  0  0  0  0  0  0  0  0
    8.0992   -0.4218   18.3187 H   0  0  0  0  0  0  0  0  0  0  0  0
    6.6615    0.0110   19.8824 C   0  0  0  0  0  0  0  0  0  0  0  0
    7.3658   -0.7300   20.9796 C   0  0  0  0  0  0  0  0  0  0  0  0
    8.7532   -0.6200   21.2017 C   0  0  0  0  0  0  0  0  0  0  0  0
    9.3729    0.0169   20.5697 H   0  0  0  0  0  0  0  0  0  0  0  0
    9.4019   -1.2449   22.1916 N   0  0  0  0  0  0  0  0  0  0  0  0
    8.7003   -2.0298   23.0133 C   0  0  0  0  0  0  0  0  0  0  0  0
    9.2935   -2.5050   23.7978 H   0  0  0  0  0  0  0  0  0  0  0  0
    7.3187   -2.2275   22.8914 C   0  0  0  0  0  0  0  0  0  0  0  0
    6.5925   -3.1054   23.8394 C   0  0  0  0  0  0  0  0  0  0  0  0
    5.3245   -2.8314   24.0494 N   0  0  0  0  0  0  0  0  0  0  0  0
    4.6142   -3.6026   24.9161 C   0  0  0  0  0  0  0  0  0  0  0  0
    3.2456   -3.2607   25.1358 C   0  0  0  0  0  0  0  0  0  0  0  0
    2.8827   -2.3888   24.6013 H   0  0  0  0  0  0  0  0  0  0  0  0
    2.4691   -4.0150   25.9856 C   0  0  0  0  0  0  0  0  0  0  0  0
    1.4237   -3.7638   26.1601 H   0  0  0  0  0  0  0  0  0  0  0  0
    3.0298   -5.1443   26.6529 C   0  0  0  0  0  0  0  0  0  0  0  0
    2.4038   -5.7275   27.3219 H   0  0  0  0  0  0  0  0  0  0  0  0
    4.3473   -5.4973   26.4605 C   0  0  0  0  0  0  0  0  0  0  0  0
    4.7815   -6.3576   26.9680 H   0  0  0  0  0  0  0  0  0  0  0  0
    5.1746   -4.7348   25.5858 C   0  0  0  0  0  0  0  0  0  0  0  0
    6.5472   -5.0253   25.3183 C   0  0  0  0  0  0  0  0  0  0  0  0
    7.0101   -5.8850   25.8025 H   0  0  0  0  0  0  0  0  0  0  0  0
    7.2504   -4.2167   24.4584 C   0  0  0  0  0  0  0  0  0  0  0  0
    8.2839   -4.4110   24.1991 H   0  0  0  0  0  0  0  0  0  0  0  0
    6.6520   -1.5534   21.8568 C   0  0  0  0  0  0  0  0  0  0  0  0
    5.5759   -1.6769   21.7238 H   0  0  0  0  0  0  0  0  0  0  0  0
    5.4410    0.6631   20.1263 C   0  0  0  0  0  0  0  0  0  0  0  0
    5.0255    0.6459   21.1350 H   0  0  0  0  0  0  0  0  0  0  0  0
    4.7975    1.3265   19.0787 C   0  0  0  0  0  0  0  0  0  0  0  0
    3.8605    1.8538   19.2291 H   0  0  0  0  0  0  0  0  0  0  0  0
  1  2  1  0
  2  3  2  0
  3  4  1  0
  4  5  1  0
  4  6  2  0
  6  7  1  0
  7  8  2  0
  8  9  1  0
  8 10  1  0
 10 11  2  0
 11 12  1  0
 11 13  1  0
 13 14  1  0
 14 15  2  0
 15 16  1  0
 16 17  2  0
 17 18  1  0
 17 19  1  0
 19 20  1  0
 19 21  2  0
 21 22  1  0
 21 23  1  0
 23 24  1  0
 23 25  2  0
 25 26  1  0
 26 27  1  0
 26 28  2  0
 28 29  1  0
 13 30  2  0
 30 31  1  0
  6 32  1  0
 32 33  1  0
 32 34  2  0
 34 35  1  0
 34  2  1  0
 30  7  1  0
 28 14  1  0
 25 16  1  0
M  END
>  <cnnaffinity>  (1) 
-5.45549

>  <filename>  (1) 
c1cncc(-c2cncc(-c3ccc4ccccc4n3)c2)c1

$$$$
