
     RDKit          3D

 43 47  0  0  0  0  0  0  0  0999 V2000
    4.7801    1.3095   18.9994 C   0  0  0  0  0  0  0  0  0  0  0  0
    5.4087    1.2984   17.7523 C   0  0  0  0  0  0  0  0  0  0  0  0
    6.5460    0.6304   17.5006 N   0  0  0  0  0  0  0  0  0  0  0  0
    7.1138   -0.0234   18.5219 C   0  0  0  0  0  0  0  0  0  0  0  0
    6.6034   -0.0327   19.8320 C   0  0  0  0  0  0  0  0  0  0  0  0
    7.3768   -0.6324   21.0011 C   0  0  0  0  0  0  0  0  0  0  0  0
    8.2159    0.3647   21.7510 C   0  0  0  0  0  0  0  0  0  0  0  0
    7.7347    1.0957   22.7386 N   0  0  0  0  0  0  0  0  0  0  0  0
    8.7897    1.8609   23.1088 N   0  0  0  0  0  0  0  0  0  0  0  0
    8.6382    2.8492   24.1752 C   0  0  0  0  0  0  0  0  0  0  0  0
    8.0326    4.1556   23.6970 C   0  0  0  0  0  0  0  0  0  0  0  0
    6.9923    4.3217   22.8295 C   0  0  0  0  0  0  0  0  0  0  0  0
    6.6693    5.6966   22.6059 C   0  0  0  0  0  0  0  0  0  0  0  0
    7.4722    6.5449   23.3061 C   0  0  0  0  0  0  0  0  0  0  0  0
    8.6149    5.6816   24.2627 S   0  0  0  0  0  0  0  0  0  0  0  0
    7.4655    7.6300   23.3114 H   0  0  0  0  0  0  0  0  0  0  0  0
    5.8694    6.0266   21.9499 H   0  0  0  0  0  0  0  0  0  0  0  0
    6.4873    3.4798   22.3635 H   0  0  0  0  0  0  0  0  0  0  0  0
    7.9950    2.4008   24.9448 H   0  0  0  0  0  0  0  0  0  0  0  0
    9.6232    3.0217   24.6227 H   0  0  0  0  0  0  0  0  0  0  0  0
    9.8509    1.5637   22.3139 C   0  0  0  0  0  0  0  0  0  0  0  0
   11.1641    2.2050   22.4527 C   0  0  0  0  0  0  0  0  0  0  0  0
   11.3150    3.5921   22.4681 C   0  0  0  0  0  0  0  0  0  0  0  0
   12.5807    4.2106   22.6063 C   0  0  0  0  0  0  0  0  0  0  0  0
   13.7295    3.4641   22.8092 C   0  0  0  0  0  0  0  0  0  0  0  0
   13.5811    2.0622   22.7880 C   0  0  0  0  0  0  0  0  0  0  0  0
   12.3431    1.4219   22.5767 C   0  0  0  0  0  0  0  0  0  0  0  0
   12.6809    0.0366   22.5294 C   0  0  0  0  0  0  0  0  0  0  0  0
   13.9760   -0.1631   22.6884 N   0  0  0  0  0  0  0  0  0  0  0  0
   14.5027    1.0660   22.8470 N   0  0  0  0  0  0  0  0  0  0  0  0
   15.4990    1.1868   22.9251 H   0  0  0  0  0  0  0  0  0  0  0  0
   11.9957   -0.7779   22.3807 H   0  0  0  0  0  0  0  0  0  0  0  0
   14.7067    3.9281   22.9285 H   0  0  0  0  0  0  0  0  0  0  0  0
   12.6430    5.2912   22.5444 H   0  0  0  0  0  0  0  0  0  0  0  0
   10.4359    4.2163   22.3659 H   0  0  0  0  0  0  0  0  0  0  0  0
    9.5164    0.6051   21.4579 N   0  0  0  0  0  0  0  0  0  0  0  0
    8.0477   -1.4228   20.6494 H   0  0  0  0  0  0  0  0  0  0  0  0
    6.6821   -1.0722   21.7254 H   0  0  0  0  0  0  0  0  0  0  0  0
    5.3893    0.6279   20.0541 C   0  0  0  0  0  0  0  0  0  0  0  0
    4.9498    0.6126   21.0517 H   0  0  0  0  0  0  0  0  0  0  0  0
    8.0332   -0.5677   18.2930 H   0  0  0  0  0  0  0  0  0  0  0  0
    4.9823    1.8475   16.9157 H   0  0  0  0  0  0  0  0  0  0  0  0
    3.8506    1.8524   19.1357 H   0  0  0  0  0  0  0  0  0  0  0  0
  1  2  2  0
  2  3  1  0
  3  4  2  0
  4  5  1  0
  5  6  1  0
  6  7  1  0
  7  8  2  0
  8  9  1  0
  9 10  1  0
 10 11  1  0
 11 12  2  0
 12 13  1  0
 13 14  2  0
 14 15  1  0
 14 16  1  0
 13 17  1  0
 12 18  1  0
 10 19  1  0
 10 20  1  0
  9 21  1  0
 21 22  1  0
 22 23  2  0
 23 24  1  0
 24 25  2  0
 25 26  1  0
 26 27  2  0
 27 28  1  0
 28 29  2  0
 29 30  1  0
 30 31  1  0
 28 32  1  0
 25 33  1  0
 24 34  1  0
 23 35  1  0
 21 36  2  0
  6 37  1  0
  6 38  1  0
  5 39  2  0
 39 40  1  0
  4 41  1  0
  2 42  1  0
  1 43  1  0
 39  1  1  0
 36  7  1  0
 15 11  1  0
 27 22  1  0
 30 26  1  0
M  END
>  <cnnaffinity>  (1) 
-6.6793

>  <filename>  (1) 
c1cncc(Cc2nc(-c3cccc4[nH]ncc34)n(Cc3cccs3)n2)c1

$$$$
