
     RDKit          3D

 41 44  0  0  0  0  0  0  0  0999 V2000
    4.9254    1.8084   16.9734 H   0  0  0  0  0  0  0  0  0  0  0  0
    5.3897    1.3100   17.8180 C   0  0  0  0  0  0  0  0  0  0  0  0
    6.5497    0.6839   17.5702 N   0  0  0  0  0  0  0  0  0  0  0  0
    7.1530    0.0783   18.6019 C   0  0  0  0  0  0  0  0  0  0  0  0
    8.0954   -0.4096   18.3572 H   0  0  0  0  0  0  0  0  0  0  0  0
    6.6533    0.0625   19.9235 C   0  0  0  0  0  0  0  0  0  0  0  0
    7.3658   -0.6976   20.9793 C   0  0  0  0  0  0  0  0  0  0  0  0
    7.7094   -2.0279   20.9596 C   0  0  0  0  0  0  0  0  0  0  0  0
    7.3292   -2.7013   20.2101 H   0  0  0  0  0  0  0  0  0  0  0  0
    8.4503   -2.3200   22.1334 C   0  0  0  0  0  0  0  0  0  0  0  0
    8.9448   -3.2488   22.4029 H   0  0  0  0  0  0  0  0  0  0  0  0
    8.4740   -1.1609   22.8630 C   0  0  0  0  0  0  0  0  0  0  0  0
    8.8199   -0.9752   23.8679 H   0  0  0  0  0  0  0  0  0  0  0  0
    7.8331   -0.1695   22.1661 N   0  0  0  0  0  0  0  0  0  0  0  0
    7.5317    1.1403   22.7181 C   0  0  0  0  0  0  0  0  0  0  0  0
    7.2195    1.7718   21.8875 H   0  0  0  0  0  0  0  0  0  0  0  0
    8.4483    1.5823   23.1247 H   0  0  0  0  0  0  0  0  0  0  0  0
    6.4452    1.1214   23.8062 C   0  0  0  0  0  0  0  0  0  0  0  0
    6.7885    0.5373   24.6700 H   0  0  0  0  0  0  0  0  0  0  0  0
    5.5566    0.6081   23.4280 H   0  0  0  0  0  0  0  0  0  0  0  0
    6.0876    2.5226   24.2393 C   0  0  0  0  0  0  0  0  0  0  0  0
    5.0647    3.2514   23.5574 C   0  0  0  0  0  0  0  0  0  0  0  0
    4.5178    2.7675   22.7509 H   0  0  0  0  0  0  0  0  0  0  0  0
    4.7692    4.5531   23.8902 C   0  0  0  0  0  0  0  0  0  0  0  0
    3.9879    5.0974   23.3632 H   0  0  0  0  0  0  0  0  0  0  0  0
    5.4863    5.2203   24.9287 C   0  0  0  0  0  0  0  0  0  0  0  0
    5.2102    6.5673   25.3156 C   0  0  0  0  0  0  0  0  0  0  0  0
    4.4170    7.1070   24.8028 H   0  0  0  0  0  0  0  0  0  0  0  0
    5.9323    7.1740   26.3186 C   0  0  0  0  0  0  0  0  0  0  0  0
    5.7150    8.1970   26.6117 H   0  0  0  0  0  0  0  0  0  0  0  0
    6.9741    6.4648   26.9857 C   0  0  0  0  0  0  0  0  0  0  0  0
    7.5327    6.9629   27.7742 H   0  0  0  0  0  0  0  0  0  0  0  0
    7.2645    5.1687   26.6362 C   0  0  0  0  0  0  0  0  0  0  0  0
    8.0603    4.6226   27.1397 H   0  0  0  0  0  0  0  0  0  0  0  0
    6.5300    4.5071   25.6067 C   0  0  0  0  0  0  0  0  0  0  0  0
    6.8014    3.1577   25.2321 C   0  0  0  0  0  0  0  0  0  0  0  0
    7.6059    2.6362   25.7465 H   0  0  0  0  0  0  0  0  0  0  0  0
    5.4233    0.7084   20.1403 C   0  0  0  0  0  0  0  0  0  0  0  0
    4.9639    0.6811   21.1303 H   0  0  0  0  0  0  0  0  0  0  0  0
    4.7794    1.3400   19.0762 C   0  0  0  0  0  0  0  0  0  0  0  0
    3.8363    1.8589   19.2104 H   0  0  0  0  0  0  0  0  0  0  0  0
  1  2  1  0
  2  3  2  0
  3  4  1  0
  4  5  1  0
  4  6  2  0
  6  7  1  0
  7  8  2  0
  8  9  1  0
  8 10  1  0
 10 11  1  0
 10 12  2  0
 12 13  1  0
 12 14  1  0
 14 15  1  0
 15 16  1  0
 15 17  1  0
 15 18  1  0
 18 19  1  0
 18 20  1  0
 18 21  1  0
 21 22  2  0
 22 23  1  0
 22 24  1  0
 24 25  1  0
 24 26  2  0
 26 27  1  0
 27 28  1  0
 27 29  2  0
 29 30  1  0
 29 31  1  0
 31 32  1  0
 31 33  2  0
 33 34  1  0
 33 35  1  0
 35 36  2  0
 36 37  1  0
  6 38  1  0
 38 39  1  0
 38 40  2  0
 40 41  1  0
 40  2  1  0
 14  7  1  0
 36 21  1  0
 35 26  1  0
M  END
>  <cnnaffinity>  (1) 
-5.04389

>  <filename>  (1) 
c1cncc(-c2cccn2CCc2ccc3ccccc3c2)c1

$$$$
