
     RDKit          3D

 31 34  0  0  0  0  0  0  0  0999 V2000
    4.9178    1.7850   16.9944 H   0  0  0  0  0  0  0  0  0  0  0  0
    5.4013    1.2954   17.8373 C   0  0  0  0  0  0  0  0  0  0  0  0
    6.5666    0.6796   17.5744 N   0  0  0  0  0  0  0  0  0  0  0  0
    7.1693    0.0605   18.5933 C   0  0  0  0  0  0  0  0  0  0  0  0
    8.1146   -0.4282   18.3723 H   0  0  0  0  0  0  0  0  0  0  0  0
    6.6635    0.0016   19.9084 C   0  0  0  0  0  0  0  0  0  0  0  0
    7.3791   -0.7103   20.9879 C   0  0  0  0  0  0  0  0  0  0  0  0
    8.1227   -2.2398   20.8032 S   0  0  0  0  0  0  0  0  0  0  0  0
    8.5776   -2.4326   22.3773 N   0  0  0  0  0  0  0  0  0  0  0  0
    8.2003   -1.3801   23.0448 C   0  0  0  0  0  0  0  0  0  0  0  0
    8.4487   -1.3198   24.1011 H   0  0  0  0  0  0  0  0  0  0  0  0
    7.5230   -0.3561   22.3135 C   0  0  0  0  0  0  0  0  0  0  0  0
    7.1300    0.9242   22.9078 C   0  0  0  0  0  0  0  0  0  0  0  0
    6.4854    0.9263   24.1817 C   0  0  0  0  0  0  0  0  0  0  0  0
    6.2940   -0.0262   24.6753 H   0  0  0  0  0  0  0  0  0  0  0  0
    6.0936    2.1129   24.7724 C   0  0  0  0  0  0  0  0  0  0  0  0
    5.6071    2.1304   25.7435 H   0  0  0  0  0  0  0  0  0  0  0  0
    6.3485    3.3257   24.0995 C   0  0  0  0  0  0  0  0  0  0  0  0
    6.0914    4.7037   24.4046 C   0  0  0  0  0  0  0  0  0  0  0  0
    5.6080    5.0535   25.3031 H   0  0  0  0  0  0  0  0  0  0  0  0
    6.5657    5.4523   23.3651 C   0  0  0  0  0  0  0  0  0  0  0  0
    6.5594    6.5279   23.2141 H   0  0  0  0  0  0  0  0  0  0  0  0
    7.1136    4.6039   22.4193 N   0  0  0  0  0  0  0  0  0  0  0  0
    7.5304    4.8623   21.5436 H   0  0  0  0  0  0  0  0  0  0  0  0
    6.9994    3.3054   22.8411 C   0  0  0  0  0  0  0  0  0  0  0  0
    7.4091    2.1160   22.2348 C   0  0  0  0  0  0  0  0  0  0  0  0
    7.8921    2.1041   21.2580 H   0  0  0  0  0  0  0  0  0  0  0  0
    5.4332    0.6394   20.1529 C   0  0  0  0  0  0  0  0  0  0  0  0
    5.0126    0.6310   21.1615 H   0  0  0  0  0  0  0  0  0  0  0  0
    4.8015    1.3048   19.1015 C   0  0  0  0  0  0  0  0  0  0  0  0
    3.8718    1.8422   19.2549 H   0  0  0  0  0  0  0  0  0  0  0  0
  1  2  1  0
  2  3  2  0
  3  4  1  0
  4  5  1  0
  4  6  2  0
  6  7  1  0
  7  8  1  0
  8  9  1  0
  9 10  2  0
 10 11  1  0
 10 12  1  0
 12 13  1  0
 13 14  2  0
 14 15  1  0
 14 16  1  0
 16 17  1  0
 16 18  2  0
 18 19  1  0
 19 20  1  0
 19 21  2  0
 21 22  1  0
 21 23  1  0
 23 24  1  0
 23 25  1  0
 25 26  2  0
 26 27  1  0
  6 28  1  0
 28 29  1  0
 28 30  2  0
 30 31  1  0
 30  2  1  0
 12  7  2  0
 26 13  1  0
 25 18  1  0
M  END
>  <cnnaffinity>  (1) 
-5.0828

>  <filename>  (1) 
c1cncc(-c2sncc2-c2ccc3cc[nH]c3c2)c1

$$$$
