
     RDKit          3D

 30 32  0  0  0  0  0  0  0  0999 V2000
    4.9135    1.7978   16.9771 H   0  0  0  0  0  0  0  0  0  0  0  0
    5.3892    1.3012   17.8167 C   0  0  0  0  0  0  0  0  0  0  0  0
    6.5541    0.6865   17.5499 N   0  0  0  0  0  0  0  0  0  0  0  0
    7.1580    0.0623   18.5674 C   0  0  0  0  0  0  0  0  0  0  0  0
    8.1168   -0.3997   18.3345 H   0  0  0  0  0  0  0  0  0  0  0  0
    6.6426    0.0108   19.8797 C   0  0  0  0  0  0  0  0  0  0  0  0
    7.3529   -0.6478   20.9817 C   0  0  0  0  0  0  0  0  0  0  0  0
    7.4290   -0.3430   22.3373 C   0  0  0  0  0  0  0  0  0  0  0  0
    6.8182    0.7511   22.8533 O   0  0  0  0  0  0  0  0  0  0  0  0
    6.9020    1.0903   24.2402 C   0  0  2  0  0  0  0  0  0  0  0  0
    6.3579    2.0306   24.2685 H   0  0  0  0  0  0  0  0  0  0  0  0
    8.3333    1.2929   24.7833 C   0  0  0  0  0  0  0  0  0  0  0  0
    9.0907    1.1637   24.0060 H   0  0  0  0  0  0  0  0  0  0  0  0
    8.4509    2.3119   25.1888 H   0  0  0  0  0  0  0  0  0  0  0  0
    8.5374    0.3062   25.7786 O   0  0  0  0  0  0  0  0  0  0  0  0
    7.2819   -0.0481   26.3414 C   0  0  0  0  0  0  0  0  0  0  0  0
    7.3941   -1.0643   26.7337 H   0  0  0  0  0  0  0  0  0  0  0  0
    7.0009    0.6075   27.1879 H   0  0  0  0  0  0  0  0  0  0  0  0
    6.2769    0.0541   25.1903 C   0  0  0  0  0  0  0  0  0  0  0  0
    6.1732   -0.9028   24.6731 H   0  0  0  0  0  0  0  0  0  0  0  0
    5.2819    0.3412   25.5389 H   0  0  0  0  0  0  0  0  0  0  0  0
    8.2392   -1.3529   22.9091 C   0  0  0  0  0  0  0  0  0  0  0  0
    8.5641   -1.4930   23.9264 H   0  0  0  0  0  0  0  0  0  0  0  0
    8.6405   -2.2200   21.9804 N   0  0  0  0  0  0  0  0  0  0  0  0
    8.1112   -1.7641   20.8460 N   0  0  0  0  0  0  0  0  0  0  0  0
    8.2359   -2.2859   19.9904 H   0  0  0  0  0  0  0  0  0  0  0  0
    5.4246    0.6574   20.1355 C   0  0  0  0  0  0  0  0  0  0  0  0
    5.0218    0.6433   21.1492 H   0  0  0  0  0  0  0  0  0  0  0  0
    4.7917    1.3138   19.0833 C   0  0  0  0  0  0  0  0  0  0  0  0
    3.8644    1.8490   19.2430 H   0  0  0  0  0  0  0  0  0  0  0  0
  1  2  1  0
  2  3  2  0
  3  4  1  0
  4  5  1  0
  4  6  2  0
  6  7  1  0
  7  8  2  0
  8  9  1  0
  9 10  1  0
 10 11  1  6
 10 12  1  0
 12 13  1  0
 12 14  1  0
 12 15  1  0
 15 16  1  0
 16 17  1  0
 16 18  1  0
 16 19  1  0
 19 20  1  0
 19 21  1  0
  8 22  1  0
 22 23  1  0
 22 24  2  0
 24 25  1  0
 25 26  1  0
  6 27  1  0
 27 28  1  0
 27 29  2  0
 29 30  1  0
 29  2  1  0
 25  7  1  0
 19 10  1  0
M  END
>  <cnnaffinity>  (1) 
-4.68634

>  <filename>  (1) 
c1cncc(-c2[nH]ncc2O[C@H]2CCOC2)c1

$$$$
