
     RDKit          3D

 52 56  0  0  0  0  0  0  0  0999 V2000
    4.7524    1.3320   18.9244 C   0  0  0  0  0  0  0  0  0  0  0  0
    5.3781    1.3148   17.6746 C   0  0  0  0  0  0  0  0  0  0  0  0
    6.4867    0.6069   17.4115 N   0  0  0  0  0  0  0  0  0  0  0  0
    7.0142   -0.1014   18.4193 C   0  0  0  0  0  0  0  0  0  0  0  0
    6.4749   -0.1547   19.7185 C   0  0  0  0  0  0  0  0  0  0  0  0
    7.1911   -0.8222   20.8855 C   0  0  0  0  0  0  0  0  0  0  0  0
    8.0036    0.1920   21.6259 C   0  0  0  0  0  0  0  0  0  0  0  0
    7.5805    0.8596   22.6809 N   0  0  0  0  0  0  0  0  0  0  0  0
    8.5931    1.7502   22.8985 N   0  0  0  0  0  0  0  0  0  0  0  0
    8.5711    2.6939   23.9783 C   0  0  0  0  0  0  0  0  0  0  0  0
    8.4740    2.2250   25.2700 C   0  0  0  0  0  0  0  0  0  0  0  0
    8.6041    3.1046   26.3748 C   0  0  0  0  0  0  0  0  0  0  0  0
    8.8299    4.4483   26.1717 C   0  0  0  0  0  0  0  0  0  0  0  0
    8.9107    4.9746   24.8528 C   0  0  0  0  0  0  0  0  0  0  0  0
    9.1734    6.3172   24.7289 N   0  0  0  0  0  0  0  0  0  0  0  0
    9.1820    6.8249   23.5181 C   0  0  0  0  0  0  0  0  0  0  0  0
    8.9152    6.0811   22.3399 C   0  0  0  0  0  0  0  0  0  0  0  0
    8.6796    4.7293   22.4401 C   0  0  0  0  0  0  0  0  0  0  0  0
    8.7226    4.1074   23.7257 C   0  0  0  0  0  0  0  0  0  0  0  0
    8.4680    4.1257   21.5572 H   0  0  0  0  0  0  0  0  0  0  0  0
    8.8931    6.5829   21.3803 H   0  0  0  0  0  0  0  0  0  0  0  0
    9.4007    7.8898   23.4401 H   0  0  0  0  0  0  0  0  0  0  0  0
    8.9438    5.1629   26.9783 H   0  0  0  0  0  0  0  0  0  0  0  0
    8.5205    2.7060   27.3839 H   0  0  0  0  0  0  0  0  0  0  0  0
    8.3158    1.1635   25.4359 H   0  0  0  0  0  0  0  0  0  0  0  0
    9.5930    1.4974   22.0091 C   0  0  0  0  0  0  0  0  0  0  0  0
   10.9595    2.0426   22.0885 C   0  0  0  0  0  0  0  0  0  0  0  0
   11.7175    1.3887   23.2596 C   0  0  0  0  0  0  0  0  0  0  0  0
   13.2023    1.7811   23.2258 C   0  0  0  0  0  0  0  0  0  0  0  0
   14.1352    0.5782   23.3157 C   0  0  0  0  0  0  0  0  0  0  0  0
   13.7310   -0.5558   22.3645 C   0  0  0  0  0  0  0  0  0  0  0  0
   12.1993   -0.8015   22.3544 C   0  0  0  0  0  0  0  0  0  0  0  0
   11.5021   -0.0197   23.3096 O   0  0  0  0  0  0  0  0  0  0  0  0
   11.7708   -0.6517   21.3501 H   0  0  0  0  0  0  0  0  0  0  0  0
   11.9550   -1.8320   22.6308 H   0  0  0  0  0  0  0  0  0  0  0  0
   14.2807   -1.4679   22.6260 H   0  0  0  0  0  0  0  0  0  0  0  0
   14.0660   -0.3229   21.3522 H   0  0  0  0  0  0  0  0  0  0  0  0
   15.1209    0.9348   23.0356 H   0  0  0  0  0  0  0  0  0  0  0  0
   14.1759    0.2170   24.3503 H   0  0  0  0  0  0  0  0  0  0  0  0
   13.4218    2.4655   24.0457 H   0  0  0  0  0  0  0  0  0  0  0  0
   13.4217    2.3442   22.3104 H   0  0  0  0  0  0  0  0  0  0  0  0
   11.2659    1.7214   24.1982 H   0  0  0  0  0  0  0  0  0  0  0  0
   11.4619    1.7905   21.1519 H   0  0  0  0  0  0  0  0  0  0  0  0
   10.9622    3.1326   22.1877 H   0  0  0  0  0  0  0  0  0  0  0  0
    9.2364    0.5486   21.1761 N   0  0  0  0  0  0  0  0  0  0  0  0
    7.8823   -1.5983   20.5381 H   0  0  0  0  0  0  0  0  0  0  0  0
    6.4767   -1.2711   21.5859 H   0  0  0  0  0  0  0  0  0  0  0  0
    5.3146    0.5892   19.9644 C   0  0  0  0  0  0  0  0  0  0  0  0
    4.8730    0.5974   20.9631 H   0  0  0  0  0  0  0  0  0  0  0  0
    7.9312   -0.6441   18.1841 H   0  0  0  0  0  0  0  0  0  0  0  0
    4.9748    1.9011   16.8510 H   0  0  0  0  0  0  0  0  0  0  0  0
    3.8670    1.9387   19.0753 H   0  0  0  0  0  0  0  0  0  0  0  0
  1  2  2  0
  2  3  1  0
  3  4  2  0
  4  5  1  0
  5  6  1  0
  6  7  1  0
  7  8  2  0
  8  9  1  0
  9 10  1  0
 10 11  2  0
 11 12  1  0
 12 13  2  0
 13 14  1  0
 14 15  2  0
 15 16  1  0
 16 17  2  0
 17 18  1  0
 18 19  2  0
 18 20  1  0
 17 21  1  0
 16 22  1  0
 13 23  1  0
 12 24  1  0
 11 25  1  0
  9 26  1  0
 26 27  1  0
 27 28  1  0
 28 29  1  0
 29 30  1  0
 30 31  1  0
 31 32  1  0
 32 33  1  0
 32 34  1  0
 32 35  1  0
 31 36  1  0
 31 37  1  0
 30 38  1  0
 30 39  1  0
 29 40  1  0
 29 41  1  0
 28 42  1  0
 27 43  1  0
 27 44  1  0
 26 45  2  0
  6 46  1  0
  6 47  1  0
  5 48  2  0
 48 49  1  0
  4 50  1  0
  2 51  1  0
  1 52  1  0
 48  1  1  0
 45  7  1  0
 19 10  1  0
 33 28  1  0
 19 14  1  0
M  END
>  <cnnaffinity>  (1) 
-6.08927

>  <filename>  (1) 
c1cncc(Cc2nc(CC3CCCCO3)n(-c3cccc4ncccc34)n2)c1

$$$$
