
     RDKit          3D

 39 41  0  0  0  0  0  0  0  0999 V2000
    5.0434    1.8516   16.8755 H   0  0  0  0  0  0  0  0  0  0  0  0
    5.4374    1.3208   17.7383 C   0  0  0  0  0  0  0  0  0  0  0  0
    6.5704    0.6353   17.5344 N   0  0  0  0  0  0  0  0  0  0  0  0
    7.0780   -0.0288   18.5804 C   0  0  0  0  0  0  0  0  0  0  0  0
    8.0020   -0.5727   18.3941 H   0  0  0  0  0  0  0  0  0  0  0  0
    6.4947   -0.0402   19.8458 C   0  0  0  0  0  0  0  0  0  0  0  0
    7.1473   -0.8287   20.9511 C   0  0  0  0  0  0  0  0  0  0  0  0
    7.0682   -0.1596   22.1948 O   0  0  0  0  0  0  0  0  0  0  0  0
    7.8017    1.0726   22.2989 C   0  0  0  0  0  0  0  0  0  0  0  0
    7.1216    1.8197   22.7247 H   0  0  0  0  0  0  0  0  0  0  0  0
    8.1063    1.4264   21.3055 H   0  0  0  0  0  0  0  0  0  0  0  0
    9.0292    0.8723   23.1920 C   0  0  0  0  0  0  0  0  0  0  0  0
    8.6671    0.6348   24.2013 H   0  0  0  0  0  0  0  0  0  0  0  0
    9.5687   -0.0226   22.8294 H   0  0  0  0  0  0  0  0  0  0  0  0
    9.9043    2.0382   23.2723 N   0  0  0  0  0  0  0  0  0  0  0  0
   10.6510    2.3464   22.0524 C   0  0  0  0  0  0  0  0  0  0  0  0
   11.0959    1.4418   21.5963 H   0  0  0  0  0  0  0  0  0  0  0  0
    9.9959    2.8077   21.3011 H   0  0  0  0  0  0  0  0  0  0  0  0
   11.7471    3.2995   22.5280 C   0  0  0  0  0  0  0  0  0  0  0  0
   12.6173    3.3088   21.8651 H   0  0  0  0  0  0  0  0  0  0  0  0
   11.3590    4.3203   22.5632 H   0  0  0  0  0  0  0  0  0  0  0  0
   12.0774    2.8265   23.9530 C   0  0  0  0  0  0  0  0  0  0  0  0
   12.1910    3.6908   24.6112 H   0  0  0  0  0  0  0  0  0  0  0  0
   13.0023    2.2363   23.9975 H   0  0  0  0  0  0  0  0  0  0  0  0
   10.8682    1.9684   24.3754 C   0  0  0  0  0  0  0  0  0  0  0  0
   11.1904    0.9336   24.5791 H   0  0  0  0  0  0  0  0  0  0  0  0
   10.4047    2.3346   25.2996 H   0  0  0  0  0  0  0  0  0  0  0  0
    8.4916   -1.1211   20.6539 O   0  0  0  0  0  0  0  0  0  0  0  0
    8.8109   -2.3095   21.3678 C   0  0  0  0  0  0  0  0  0  0  0  0
    9.2667   -2.0885   22.3397 H   0  0  0  0  0  0  0  0  0  0  0  0
    9.5240   -2.8614   20.7574 H   0  0  0  0  0  0  0  0  0  0  0  0
    7.4426   -2.9965   21.5626 C   0  0  0  0  0  0  0  0  0  0  0  0
    7.3383   -3.9164   20.9849 H   0  0  0  0  0  0  0  0  0  0  0  0
    7.2302   -3.1845   22.6217 H   0  0  0  0  0  0  0  0  0  0  0  0
    6.5068   -2.0468   21.0740 O   0  0  0  0  0  0  0  0  0  0  0  0
    5.2963    0.6602   20.0479 C   0  0  0  0  0  0  0  0  0  0  0  0
    4.7968    0.6544   21.0193 H   0  0  0  0  0  0  0  0  0  0  0  0
    4.7666    1.3607   18.9662 C   0  0  0  0  0  0  0  0  0  0  0  0
    3.8516    1.9380   19.0551 H   0  0  0  0  0  0  0  0  0  0  0  0
  1  2  1  0
  2  3  2  0
  3  4  1  0
  4  5  1  0
  4  6  2  0
  6  7  1  0
  7  8  1  0
  8  9  1  0
  9 10  1  0
  9 11  1  0
  9 12  1  0
 12 13  1  0
 12 14  1  0
 12 15  1  0
 15 16  1  0
 16 17  1  0
 16 18  1  0
 16 19  1  0
 19 20  1  0
 19 21  1  0
 19 22  1  0
 22 23  1  0
 22 24  1  0
 22 25  1  0
 25 26  1  0
 25 27  1  0
  7 28  1  0
 28 29  1  0
 29 30  1  0
 29 31  1  0
 29 32  1  0
 32 33  1  0
 32 34  1  0
 32 35  1  0
  6 36  1  0
 36 37  1  0
 36 38  2  0
 38 39  1  0
 38  2  1  0
 35  7  1  0
 25 15  1  0
M  END
>  <cnnaffinity>  (1) 
-4.00437

>  <filename>  (1) 
c1cncc(C2(OCCN3CCCC3)OCCO2)c1

$$$$
