
     RDKit          3D

 55 59  0  0  0  0  0  0  0  0999 V2000
    4.7779    1.3246   19.0188 C   0  0  0  0  0  0  0  0  0  0  0  0
    5.3968    1.3083   17.7659 C   0  0  0  0  0  0  0  0  0  0  0  0
    6.5380    0.6503   17.5112 N   0  0  0  0  0  0  0  0  0  0  0  0
    7.1135    0.0020   18.5313 C   0  0  0  0  0  0  0  0  0  0  0  0
    6.6024   -0.0205   19.8428 C   0  0  0  0  0  0  0  0  0  0  0  0
    7.3627   -0.6464   21.0099 C   0  0  0  0  0  0  0  0  0  0  0  0
    8.2567    0.3207   21.7309 C   0  0  0  0  0  0  0  0  0  0  0  0
    7.8435    1.1083   22.7057 N   0  0  0  0  0  0  0  0  0  0  0  0
    8.9488    1.8269   23.0050 N   0  0  0  0  0  0  0  0  0  0  0  0
    8.8893    2.8087   24.0750 C   0  0  0  0  0  0  0  0  0  0  0  0
    8.1389    4.0582   23.6117 C   0  0  0  0  0  0  0  0  0  0  0  0
    8.4113    5.2397   24.4695 N   0  0  0  0  0  4  0  0  0  0  0  0
    7.8399    6.4956   23.8621 C   0  0  0  0  0  0  0  0  0  0  0  0
    8.2283    7.7118   24.6959 C   0  0  0  0  0  0  0  0  0  0  0  0
    7.7407    7.5608   26.1445 C   0  0  0  0  0  0  0  0  0  0  0  0
    8.3108    6.2682   26.7438 C   0  0  0  0  0  0  0  0  0  0  0  0
    7.9276    5.0590   25.8979 C   0  0  0  0  0  0  0  0  0  0  0  0
    8.3508    4.1384   26.3090 H   0  0  0  0  0  0  0  0  0  0  0  0
    6.8362    4.9377   25.8749 H   0  0  0  0  0  0  0  0  0  0  0  0
    7.9782    6.1157   27.7757 H   0  0  0  0  0  0  0  0  0  0  0  0
    9.4078    6.3305   26.7690 H   0  0  0  0  0  0  0  0  0  0  0  0
    6.6403    7.5151   26.1568 H   0  0  0  0  0  0  0  0  0  0  0  0
    8.0146    8.4331   26.7502 H   0  0  0  0  0  0  0  0  0  0  0  0
    9.3246    7.7871   24.6851 H   0  0  0  0  0  0  0  0  0  0  0  0
    7.8411    8.6229   24.2286 H   0  0  0  0  0  0  0  0  0  0  0  0
    6.7475    6.3890   23.8266 H   0  0  0  0  0  0  0  0  0  0  0  0
    8.1889    6.5848   22.8266 H   0  0  0  0  0  0  0  0  0  0  0  0
    9.4459    5.3888   24.5075 H   0  0  0  0  0  0  0  0  0  0  0  0
    8.4098    4.2874   22.5743 H   0  0  0  0  0  0  0  0  0  0  0  0
    7.0623    3.8457   23.5969 H   0  0  0  0  0  0  0  0  0  0  0  0
    9.8992    3.0708   24.3997 H   0  0  0  0  0  0  0  0  0  0  0  0
    8.3836    2.3504   24.9276 H   0  0  0  0  0  0  0  0  0  0  0  0
    9.9662    1.4494   22.1972 C   0  0  0  0  0  0  0  0  0  0  0  0
   11.3069    2.0475   22.2964 C   0  0  0  0  0  0  0  0  0  0  0  0
   11.5153    3.4317   22.3453 C   0  0  0  0  0  0  0  0  0  0  0  0
   12.7983    3.9801   22.5527 C   0  0  0  0  0  0  0  0  0  0  0  0
   13.9114    3.1740   22.7034 C   0  0  0  0  0  0  0  0  0  0  0  0
   13.7164    1.7737   22.6198 C   0  0  0  0  0  0  0  0  0  0  0  0
   12.4479    1.2003   22.3847 C   0  0  0  0  0  0  0  0  0  0  0  0
   12.7171   -0.2033   22.2848 C   0  0  0  0  0  0  0  0  0  0  0  0
   14.0038   -0.4657   22.4106 N   0  0  0  0  0  0  0  0  0  0  0  0
   14.5919    0.7290   22.6235 N   0  0  0  0  0  0  0  0  0  0  0  0
   15.5934    0.7876   22.6887 H   0  0  0  0  0  0  0  0  0  0  0  0
   11.9969   -0.9905   22.1212 H   0  0  0  0  0  0  0  0  0  0  0  0
   14.8885    3.6361   22.7857 H   0  0  0  0  0  0  0  0  0  0  0  0
   12.9248    5.0590   22.5676 H   0  0  0  0  0  0  0  0  0  0  0  0
   10.6832    4.1220   22.2287 H   0  0  0  0  0  0  0  0  0  0  0  0
    9.5595    0.4782   21.3900 N   0  0  0  0  0  0  0  0  0  0  0  0
    6.6596   -1.0588   21.7424 H   0  0  0  0  0  0  0  0  0  0  0  0
    8.0024   -1.4638   20.6625 H   0  0  0  0  0  0  0  0  0  0  0  0
    5.3920    0.6438   20.0724 C   0  0  0  0  0  0  0  0  0  0  0  0
    4.9536    0.6289   21.0721 H   0  0  0  0  0  0  0  0  0  0  0  0
    8.0376   -0.5296   18.2971 H   0  0  0  0  0  0  0  0  0  0  0  0
    4.9598    1.8436   16.9255 H   0  0  0  0  0  0  0  0  0  0  0  0
    3.8530    1.8731   19.1581 H   0  0  0  0  0  0  0  0  0  0  0  0
  1  2  2  0
  2  3  1  0
  3  4  2  0
  4  5  1  0
  5  6  1  0
  6  7  1  0
  7  8  2  0
  8  9  1  0
  9 10  1  0
 10 11  1  0
 11 12  1  0
 12 13  1  0
 13 14  1  0
 14 15  1  0
 15 16  1  0
 16 17  1  0
 17 18  1  0
 17 19  1  0
 16 20  1  0
 16 21  1  0
 15 22  1  0
 15 23  1  0
 14 24  1  0
 14 25  1  0
 13 26  1  0
 13 27  1  0
 12 28  1  0
 11 29  1  0
 11 30  1  0
 10 31  1  0
 10 32  1  0
  9 33  1  0
 33 34  1  0
 34 35  2  0
 35 36  1  0
 36 37  2  0
 37 38  1  0
 38 39  2  0
 39 40  1  0
 40 41  2  0
 41 42  1  0
 42 43  1  0
 40 44  1  0
 37 45  1  0
 36 46  1  0
 35 47  1  0
 33 48  2  0
  6 49  1  0
  6 50  1  0
  5 51  2  0
 51 52  1  0
  4 53  1  0
  2 54  1  0
  1 55  1  0
 51  1  1  0
 48  7  1  0
 17 12  1  0
 39 34  1  0
 42 38  1  0
M  CHG  1  12   1
M  END
>  <cnnaffinity>  (1) 
-6.58479

>  <filename>  (1) 
c1cncc(Cc2nc(-c3cccc4[nH]ncc34)n(CC[NH+]3CCCCC3)n2)c1

$$$$
