
     RDKit          3D

 29 31  0  0  0  0  0  0  0  0999 V2000
    4.9210    1.9467   16.6454 H   0  0  0  0  0  0  0  0  0  0  0  0
    5.3604    1.3985   17.4763 C   0  0  0  0  0  0  0  0  0  0  0  0
    6.4782    0.7040   17.2052 N   0  0  0  0  0  0  0  0  0  0  0  0
    7.0647    0.0594   18.2237 C   0  0  0  0  0  0  0  0  0  0  0  0
    7.9607   -0.5053   17.9680 H   0  0  0  0  0  0  0  0  0  0  0  0
    6.5975    0.0704   19.5588 C   0  0  0  0  0  0  0  0  0  0  0  0
    7.3684   -0.5070   20.6844 C   0  0  0  0  0  0  0  0  0  0  0  0
    6.9596   -0.6382   22.0438 C   0  0  0  0  0  0  0  0  0  0  0  0
    5.9788   -0.4443   22.4541 H   0  0  0  0  0  0  0  0  0  0  0  0
    7.9367   -1.0687   22.8246 N   0  0  0  0  0  0  0  0  0  0  0  0
    8.9796   -1.1919   22.0116 N   0  0  0  0  0  0  0  0  0  0  0  0
   10.1212   -1.7201   22.5766 N   0  0  0  0  0  0  0  0  0  0  0  0
    9.8250   -1.7974   23.5432 H   0  0  0  0  0  0  0  0  0  0  0  0
   11.3229   -0.9631   22.4713 C   0  0  0  0  0  0  0  0  0  0  0  0
   12.5202   -1.6187   22.2250 C   0  0  0  0  0  0  0  0  0  0  0  0
   12.5407   -2.6940   22.1517 H   0  0  0  0  0  0  0  0  0  0  0  0
   13.6850   -0.8645   22.1603 C   0  0  0  0  0  0  0  0  0  0  0  0
   14.6291   -1.3710   21.9677 H   0  0  0  0  0  0  0  0  0  0  0  0
   13.7255    0.4575   22.3730 N   0  0  0  0  0  0  0  0  0  0  0  0
   12.5633    1.0668   22.6467 C   0  0  0  0  0  0  0  0  0  0  0  0
   12.6354    2.1305   22.8763 H   0  0  0  0  0  0  0  0  0  0  0  0
   11.3325    0.4116   22.6829 C   0  0  0  0  0  0  0  0  0  0  0  0
   10.4083    0.9316   22.8947 H   0  0  0  0  0  0  0  0  0  0  0  0
    8.6974   -0.9185   20.7195 C   0  0  0  0  0  0  0  0  0  0  0  0
    9.5020   -1.0263   20.0100 H   0  0  0  0  0  0  0  0  0  0  0  0
    5.3870    0.7491   19.7896 C   0  0  0  0  0  0  0  0  0  0  0  0
    4.9535    0.7658   20.7886 H   0  0  0  0  0  0  0  0  0  0  0  0
    4.7679    1.4272   18.7424 C   0  0  0  0  0  0  0  0  0  0  0  0
    3.8550    1.9918   18.9002 H   0  0  0  0  0  0  0  0  0  0  0  0
  1  2  1  0
  2  3  2  0
  3  4  1  0
  4  5  1  0
  4  6  2  0
  6  7  1  0
  7  8  1  0
  8  9  1  0
  8 10  2  0
 10 11  1  0
 11 12  1  0
 12 13  1  0
 12 14  1  0
 14 15  2  0
 15 16  1  0
 15 17  1  0
 17 18  1  0
 17 19  2  0
 19 20  1  0
 20 21  1  0
 20 22  2  0
 22 23  1  0
 11 24  1  0
 24 25  1  0
  6 26  1  0
 26 27  1  0
 26 28  2  0
 28 29  1  0
 28  2  1  0
 24  7  2  0
 22 14  1  0
M  END
>  <cnnaffinity>  (1) 
-4.77171

>  <filename>  (1) 
c1cncc(-c2cnn(Nc3ccncc3)c2)c1

$$$$
