
     RDKit          3D

 41 45  0  0  0  0  0  0  0  0999 V2000
    4.7858    1.3214   18.9461 C   0  0  0  0  0  0  0  0  0  0  0  0
    5.3796    1.3228   17.6811 C   0  0  0  0  0  0  0  0  0  0  0  0
    6.4899    0.6293   17.3853 N   0  0  0  0  0  0  0  0  0  0  0  0
    7.0589   -0.0696   18.3759 C   0  0  0  0  0  0  0  0  0  0  0  0
    6.5708   -0.1160   19.6924 C   0  0  0  0  0  0  0  0  0  0  0  0
    7.3409   -0.7816   20.8267 C   0  0  0  0  0  0  0  0  0  0  0  0
    8.1703    0.1980   21.6055 C   0  0  0  0  0  0  0  0  0  0  0  0
    7.6768    0.9586   22.5585 N   0  0  0  0  0  0  0  0  0  0  0  0
    8.7410    1.7107   22.9346 N   0  0  0  0  0  0  0  0  0  0  0  0
    8.5869    2.6961   23.9784 C   0  0  0  0  0  0  0  0  0  0  0  0
    9.7107    2.9903   24.9326 C   0  0  0  0  0  0  0  0  0  0  0  0
    8.4965    2.2702   25.4213 C   0  0  0  0  0  0  0  0  0  0  0  0
    7.8085    2.8181   26.0587 H   0  0  0  0  0  0  0  0  0  0  0  0
    8.5802    1.2112   25.6411 H   0  0  0  0  0  0  0  0  0  0  0  0
    9.8663    4.0292   25.2099 H   0  0  0  0  0  0  0  0  0  0  0  0
   10.6273    2.4150   24.8171 H   0  0  0  0  0  0  0  0  0  0  0  0
    7.9353    3.5147   23.6773 H   0  0  0  0  0  0  0  0  0  0  0  0
    9.8181    1.3629   22.1781 C   0  0  0  0  0  0  0  0  0  0  0  0
   11.1358    2.0034   22.2925 C   0  0  0  0  0  0  0  0  0  0  0  0
   11.2555    3.3969   22.3899 C   0  0  0  0  0  0  0  0  0  0  0  0
   12.4938    3.9972   22.6721 C   0  0  0  0  0  0  0  0  0  0  0  0
   13.6476    3.2308   22.8167 C   0  0  0  0  0  0  0  0  0  0  0  0
   13.5352    1.8313   22.6823 C   0  0  0  0  0  0  0  0  0  0  0  0
   12.2980    1.2000   22.3982 C   0  0  0  0  0  0  0  0  0  0  0  0
   12.5615   -0.2157   22.3266 C   0  0  0  0  0  0  0  0  0  0  0  0
   13.8962   -0.3971   22.5311 C   0  0  0  0  0  0  0  0  0  0  0  0
   14.4866    0.8327   22.7645 N   0  0  0  0  0  0  0  0  0  0  0  0
   15.4753    1.0123   22.7326 H   0  0  0  0  0  0  0  0  0  0  0  0
   14.4666   -1.3180   22.5810 H   0  0  0  0  0  0  0  0  0  0  0  0
   11.8177   -0.9657   22.0785 H   0  0  0  0  0  0  0  0  0  0  0  0
   14.5933    3.7262   22.9981 H   0  0  0  0  0  0  0  0  0  0  0  0
   12.5494    5.0757   22.7974 H   0  0  0  0  0  0  0  0  0  0  0  0
   10.3783    4.0245   22.2707 H   0  0  0  0  0  0  0  0  0  0  0  0
    9.4811    0.3996   21.3330 N   0  0  0  0  0  0  0  0  0  0  0  0
    6.6443   -1.2556   21.5265 H   0  0  0  0  0  0  0  0  0  0  0  0
    8.0197   -1.5541   20.4523 H   0  0  0  0  0  0  0  0  0  0  0  0
    5.3919    0.5889   19.9690 C   0  0  0  0  0  0  0  0  0  0  0  0
    4.9719    0.5699   20.9767 H   0  0  0  0  0  0  0  0  0  0  0  0
    7.9600   -0.6251   18.1101 H   0  0  0  0  0  0  0  0  0  0  0  0
    4.9464    1.9022   16.8671 H   0  0  0  0  0  0  0  0  0  0  0  0
    3.8840    1.8986   19.1175 H   0  0  0  0  0  0  0  0  0  0  0  0
  1  2  2  0
  2  3  1  0
  3  4  2  0
  4  5  1  0
  5  6  1  0
  6  7  1  0
  7  8  2  0
  8  9  1  0
  9 10  1  0
 10 11  1  0
 11 12  1  0
 12 13  1  0
 12 14  1  0
 11 15  1  0
 11 16  1  0
 10 17  1  0
  9 18  1  0
 18 19  1  0
 19 20  2  0
 20 21  1  0
 21 22  2  0
 22 23  1  0
 23 24  2  0
 24 25  1  0
 25 26  2  0
 26 27  1  0
 27 28  1  0
 26 29  1  0
 25 30  1  0
 22 31  1  0
 21 32  1  0
 20 33  1  0
 18 34  2  0
  6 35  1  0
  6 36  1  0
  5 37  2  0
 37 38  1  0
  4 39  1  0
  2 40  1  0
  1 41  1  0
 37  1  1  0
 34  7  1  0
 12 10  1  0
 24 19  1  0
 27 23  1  0
M  END
>  <cnnaffinity>  (1) 
-6.28467

>  <filename>  (1) 
c1cncc(Cc2nc(-c3cccc4[nH]ccc34)n(C3CC3)n2)c1

$$$$
