
     RDKit          3D

 24 26  0  0  0  0  0  0  0  0999 V2000
    4.9225    1.8230   16.9597 H   0  0  0  0  0  0  0  0  0  0  0  0
    5.3769    1.3194   17.8077 C   0  0  0  0  0  0  0  0  0  0  0  0
    6.5441    0.7040   17.5591 N   0  0  0  0  0  0  0  0  0  0  0  0
    7.1503    0.1137   18.5964 C   0  0  0  0  0  0  0  0  0  0  0  0
    8.0988   -0.3752   18.3755 H   0  0  0  0  0  0  0  0  0  0  0  0
    6.6441    0.0875   19.9169 C   0  0  0  0  0  0  0  0  0  0  0  0
    7.3366   -0.6329   21.0240 C   0  0  0  0  0  0  0  0  0  0  0  0
    7.6825   -2.0279   20.9943 C   0  0  0  0  0  0  0  0  0  0  0  0
    7.4001   -2.6792   20.1813 H   0  0  0  0  0  0  0  0  0  0  0  0
    8.2618   -2.5596   22.0319 N   0  0  0  0  0  0  0  0  0  0  0  0
    8.4316   -1.3803   23.1994 S   0  0  0  0  0  0  0  0  0  0  0  0
    7.6670   -0.1554   22.2749 C   0  0  0  0  0  0  0  0  0  0  0  0
    7.4290    1.1006   22.8109 N   0  0  0  0  0  0  0  0  0  0  0  0
    7.4374    2.2862   22.1112 C   0  0  0  0  0  0  0  0  0  0  0  0
    7.6145    2.2734   21.0417 H   0  0  0  0  0  0  0  0  0  0  0  0
    7.2102    3.3056   22.8823 N   0  0  0  0  0  0  0  0  0  0  0  0
    7.0470    2.7795   24.1477 C   0  0  0  0  0  0  0  0  0  0  0  0
    6.8558    3.4348   24.9892 H   0  0  0  0  0  0  0  0  0  0  0  0
    7.1727    1.4255   24.1358 C   0  0  0  0  0  0  0  0  0  0  0  0
    7.0678    0.6645   24.8996 H   0  0  0  0  0  0  0  0  0  0  0  0
    5.4083    0.7247   20.1369 C   0  0  0  0  0  0  0  0  0  0  0  0
    4.9766    0.7196   21.1389 H   0  0  0  0  0  0  0  0  0  0  0  0
    4.7636    1.3447   19.0632 C   0  0  0  0  0  0  0  0  0  0  0  0
    3.8176    1.8615   19.1906 H   0  0  0  0  0  0  0  0  0  0  0  0
  1  2  1  0
  2  3  2  0
  3  4  1  0
  4  5  1  0
  4  6  2  0
  6  7  1  0
  7  8  1  0
  8  9  1  0
  8 10  2  0
 10 11  1  0
 11 12  1  0
 12 13  1  0
 13 14  1  0
 14 15  1  0
 14 16  2  0
 16 17  1  0
 17 18  1  0
 17 19  2  0
 19 20  1  0
  6 21  1  0
 21 22  1  0
 21 23  2  0
 23 24  1  0
 23  2  1  0
 12  7  2  0
 19 13  1  0
M  END
>  <cnnaffinity>  (1) 
-4.60002

>  <filename>  (1) 
c1cncc(-c2cnsc2-n2ccnc2)c1

$$$$
