
     RDKit          3D

 50 54  0  0  0  0  0  0  0  0999 V2000
    4.7870    1.3137   19.0792 C   0  0  0  0  0  0  0  0  0  0  0  0
    5.3857    1.3024   17.8161 C   0  0  0  0  0  0  0  0  0  0  0  0
    6.5456    0.6791   17.5555 N   0  0  0  0  0  0  0  0  0  0  0  0
    7.1451    0.0461   18.5725 C   0  0  0  0  0  0  0  0  0  0  0  0
    6.6266   -0.0275   19.8798 C   0  0  0  0  0  0  0  0  0  0  0  0
    7.3916   -0.6674   21.0339 C   0  0  0  0  0  0  0  0  0  0  0  0
    8.2458    0.3263   21.7462 C   0  0  0  0  0  0  0  0  0  0  0  0
    7.8089    1.1391   22.6883 N   0  0  0  0  0  0  0  0  0  0  0  0
    8.8916    1.9123   22.9463 N   0  0  0  0  0  0  0  0  0  0  0  0
    8.8085    2.9652   23.9526 C   0  0  0  0  0  0  0  0  0  0  0  0
    8.0903    4.2172   23.4375 C   0  0  0  0  0  0  0  0  0  0  0  0
    6.5654    4.0488   23.3903 C   0  0  0  0  0  0  0  0  0  0  0  0
    5.8905    5.3604   22.9625 C   0  0  0  0  0  0  0  0  0  0  0  0
    6.4033    6.5329   23.8212 C   0  0  0  0  0  0  0  0  0  0  0  0
    7.9362    6.5338   23.8643 C   0  0  0  0  0  0  0  0  0  0  0  0
    8.4431    5.2831   24.3110 O   0  0  0  0  0  0  0  0  0  0  0  0
    8.3277    7.2903   24.5541 H   0  0  0  0  0  0  0  0  0  0  0  0
    8.3377    6.7648   22.8588 H   0  0  0  0  0  0  0  0  0  0  0  0
    6.0259    6.4449   24.8492 H   0  0  0  0  0  0  0  0  0  0  0  0
    6.0426    7.4928   23.4308 H   0  0  0  0  0  0  0  0  0  0  0  0
    4.8001    5.2702   23.0383 H   0  0  0  0  0  0  0  0  0  0  0  0
    6.1077    5.5535   21.8995 H   0  0  0  0  0  0  0  0  0  0  0  0
    6.3318    3.2103   22.7241 H   0  0  0  0  0  0  0  0  0  0  0  0
    6.2249    3.7689   24.3991 H   0  0  0  0  0  0  0  0  0  0  0  0
    8.4614    4.4528   22.4210 H   0  0  0  0  0  0  0  0  0  0  0  0
    9.8137    3.2377   24.2812 H   0  0  0  0  0  0  0  0  0  0  0  0
    8.2760    2.5456   24.8134 H   0  0  0  0  0  0  0  0  0  0  0  0
    9.9191    1.5133   22.1650 C   0  0  0  0  0  0  0  0  0  0  0  0
   11.2704    2.0972   22.2678 C   0  0  0  0  0  0  0  0  0  0  0  0
   11.5705    3.4749   22.2462 C   0  0  0  0  0  0  0  0  0  0  0  0
   12.9002    3.9136   22.3594 C   0  0  0  0  0  0  0  0  0  0  0  0
   13.9454    3.1033   22.5782 N   0  0  0  0  0  0  0  0  0  0  0  0
   13.6349    1.8039   22.5785 C   0  0  0  0  0  0  0  0  0  0  0  0
   12.3559    1.2158   22.4168 C   0  0  0  0  0  0  0  0  0  0  0  0
   12.5545   -0.2104   22.4172 C   0  0  0  0  0  0  0  0  0  0  0  0
   13.8977   -0.4228   22.5082 C   0  0  0  0  0  0  0  0  0  0  0  0
   14.5503    0.7904   22.6325 N   0  0  0  0  0  0  0  0  0  0  0  0
   15.5187    1.0066   22.4864 H   0  0  0  0  0  0  0  0  0  0  0  0
   14.4411   -1.3602   22.5179 H   0  0  0  0  0  0  0  0  0  0  0  0
   11.7538   -0.9420   22.3529 H   0  0  0  0  0  0  0  0  0  0  0  0
   13.1187    4.9718   22.2367 H   0  0  0  0  0  0  0  0  0  0  0  0
   10.7921    4.2247   22.1847 H   0  0  0  0  0  0  0  0  0  0  0  0
    9.5415    0.4969   21.4018 N   0  0  0  0  0  0  0  0  0  0  0  0
    8.0671   -1.4495   20.6781 H   0  0  0  0  0  0  0  0  0  0  0  0
    6.7080   -1.1134   21.7633 H   0  0  0  0  0  0  0  0  0  0  0  0
    5.4247    0.6442   20.1279 C   0  0  0  0  0  0  0  0  0  0  0  0
    5.0157    0.6493   21.1394 H   0  0  0  0  0  0  0  0  0  0  0  0
    8.1016   -0.4218   18.3325 H   0  0  0  0  0  0  0  0  0  0  0  0
    4.9207    1.8147   16.9742 H   0  0  0  0  0  0  0  0  0  0  0  0
    3.8588    1.8553   19.2293 H   0  0  0  0  0  0  0  0  0  0  0  0
  1  2  2  0
  2  3  1  0
  3  4  2  0
  4  5  1  0
  5  6  1  0
  6  7  1  0
  7  8  2  0
  8  9  1  0
  9 10  1  0
 10 11  1  0
 11 12  1  0
 12 13  1  0
 13 14  1  0
 14 15  1  0
 15 16  1  0
 15 17  1  0
 15 18  1  0
 14 19  1  0
 14 20  1  0
 13 21  1  0
 13 22  1  0
 12 23  1  0
 12 24  1  0
 11 25  1  0
 10 26  1  0
 10 27  1  0
  9 28  1  0
 28 29  1  0
 29 30  2  0
 30 31  1  0
 31 32  2  0
 32 33  1  0
 33 34  2  0
 34 35  1  0
 35 36  2  0
 36 37  1  0
 37 38  1  0
 36 39  1  0
 35 40  1  0
 31 41  1  0
 30 42  1  0
 28 43  2  0
  6 44  1  0
  6 45  1  0
  5 46  2  0
 46 47  1  0
  4 48  1  0
  2 49  1  0
  1 50  1  0
 46  1  1  0
 43  7  1  0
 16 11  1  0
 34 29  1  0
 37 33  1  0
M  END
>  <cnnaffinity>  (1) 
-6.85343

>  <filename>  (1) 
c1cncc(Cc2nc(-c3ccnc4[nH]ccc34)n(CC3CCCCO3)n2)c1

$$$$
