
     RDKit          3D

 53 57  0  0  0  0  0  0  0  0999 V2000
    4.6944    1.2492   18.7247 C   0  0  0  0  0  0  0  0  0  0  0  0
    5.2652    1.2299   17.4482 C   0  0  0  0  0  0  0  0  0  0  0  0
    6.3299    0.4791   17.1210 N   0  0  0  0  0  0  0  0  0  0  0  0
    6.8911   -0.2407   18.0985 C   0  0  0  0  0  0  0  0  0  0  0  0
    6.4593   -0.2260   19.4333 C   0  0  0  0  0  0  0  0  0  0  0  0
    7.2893   -0.8079   20.5686 C   0  0  0  0  0  0  0  0  0  0  0  0
    8.1308    0.2472   21.2444 C   0  0  0  0  0  0  0  0  0  0  0  0
    9.3717    0.4886   20.8834 N   0  0  0  0  0  0  0  0  0  0  0  0
    9.7300    1.5207   21.6926 N   0  0  0  0  0  0  0  0  0  0  0  0
   11.0814    1.9665   21.8435 C   0  0  0  0  0  0  0  0  0  0  0  0
   11.6793    2.9658   21.0755 C   0  0  0  0  0  0  0  0  0  0  0  0
   12.8305    3.6358   21.5549 C   0  0  0  0  0  0  0  0  0  0  0  0
   13.4836    3.2193   22.7121 C   0  0  0  0  0  0  0  0  0  0  0  0
   12.9943    2.0800   23.3798 C   0  0  0  0  0  0  0  0  0  0  0  0
   11.8217    1.4660   22.9240 C   0  0  0  0  0  0  0  0  0  0  0  0
   11.6452    0.3717   23.7352 N   0  0  0  0  0  0  0  0  0  0  0  0
   12.6857    0.3670   24.6148 C   0  0  0  0  0  0  0  0  0  0  0  0
   13.5029    1.3597   24.4430 N   0  0  0  0  0  0  0  0  0  0  0  0
   12.7902   -0.3914   25.3817 H   0  0  0  0  0  0  0  0  0  0  0  0
   10.9575   -0.3481   23.5921 H   0  0  0  0  0  0  0  0  0  0  0  0
   14.3963    3.6912   23.0551 H   0  0  0  0  0  0  0  0  0  0  0  0
   13.2271    4.4701   20.9840 H   0  0  0  0  0  0  0  0  0  0  0  0
   11.2886    3.1961   20.0917 H   0  0  0  0  0  0  0  0  0  0  0  0
    8.6735    1.8492   22.4940 C   0  0  0  0  0  0  0  0  0  0  0  0
    8.6965    2.9472   23.5244 C   0  0  0  0  0  0  0  0  0  0  0  0
    8.7416    4.3964   22.9872 C   0  0  0  0  0  0  0  0  0  0  0  0
    8.9807    5.4659   24.0673 C   0  0  0  0  0  0  0  0  0  0  0  0
    8.8592    6.9029   23.5257 C   0  0  0  0  0  0  0  0  0  0  0  0
    9.0448    7.9297   24.6633 C   0  0  0  0  0  0  0  0  0  0  0  0
   10.0093    7.5452   25.6436 O   0  0  0  0  0  0  0  0  0  0  0  0
   10.9887    6.6289   25.1977 C   0  0  0  0  0  0  0  0  0  0  0  0
   10.3571    5.2963   24.7678 C   0  0  0  0  0  0  0  0  0  0  0  0
   11.0782    4.7673   24.1281 H   0  0  0  0  0  0  0  0  0  0  0  0
   10.1982    4.6860   25.6573 H   0  0  0  0  0  0  0  0  0  0  0  0
   11.5688    7.0633   24.3697 H   0  0  0  0  0  0  0  0  0  0  0  0
   11.6762    6.4833   26.0351 H   0  0  0  0  0  0  0  0  0  0  0  0
    9.3190    8.9097   24.2440 H   0  0  0  0  0  0  0  0  0  0  0  0
    8.1137    8.0736   25.2270 H   0  0  0  0  0  0  0  0  0  0  0  0
    7.8915    7.0676   23.0341 H   0  0  0  0  0  0  0  0  0  0  0  0
    9.6343    7.0683   22.7614 H   0  0  0  0  0  0  0  0  0  0  0  0
    8.1992    5.3548   24.8356 H   0  0  0  0  0  0  0  0  0  0  0  0
    9.5414    4.4812   22.2458 H   0  0  0  0  0  0  0  0  0  0  0  0
    7.8036    4.6255   22.4628 H   0  0  0  0  0  0  0  0  0  0  0  0
    9.5648    2.7742   24.1705 H   0  0  0  0  0  0  0  0  0  0  0  0
    7.8161    2.8093   24.1578 H   0  0  0  0  0  0  0  0  0  0  0  0
    7.6600    1.0472   22.2399 N   0  0  0  0  0  0  0  0  0  0  0  0
    7.9471   -1.6052   20.2066 H   0  0  0  0  0  0  0  0  0  0  0  0
    6.6273   -1.2302   21.3305 H   0  0  0  0  0  0  0  0  0  0  0  0
    5.3035    0.5062   19.7362 C   0  0  0  0  0  0  0  0  0  0  0  0
    4.9271    0.5040   20.7620 H   0  0  0  0  0  0  0  0  0  0  0  0
    7.7432   -0.8638   17.8168 H   0  0  0  0  0  0  0  0  0  0  0  0
    4.8698    1.8549   16.6518 H   0  0  0  0  0  0  0  0  0  0  0  0
    3.8158    1.8582   18.9136 H   0  0  0  0  0  0  0  0  0  0  0  0
  1  2  2  0
  2  3  1  0
  3  4  2  0
  4  5  1  0
  5  6  1  0
  6  7  1  0
  7  8  2  0
  8  9  1  0
  9 10  1  0
 10 11  2  0
 11 12  1  0
 12 13  2  0
 13 14  1  0
 14 15  2  0
 15 16  1  0
 16 17  1  0
 17 18  2  0
 17 19  1  0
 16 20  1  0
 13 21  1  0
 12 22  1  0
 11 23  1  0
  9 24  1  0
 24 25  1  0
 25 26  1  0
 26 27  1  0
 27 28  1  0
 28 29  1  0
 29 30  1  0
 30 31  1  0
 31 32  1  0
 32 33  1  0
 32 34  1  0
 31 35  1  0
 31 36  1  0
 29 37  1  0
 29 38  1  0
 28 39  1  0
 28 40  1  0
 27 41  1  0
 26 42  1  0
 26 43  1  0
 25 44  1  0
 25 45  1  0
 24 46  2  0
  6 47  1  0
  6 48  1  0
  5 49  2  0
 49 50  1  0
  4 51  1  0
  2 52  1  0
  1 53  1  0
 49  1  1  0
 46  7  1  0
 15 10  1  0
 32 27  1  0
 18 14  1  0
M  END
>  <cnnaffinity>  (1) 
-6.36936

>  <filename>  (1) 
c1cncc(Cc2nc(CCC3CCOCC3)n(-c3cccc4nc[nH]c34)n2)c1

$$$$
