
     RDKit          3D

 31 33  0  0  0  0  0  0  0  0999 V2000
    4.9316    1.8072   16.9738 H   0  0  0  0  0  0  0  0  0  0  0  0
    5.3961    1.3032   17.8223 C   0  0  0  0  0  0  0  0  0  0  0  0
    6.5568    0.6808   17.5710 N   0  0  0  0  0  0  0  0  0  0  0  0
    7.1561    0.0501   18.5851 C   0  0  0  0  0  0  0  0  0  0  0  0
    8.1008   -0.4408   18.3580 H   0  0  0  0  0  0  0  0  0  0  0  0
    6.6388    0.0094   19.8862 C   0  0  0  0  0  0  0  0  0  0  0  0
    7.3827   -0.7282   20.9129 C   0  0  0  0  0  0  0  0  0  0  0  0
    7.9269   -1.9066   20.7638 N   0  0  0  0  0  0  0  0  0  0  0  0
    8.4686   -2.2806   21.9657 N   0  0  0  0  0  0  0  0  0  0  0  0
    8.2526   -1.3097   22.8083 C   0  0  0  0  0  0  0  0  0  0  0  0
    8.5707   -1.2919   23.8420 H   0  0  0  0  0  0  0  0  0  0  0  0
    7.5837   -0.2751   22.2013 N   0  0  0  0  0  0  0  0  0  0  0  0
    7.0072    0.8874   22.7966 N   0  0  0  0  0  0  0  0  0  0  0  0
    7.0541    1.6548   22.1224 H   0  0  0  0  0  0  0  0  0  0  0  0
    7.4772    1.2846   24.1271 C   0  0  0  0  0  0  0  0  0  0  0  0
    6.8990    2.1821   24.3623 H   0  0  0  0  0  0  0  0  0  0  0  0
    7.1691    0.5127   24.8398 H   0  0  0  0  0  0  0  0  0  0  0  0
    8.9654    1.5581   24.3339 C   0  0  0  0  0  0  0  0  0  0  0  0
    9.7071    0.8519   25.2993 C   0  0  0  0  0  0  0  0  0  0  0  0
    9.2623    0.1020   25.9454 H   0  0  0  0  0  0  0  0  0  0  0  0
   11.0743    1.1000   25.4464 C   0  0  0  0  0  0  0  0  0  0  0  0
   11.6492    0.4846   26.1380 H   0  0  0  0  0  0  0  0  0  0  0  0
   11.7410    2.0325   24.7505 N   0  0  0  0  0  0  0  0  0  0  0  0
   11.0367    2.7343   23.8500 C   0  0  0  0  0  0  0  0  0  0  0  0
   11.5916    3.4828   23.2802 H   0  0  0  0  0  0  0  0  0  0  0  0
    9.6690    2.5293   23.6054 C   0  0  0  0  0  0  0  0  0  0  0  0
    9.1704    3.1194   22.8419 H   0  0  0  0  0  0  0  0  0  0  0  0
    5.4207    0.6623   20.1394 C   0  0  0  0  0  0  0  0  0  0  0  0
    4.9857    0.6528   21.1394 H   0  0  0  0  0  0  0  0  0  0  0  0
    4.7895    1.3177   19.0837 C   0  0  0  0  0  0  0  0  0  0  0  0
    3.8576    1.8518   19.2265 H   0  0  0  0  0  0  0  0  0  0  0  0
  1  2  1  0
  2  3  2  0
  3  4  1  0
  4  5  1  0
  4  6  2  0
  6  7  1  0
  7  8  2  0
  8  9  1  0
  9 10  2  0
 10 11  1  0
 10 12  1  0
 12 13  1  0
 13 14  1  0
 13 15  1  0
 15 16  1  0
 15 17  1  0
 15 18  1  0
 18 19  2  0
 19 20  1  0
 19 21  1  0
 21 22  1  0
 21 23  2  0
 23 24  1  0
 24 25  1  0
 24 26  2  0
 26 27  1  0
  6 28  1  0
 28 29  1  0
 28 30  2  0
 30 31  1  0
 30  2  1  0
 12  7  1  0
 26 18  1  0
M  END
>  <cnnaffinity>  (1) 
-5.07922

>  <filename>  (1) 
c1cncc(-c2nncn2NCc2ccncc2)c1

$$$$
