
     RDKit          3D

 38 42  0  0  0  0  0  0  0  0999 V2000
    4.9996    1.8412   16.9115 H   0  0  0  0  0  0  0  0  0  0  0  0
    5.3903    1.3092   17.7806 C   0  0  0  0  0  0  0  0  0  0  0  0
    6.5414    0.6453   17.5987 N   0  0  0  0  0  0  0  0  0  0  0  0
    7.0627    0.0242   18.6662 C   0  0  0  0  0  0  0  0  0  0  0  0
    7.9988   -0.4998   18.4861 H   0  0  0  0  0  0  0  0  0  0  0  0
    6.4784   -0.0069   19.9512 C   0  0  0  0  0  0  0  0  0  0  0  0
    7.2353   -0.6169   21.0664 C   0  0  0  0  0  0  0  0  0  0  0  0
    8.5939   -0.5637   21.2952 C   0  0  0  0  0  0  0  0  0  0  0  0
    8.8088   -1.1581   22.5294 C   0  0  0  0  0  0  0  0  0  0  0  0
    7.6941   -1.6066   23.0785 N   0  0  0  0  0  0  0  0  0  0  0  0
    6.7429   -1.2619   22.1703 N   0  0  0  0  0  0  0  0  0  0  0  0
    5.7830   -1.5190   22.3707 H   0  0  0  0  0  0  0  0  0  0  0  0
   10.2468   -1.1250   22.9526 C   0  0  0  0  0  0  0  0  0  0  0  0
   10.3777   -0.6698   23.9390 H   0  0  0  0  0  0  0  0  0  0  0  0
   10.6660   -2.1366   23.0158 H   0  0  0  0  0  0  0  0  0  0  0  0
   10.9317   -0.2663   21.8271 C   0  0  2  0  0  0  0  0  0  0  0  0
   11.7614   -0.8473   21.4196 H   0  0  0  0  0  0  0  0  0  0  0  0
   11.4646    1.0611   22.3455 C   0  0  0  0  0  0  0  0  0  0  0  0
   12.8635    1.3595   22.3152 C   0  0  0  0  0  0  0  0  0  0  0  0
   13.5498    0.6094   21.9306 H   0  0  0  0  0  0  0  0  0  0  0  0
   13.3711    2.5708   22.7563 C   0  0  0  0  0  0  0  0  0  0  0  0
   14.4280    2.8177   22.6947 H   0  0  0  0  0  0  0  0  0  0  0  0
   12.4440    3.5027   23.2679 C   0  0  0  0  0  0  0  0  0  0  0  0
   11.0584    3.2357   23.3399 C   0  0  0  0  0  0  0  0  0  0  0  0
   10.5116    4.4198   23.9312 C   0  0  0  0  0  0  0  0  0  0  0  0
    9.4741    4.6393   24.1730 H   0  0  0  0  0  0  0  0  0  0  0  0
   11.4512    5.3088   24.1913 N   0  0  0  0  0  0  0  0  0  0  0  0
   12.6137    4.7464   23.7862 N   0  0  0  0  0  0  0  0  0  0  0  0
   13.4836    5.2554   23.8292 H   0  0  0  0  0  0  0  0  0  0  0  0
   10.5692    1.9968   22.8583 C   0  0  0  0  0  0  0  0  0  0  0  0
    9.5048    1.7692   22.8839 H   0  0  0  0  0  0  0  0  0  0  0  0
    9.8613   -0.0648   20.6978 C   0  0  0  0  0  0  0  0  0  0  0  0
    9.7861    0.9796   20.3729 H   0  0  0  0  0  0  0  0  0  0  0  0
   10.1109   -0.6517   19.8112 H   0  0  0  0  0  0  0  0  0  0  0  0
    5.2546    0.6679   20.1085 C   0  0  0  0  0  0  0  0  0  0  0  0
    4.7520    0.7010   21.0781 H   0  0  0  0  0  0  0  0  0  0  0  0
    4.7151    1.3370   19.0072 C   0  0  0  0  0  0  0  0  0  0  0  0
    3.7989    1.9079   19.0866 H   0  0  0  0  0  0  0  0  0  0  0  0
  1  2  1  0
  2  3  2  0
  3  4  1  0
  4  5  1  0
  4  6  2  0
  6  7  1  0
  7  8  2  0
  8  9  1  0
  9 10  2  0
 10 11  1  0
 11 12  1  0
  9 13  1  0
 13 14  1  0
 13 15  1  0
 13 16  1  0
 16 17  1  6
 16 18  1  0
 18 19  2  0
 19 20  1  0
 19 21  1  0
 21 22  1  0
 21 23  2  0
 23 24  1  0
 24 25  1  0
 25 26  1  0
 25 27  2  0
 27 28  1  0
 28 29  1  0
 24 30  2  0
 30 31  1  0
 16 32  1  0
 32 33  1  0
 32 34  1  0
  6 35  1  0
 35 36  1  0
 35 37  2  0
 37 38  1  0
 37  2  1  0
 11  7  1  0
 30 18  1  0
 32  8  1  0
 28 23  1  0
M  END
>  <cnnaffinity>  (1) 
-5.78619

>  <filename>  (1) 
c1cncc(-c2[nH]nc3c2C[C@@H](c2ccc4[nH]ncc4c2)C3)c1

$$$$
