
     RDKit          3D

 45 49  0  0  0  0  0  0  0  0999 V2000
    4.7916    1.3138   19.0289 C   0  0  0  0  0  0  0  0  0  0  0  0
    5.4011    1.3034   17.7723 C   0  0  0  0  0  0  0  0  0  0  0  0
    6.5405    0.6433   17.5095 N   0  0  0  0  0  0  0  0  0  0  0  0
    7.1216   -0.0023   18.5283 C   0  0  0  0  0  0  0  0  0  0  0  0
    6.6212   -0.0277   19.8417 C   0  0  0  0  0  0  0  0  0  0  0  0
    7.4028   -0.6442   20.9953 C   0  0  0  0  0  0  0  0  0  0  0  0
    8.2699    0.3399   21.7272 C   0  0  0  0  0  0  0  0  0  0  0  0
    7.8095    1.1036   22.7017 N   0  0  0  0  0  0  0  0  0  0  0  0
    8.8817    1.8534   23.0468 N   0  0  0  0  0  0  0  0  0  0  0  0
    8.7795    2.8755   24.0942 C   0  0  0  0  0  0  0  0  0  0  0  0
    8.3276    4.2411   23.5841 C   0  0  0  0  0  0  0  0  0  0  0  0
    7.1196    4.3675   22.8866 C   0  0  0  0  0  0  0  0  0  0  0  0
    6.7038    5.6304   22.4574 C   0  0  0  0  0  0  0  0  0  0  0  0
    7.4025    6.7569   22.6644 N   0  0  0  0  0  0  0  0  0  0  0  0
    8.5700    6.6343   23.3087 C   0  0  0  0  0  0  0  0  0  0  0  0
    9.0678    5.4151   23.7887 C   0  0  0  0  0  0  0  0  0  0  0  0
   10.0379    5.3980   24.2762 H   0  0  0  0  0  0  0  0  0  0  0  0
    9.1433    7.5511   23.4501 H   0  0  0  0  0  0  0  0  0  0  0  0
    5.7572    5.7359   21.9260 H   0  0  0  0  0  0  0  0  0  0  0  0
    6.5194    3.4922   22.6597 H   0  0  0  0  0  0  0  0  0  0  0  0
    8.0738    2.5066   24.8471 H   0  0  0  0  0  0  0  0  0  0  0  0
    9.7587    2.9769   24.5697 H   0  0  0  0  0  0  0  0  0  0  0  0
    9.9336    1.5068   22.2625 C   0  0  0  0  0  0  0  0  0  0  0  0
   11.2621    2.1221   22.4031 C   0  0  0  0  0  0  0  0  0  0  0  0
   11.4446    3.5065   22.3633 C   0  0  0  0  0  0  0  0  0  0  0  0
   12.7190    4.1043   22.4854 C   0  0  0  0  0  0  0  0  0  0  0  0
   13.8530    3.3331   22.6829 C   0  0  0  0  0  0  0  0  0  0  0  0
   13.6690    1.9346   22.7512 C   0  0  0  0  0  0  0  0  0  0  0  0
   12.4150    1.3181   22.5861 C   0  0  0  0  0  0  0  0  0  0  0  0
   12.7057   -0.0778   22.5999 C   0  0  0  0  0  0  0  0  0  0  0  0
   13.9967   -0.3048   22.7514 N   0  0  0  0  0  0  0  0  0  0  0  0
   14.5630    0.9164   22.8653 N   0  0  0  0  0  0  0  0  0  0  0  0
   15.5627    1.0315   22.8146 H   0  0  0  0  0  0  0  0  0  0  0  0
   11.9979   -0.8827   22.4443 H   0  0  0  0  0  0  0  0  0  0  0  0
   14.8439    3.7696   22.7520 H   0  0  0  0  0  0  0  0  0  0  0  0
   12.8054    5.1866   22.4082 H   0  0  0  0  0  0  0  0  0  0  0  0
   10.5778    4.1381   22.2250 H   0  0  0  0  0  0  0  0  0  0  0  0
    9.5765    0.5365   21.4290 N   0  0  0  0  0  0  0  0  0  0  0  0
    8.0374   -1.4616   20.6369 H   0  0  0  0  0  0  0  0  0  0  0  0
    6.7116   -1.0612   21.7334 H   0  0  0  0  0  0  0  0  0  0  0  0
    5.4117    0.6380   20.0816 C   0  0  0  0  0  0  0  0  0  0  0  0
    4.9707    0.6320   21.0805 H   0  0  0  0  0  0  0  0  0  0  0  0
    8.0444   -0.5335   18.2901 H   0  0  0  0  0  0  0  0  0  0  0  0
    4.9568    1.8475   16.9401 H   0  0  0  0  0  0  0  0  0  0  0  0
    3.8632    1.8560   19.1741 H   0  0  0  0  0  0  0  0  0  0  0  0
  1  2  2  0
  2  3  1  0
  3  4  2  0
  4  5  1  0
  5  6  1  0
  6  7  1  0
  7  8  2  0
  8  9  1  0
  9 10  1  0
 10 11  1  0
 11 12  2  0
 12 13  1  0
 13 14  2  0
 14 15  1  0
 15 16  2  0
 16 17  1  0
 15 18  1  0
 13 19  1  0
 12 20  1  0
 10 21  1  0
 10 22  1  0
  9 23  1  0
 23 24  1  0
 24 25  2  0
 25 26  1  0
 26 27  2  0
 27 28  1  0
 28 29  2  0
 29 30  1  0
 30 31  2  0
 31 32  1  0
 32 33  1  0
 30 34  1  0
 27 35  1  0
 26 36  1  0
 25 37  1  0
 23 38  2  0
  6 39  1  0
  6 40  1  0
  5 41  2  0
 41 42  1  0
  4 43  1  0
  2 44  1  0
  1 45  1  0
 41  1  1  0
 38  7  1  0
 16 11  1  0
 29 24  1  0
 32 28  1  0
M  END
>  <cnnaffinity>  (1) 
-6.58866

>  <filename>  (1) 
c1cncc(Cc2nc(-c3cccc4[nH]ncc34)n(Cc3ccncc3)n2)c1

$$$$
