
     RDKit          3D

 34 36  0  0  0  0  0  0  0  0999 V2000
    4.9209    1.7817   16.9904 H   0  0  0  0  0  0  0  0  0  0  0  0
    5.4037    1.2965   17.8337 C   0  0  0  0  0  0  0  0  0  0  0  0
    6.5669    0.6797   17.5738 N   0  0  0  0  0  0  0  0  0  0  0  0
    7.1801    0.0775   18.5981 C   0  0  0  0  0  0  0  0  0  0  0  0
    8.1136   -0.4345   18.3701 H   0  0  0  0  0  0  0  0  0  0  0  0
    6.6651    0.0473   19.8982 C   0  0  0  0  0  0  0  0  0  0  0  0
    7.3462   -0.6787   20.9710 C   0  0  0  0  0  0  0  0  0  0  0  0
    6.7723   -1.5544   21.7528 N   0  0  0  0  0  0  0  0  0  0  0  0
    7.7050   -1.9784   22.6706 N   0  0  0  0  0  0  0  0  0  0  0  0
    8.8065   -1.3277   22.4205 C   0  0  0  0  0  0  0  0  0  0  0  0
    9.7171   -1.4096   22.9972 H   0  0  0  0  0  0  0  0  0  0  0  0
    8.6605   -0.5236   21.3215 N   0  0  0  0  0  0  0  0  0  0  0  0
    9.5817    0.4854   20.8620 C   0  0  0  0  0  0  0  0  0  0  0  0
    9.6880    0.4138   19.7784 H   0  0  0  0  0  0  0  0  0  0  0  0
   10.5635    0.3046   21.3183 H   0  0  0  0  0  0  0  0  0  0  0  0
    9.1626    1.8047   21.1956 N   0  0  0  0  0  0  0  0  0  0  0  0
    8.2700    2.0148   20.7584 H   0  0  0  0  0  0  0  0  0  0  0  0
    9.0736    2.0692   22.6305 C   0  0  0  0  0  0  0  0  0  0  0  0
   10.0203    1.7746   23.1080 H   0  0  0  0  0  0  0  0  0  0  0  0
    8.2746    1.4724   23.1061 H   0  0  0  0  0  0  0  0  0  0  0  0
    8.8241    3.5330   22.9078 C   0  0  0  0  0  0  0  0  0  0  0  0
    9.8708    4.4466   23.0813 C   0  0  0  0  0  0  0  0  0  0  0  0
   10.9051    4.1286   23.0215 H   0  0  0  0  0  0  0  0  0  0  0  0
    9.5746    5.7931   23.2895 C   0  0  0  0  0  0  0  0  0  0  0  0
   10.3795    6.5121   23.4142 H   0  0  0  0  0  0  0  0  0  0  0  0
    8.3309    6.2848   23.3567 N   0  0  0  0  0  0  0  0  0  0  0  0
    7.3322    5.4072   23.1949 C   0  0  0  0  0  0  0  0  0  0  0  0
    6.3249    5.8105   23.2419 H   0  0  0  0  0  0  0  0  0  0  0  0
    7.5231    4.0430   22.9790 C   0  0  0  0  0  0  0  0  0  0  0  0
    6.6644    3.3948   22.8464 H   0  0  0  0  0  0  0  0  0  0  0  0
    5.4325    0.6673   20.1536 C   0  0  0  0  0  0  0  0  0  0  0  0
    5.0039    0.6233   21.1615 H   0  0  0  0  0  0  0  0  0  0  0  0
    4.8036    1.3201   19.0981 C   0  0  0  0  0  0  0  0  0  0  0  0
    3.8698    1.8463   19.2506 H   0  0  0  0  0  0  0  0  0  0  0  0
  1  2  1  0
  2  3  2  0
  3  4  1  0
  4  5  1  0
  4  6  2  0
  6  7  1  0
  7  8  2  0
  8  9  1  0
  9 10  2  0
 10 11  1  0
 10 12  1  0
 12 13  1  0
 13 14  1  0
 13 15  1  0
 13 16  1  0
 16 17  1  0
 16 18  1  0
 18 19  1  0
 18 20  1  0
 18 21  1  0
 21 22  2  0
 22 23  1  0
 22 24  1  0
 24 25  1  0
 24 26  2  0
 26 27  1  0
 27 28  1  0
 27 29  2  0
 29 30  1  0
  6 31  1  0
 31 32  1  0
 31 33  2  0
 33 34  1  0
 33  2  1  0
 12  7  1  0
 29 21  1  0
M  END
>  <cnnaffinity>  (1) 
-4.60864

>  <filename>  (1) 
c1cncc(-c2nncn2CNCc2ccncc2)c1

$$$$
