
     RDKit          3D

 33 36  0  0  0  0  0  0  0  0999 V2000
    5.0225    1.7869   16.8809 H   0  0  0  0  0  0  0  0  0  0  0  0
    5.4646    1.2933   17.7435 C   0  0  0  0  0  0  0  0  0  0  0  0
    6.6386    0.6692   17.5365 N   0  0  0  0  0  0  0  0  0  0  0  0
    7.2139    0.0720   18.5890 C   0  0  0  0  0  0  0  0  0  0  0  0
    8.1628   -0.4319   18.4075 H   0  0  0  0  0  0  0  0  0  0  0  0
    6.6679    0.0638   19.8935 C   0  0  0  0  0  0  0  0  0  0  0  0
    7.3278   -0.5779   20.9527 N   0  0  0  0  0  0  0  0  0  0  0  0
    7.5797   -1.5573   20.8478 H   0  0  0  0  0  0  0  0  0  0  0  0
    7.3488   -0.1342   22.2724 C   0  0  0  0  0  0  0  0  0  0  0  0
    7.3371    1.1745   22.8187 C   0  0  0  0  0  0  0  0  0  0  0  0
    7.2595    2.1048   22.2745 H   0  0  0  0  0  0  0  0  0  0  0  0
    7.4485    1.1611   24.1433 N   0  0  0  0  0  0  0  0  0  0  0  0
    7.5443   -0.1371   24.4560 N   0  0  0  0  0  0  0  0  0  0  0  0
    7.6414   -0.4076   25.4268 H   0  0  0  0  0  0  0  0  0  0  0  0
    7.4832   -0.9682   23.3757 C   0  0  0  0  0  0  0  0  0  0  0  0
    7.6103   -2.4018   23.4347 C   0  0  0  0  0  0  0  0  0  0  0  0
    6.9652   -3.3973   22.1479 S   0  0  0  0  0  0  0  0  0  0  0  0
    7.7684   -4.7584   22.7741 C   0  0  0  0  0  0  0  0  0  0  0  0
    7.9577   -6.1310   22.2821 C   0  0  0  0  0  0  0  0  0  0  0  0
    7.5232   -6.4764   21.3474 H   0  0  0  0  0  0  0  0  0  0  0  0
    8.7802   -6.8236   23.0929 C   0  0  0  0  0  0  0  0  0  0  0  0
    9.3191   -7.7614   22.8238 H   0  0  0  0  0  0  0  0  0  0  0  0
    9.1017   -5.6829   24.7538 C   0  0  0  0  0  0  0  0  0  0  0  0
    9.0783   -6.8580   25.1934 H   0  0  0  0  0  0  0  0  0  0  0  0
    9.2206   -5.6920   24.7238 C   0  0  0  0  0  0  0  0  0  0  0  0
    9.4810   -4.8147   25.6559 H   0  0  0  0  0  0  0  0  0  0  0  0
    8.4531   -4.5064   23.9662 C   0  0  0  0  0  0  0  0  0  0  0  0
    8.3532   -3.1487   24.3135 C   0  0  0  0  0  0  0  0  0  0  0  0
    8.8550   -2.6657   25.1553 H   0  0  0  0  0  0  0  0  0  0  0  0
    5.4311    0.6976   20.0804 C   0  0  0  0  0  0  0  0  0  0  0  0
    4.9804    0.6813   21.0736 H   0  0  0  0  0  0  0  0  0  0  0  0
    4.8238    1.3230   18.9870 C   0  0  0  0  0  0  0  0  0  0  0  0
    3.8786    1.8448   19.0983 H   0  0  0  0  0  0  0  0  0  0  0  0
  1  2  1  0
  2  3  2  0
  3  4  1  0
  4  5  1  0
  4  6  2  0
  6  7  1  0
  7  8  1  0
  7  9  1  0
  9 10  1  0
 10 11  1  0
 10 12  2  0
 12 13  1  0
 13 14  1  0
 13 15  1  0
 15 16  1  0
 16 17  1  0
 17 18  1  0
 18 19  2  0
 19 20  1  0
 19 21  1  0
 21 22  1  0
 21 23  2  0
 23 24  1  0
 23 25  1  0
 25 26  1  0
 25 27  2  0
 27 28  1  0
 28 29  1  0
  6 30  1  0
 30 31  1  0
 30 32  2  0
 32 33  1  0
 32  2  1  0
 15  9  2  0
 28 16  2  0
 27 18  1  0
M  END
>  <cnnaffinity>  (1) 
-5.96122

>  <filename>  (1) 
c1cncc(Nc2cn[nH]c2-c2cc3ccccc3s2)c1

$$$$
