
     RDKit          3D

 35 37  0  0  0  0  0  0  0  0999 V2000
    4.9183    1.7969   16.9853 H   0  0  0  0  0  0  0  0  0  0  0  0
    5.3899    1.2973   17.8293 C   0  0  0  0  0  0  0  0  0  0  0  0
    6.5499    0.6750   17.5679 N   0  0  0  0  0  0  0  0  0  0  0  0
    7.1514    0.0342   18.5766 C   0  0  0  0  0  0  0  0  0  0  0  0
    8.1203   -0.4154   18.3658 H   0  0  0  0  0  0  0  0  0  0  0  0
    6.6219   -0.0364   19.8790 C   0  0  0  0  0  0  0  0  0  0  0  0
    7.5386   -0.8469   21.1952 S   0  0  0  0  0  0  0  0  0  0  0  0
    8.5932    0.5205   21.6139 C   0  0  0  0  0  0  0  0  0  0  0  0
    9.6922    0.8595   20.9754 N   0  0  0  0  0  0  0  0  0  0  0  0
   10.1219    1.9996   21.5606 N   0  0  0  0  0  0  0  0  0  0  0  0
    9.3337    2.3648   22.5047 N   0  0  0  0  0  0  0  0  0  0  0  0
    8.3406    1.4520   22.5457 N   0  0  0  0  0  0  0  0  0  0  0  0
    7.2931    1.4587   23.5452 C   0  0  0  0  0  0  0  0  0  0  0  0
    6.3496    1.2200   23.0446 H   0  0  0  0  0  0  0  0  0  0  0  0
    7.2196    2.4753   23.9430 H   0  0  0  0  0  0  0  0  0  0  0  0
    7.5431    0.5034   24.5988 N   0  0  0  0  0  0  0  0  0  0  0  0
    7.7968   -0.3836   24.1736 H   0  0  0  0  0  0  0  0  0  0  0  0
    8.5828    0.9298   25.5411 C   0  0  0  0  0  0  0  0  0  0  0  0
    9.3928    1.4658   25.0130 H   0  0  0  0  0  0  0  0  0  0  0  0
    7.9704    1.8187   26.6423 C   0  0  0  0  0  0  0  0  0  0  0  0
    7.1333    2.4078   26.2576 H   0  0  0  0  0  0  0  0  0  0  0  0
    8.7254    2.5360   26.9759 H   0  0  0  0  0  0  0  0  0  0  0  0
    7.5439    0.8807   27.8036 C   0  0  0  0  0  0  0  0  0  0  0  0
    7.8472    1.2994   28.7691 H   0  0  0  0  0  0  0  0  0  0  0  0
    6.4541    0.7794   27.8523 H   0  0  0  0  0  0  0  0  0  0  0  0
    8.2139   -0.4887   27.5154 C   0  0  0  0  0  0  0  0  0  0  0  0
    8.8066   -0.8616   28.3527 H   0  0  0  0  0  0  0  0  0  0  0  0
    7.4532   -1.2448   27.2890 H   0  0  0  0  0  0  0  0  0  0  0  0
    9.1504   -0.2599   26.3147 C   0  0  0  0  0  0  0  0  0  0  0  0
   10.1514    0.0095   26.6735 H   0  0  0  0  0  0  0  0  0  0  0  0
    9.2770   -1.1558   25.6946 H   0  0  0  0  0  0  0  0  0  0  0  0
    5.4235    0.6328   20.1460 C   0  0  0  0  0  0  0  0  0  0  0  0
    5.0026    0.6307   21.1559 H   0  0  0  0  0  0  0  0  0  0  0  0
    4.7991    1.3110   19.0963 C   0  0  0  0  0  0  0  0  0  0  0  0
    3.8734    1.8478   19.2525 H   0  0  0  0  0  0  0  0  0  0  0  0
  1  2  1  0
  2  3  2  0
  3  4  1  0
  4  5  1  0
  4  6  2  0
  6  7  1  0
  7  8  1  0
  8  9  2  0
  9 10  1  0
 10 11  2  0
 11 12  1  0
 12 13  1  0
 13 14  1  0
 13 15  1  0
 13 16  1  0
 16 17  1  0
 16 18  1  0
 18 19  1  0
 18 20  1  0
 20 21  1  0
 20 22  1  0
 20 23  1  0
 23 24  1  0
 23 25  1  0
 23 26  1  0
 26 27  1  0
 26 28  1  0
 26 29  1  0
 29 30  1  0
 29 31  1  0
  6 32  1  0
 32 33  1  0
 32 34  2  0
 34 35  1  0
 34  2  1  0
 12  8  1  0
 29 18  1  0
M  END
>  <cnnaffinity>  (1) 
-5.14192

>  <filename>  (1) 
c1cncc(Sc2nnnn2CNC2CCCC2)c1

$$$$
