
     RDKit          3D

 50 55  0  0  0  0  0  0  0  0999 V2000
    4.7172    1.3439   18.8595 C   0  0  0  0  0  0  0  0  0  0  0  0
    5.3573    1.2769   17.6174 C   0  0  0  0  0  0  0  0  0  0  0  0
    6.4518    0.5351   17.3877 N   0  0  0  0  0  0  0  0  0  0  0  0
    6.9618   -0.1382   18.4271 C   0  0  0  0  0  0  0  0  0  0  0  0
    6.4319   -0.1050   19.7287 C   0  0  0  0  0  0  0  0  0  0  0  0
    7.1593   -0.6918   20.9245 C   0  0  0  0  0  0  0  0  0  0  0  0
    7.9795    0.3574   21.6143 C   0  0  0  0  0  0  0  0  0  0  0  0
    7.6956    0.9036   22.7795 N   0  0  0  0  0  0  0  0  0  0  0  0
    8.6962    1.8306   22.9229 N   0  0  0  0  0  0  0  0  0  0  0  0
    8.7000    2.7792   23.9819 C   0  0  0  0  0  0  0  0  0  0  0  0
    9.0973    4.1098   23.8224 C   0  0  0  0  0  0  0  0  0  0  0  0
    9.1170    4.9964   24.9274 C   0  0  0  0  0  0  0  0  0  0  0  0
    8.7488    4.5758   26.2065 C   0  0  0  0  0  0  0  0  0  0  0  0
    8.3400    3.2387   26.3757 C   0  0  0  0  0  0  0  0  0  0  0  0
    8.3098    2.3709   25.2713 C   0  0  0  0  0  0  0  0  0  0  0  0
    7.8909    1.1647   25.7760 N   0  0  0  0  0  0  0  0  0  0  0  0
    7.6796    1.3481   27.1119 C   0  0  0  0  0  0  0  0  0  0  0  0
    7.9289    2.5623   27.5167 N   0  0  0  0  0  0  0  0  0  0  0  0
    7.3493    0.5397   27.7511 H   0  0  0  0  0  0  0  0  0  0  0  0
    7.6432    0.3791   25.1959 H   0  0  0  0  0  0  0  0  0  0  0  0
    8.7550    5.2326   27.0691 H   0  0  0  0  0  0  0  0  0  0  0  0
    9.4249    6.0259   24.7630 H   0  0  0  0  0  0  0  0  0  0  0  0
    9.3706    4.4772   22.8355 H   0  0  0  0  0  0  0  0  0  0  0  0
    9.5729    1.6953   21.8912 C   0  0  0  0  0  0  0  0  0  0  0  0
   11.0143    2.0836   21.9550 C   0  0  0  0  0  0  0  0  0  0  0  0
   11.7237    1.0228   22.7823 C   0  0  0  0  0  0  0  0  0  0  0  0
   11.6018    1.1552   24.2985 C   0  0  0  0  0  0  0  0  0  0  0  0
   12.8178    0.3862   24.8691 C   0  0  0  0  0  0  0  0  0  0  0  0
   13.8557    0.3917   23.7317 C   0  0  0  0  0  0  0  0  0  0  0  0
   13.0644    0.4729   22.4556 C   0  0  0  0  0  0  0  0  0  0  0  0
   11.8498   -0.3890   22.2574 C   0  0  0  0  0  0  0  0  0  0  0  0
   11.6695   -1.1958   22.9635 H   0  0  0  0  0  0  0  0  0  0  0  0
   11.4788   -0.5776   21.2487 H   0  0  0  0  0  0  0  0  0  0  0  0
   13.6329    0.8054   21.6055 H   0  0  0  0  0  0  0  0  0  0  0  0
   14.4225    1.3238   23.7860 H   0  0  0  0  0  0  0  0  0  0  0  0
   14.5886   -0.4220   23.7172 H   0  0  0  0  0  0  0  0  0  0  0  0
   12.4899   -0.6021   25.1795 H   0  0  0  0  0  0  0  0  0  0  0  0
   13.2515    0.8257   25.7598 H   0  0  0  0  0  0  0  0  0  0  0  0
   11.6271    2.2123   24.5898 H   0  0  0  0  0  0  0  0  0  0  0  0
   10.6472    0.7322   24.6386 H   0  0  0  0  0  0  0  0  0  0  0  0
   11.1561    3.0661   22.4093 H   0  0  0  0  0  0  0  0  0  0  0  0
   11.3976    2.1211   20.9328 H   0  0  0  0  0  0  0  0  0  0  0  0
    9.1165    0.8120   21.0229 N   0  0  0  0  0  0  0  0  0  0  0  0
    6.4555   -1.1054   21.6518 H   0  0  0  0  0  0  0  0  0  0  0  0
    7.8402   -1.4910   20.6131 H   0  0  0  0  0  0  0  0  0  0  0  0
    5.2661    0.6410   19.9325 C   0  0  0  0  0  0  0  0  0  0  0  0
    4.8103    0.6715   20.9247 H   0  0  0  0  0  0  0  0  0  0  0  0
    7.8490   -0.7398   18.2222 H   0  0  0  0  0  0  0  0  0  0  0  0
    4.9728    1.8353   16.7660 H   0  0  0  0  0  0  0  0  0  0  0  0
    3.8294    1.9550   18.9786 H   0  0  0  0  0  0  0  0  0  0  0  0
  1  2  2  0
  2  3  1  0
  3  4  2  0
  4  5  1  0
  5  6  1  0
  6  7  1  0
  7  8  2  0
  8  9  1  0
  9 10  1  0
 10 11  2  0
 11 12  1  0
 12 13  2  0
 13 14  1  0
 14 15  2  0
 15 16  1  0
 16 17  1  0
 17 18  2  0
 17 19  1  0
 16 20  1  0
 13 21  1  0
 12 22  1  0
 11 23  1  0
  9 24  1  0
 24 25  1  0
 25 26  1  0
 26 27  1  0
 27 28  1  0
 28 29  1  0
 29 30  1  0
 30 31  1  0
 31 32  1  0
 31 33  1  0
 30 34  1  0
 29 35  1  0
 29 36  1  0
 28 37  1  0
 28 38  1  0
 27 39  1  0
 27 40  1  0
 25 41  1  0
 25 42  1  0
 24 43  2  0
  6 44  1  0
  6 45  1  0
  5 46  2  0
 46 47  1  0
  4 48  1  0
  2 49  1  0
  1 50  1  0
 46  1  1  0
 43  7  1  0
 15 10  1  0
 30 26  1  0
 18 14  1  0
 31 26  1  0
M  END
>  <cnnaffinity>  (1) 
-6.23168

>  <filename>  (1) 
c1cncc(Cc2nc(CC34CCCC3C4)n(-c3cccc4nc[nH]c34)n2)c1

$$$$
