
     RDKit          3D

 39 41  0  0  0  0  0  0  0  0999 V2000
    4.8613    1.2731   19.0881 C   0  0  0  0  0  0  0  0  0  0  0  0
    5.5032    1.2845   17.8442 C   0  0  0  0  0  0  0  0  0  0  0  0
    6.6397    0.6145   17.5936 N   0  0  0  0  0  0  0  0  0  0  0  0
    7.1850   -0.0664   18.6103 C   0  0  0  0  0  0  0  0  0  0  0  0
    6.6432   -0.1196   19.9069 C   0  0  0  0  0  0  0  0  0  0  0  0
    7.3216   -0.8956   20.9833 C   0  0  0  0  0  0  0  0  0  0  0  0
    6.6985   -2.0700   21.4399 C   0  0  0  0  0  0  0  0  0  0  0  0
    7.2884   -2.8575   22.4318 C   0  0  0  0  0  0  0  0  0  0  0  0
    8.5124   -2.4692   22.9851 C   0  0  0  0  0  0  0  0  0  0  0  0
    9.1349   -1.2980   22.5473 C   0  0  0  0  0  0  0  0  0  0  0  0
    8.5576   -0.4873   21.5517 C   0  0  0  0  0  0  0  0  0  0  0  0
    9.2078    0.8381   21.2266 C   0  0  0  0  0  0  0  0  0  0  0  0
    8.4756    1.8729   22.1193 N   0  0  0  0  0  4  0  0  0  0  0  0
    8.9449    3.2943   22.1781 C   0  0  0  0  0  0  0  0  0  0  0  0
   10.3735    3.5263   22.6753 C   0  0  0  0  0  0  0  0  0  0  0  0
   11.5025    3.2611   21.8754 C   0  0  0  0  0  0  0  0  0  0  0  0
   12.7727    3.6367   22.3292 C   0  0  0  0  0  0  0  0  0  0  0  0
   13.0003    4.2390   23.5052 N   0  0  0  0  0  0  0  0  0  0  0  0
   11.9275    4.5171   24.2584 C   0  0  0  0  0  0  0  0  0  0  0  0
   10.6224    4.1674   23.9002 C   0  0  0  0  0  0  0  0  0  0  0  0
    9.8025    4.4095   24.5671 H   0  0  0  0  0  0  0  0  0  0  0  0
   12.1075    5.0432   25.1981 H   0  0  0  0  0  0  0  0  0  0  0  0
   13.6529    3.4862   21.7139 H   0  0  0  0  0  0  0  0  0  0  0  0
   11.3985    2.8324   20.8800 H   0  0  0  0  0  0  0  0  0  0  0  0
    8.8737    3.7391   21.1833 H   0  0  0  0  0  0  0  0  0  0  0  0
    8.2700    3.8651   22.8169 H   0  0  0  0  0  0  0  0  0  0  0  0
    8.5443    1.4719   23.0868 H   0  0  0  0  0  0  0  0  0  0  0  0
    7.4782    1.7965   21.8122 H   0  0  0  0  0  0  0  0  0  0  0  0
   10.2673    0.8237   21.4857 H   0  0  0  0  0  0  0  0  0  0  0  0
    9.1154    1.1084   20.1721 H   0  0  0  0  0  0  0  0  0  0  0  0
   10.0713   -0.9849   23.0089 H   0  0  0  0  0  0  0  0  0  0  0  0
    8.9708   -3.0613   23.7748 H   0  0  0  0  0  0  0  0  0  0  0  0
    6.7967   -3.7646   22.7736 H   0  0  0  0  0  0  0  0  0  0  0  0
    5.7426   -2.3521   21.0045 H   0  0  0  0  0  0  0  0  0  0  0  0
    5.4254    0.5409   20.1324 C   0  0  0  0  0  0  0  0  0  0  0  0
    4.9362    0.4765   21.1080 H   0  0  0  0  0  0  0  0  0  0  0  0
    8.1032   -0.6139   18.3878 H   0  0  0  0  0  0  0  0  0  0  0  0
    5.0863    1.8507   17.0151 H   0  0  0  0  0  0  0  0  0  0  0  0
    3.9467    1.8397   19.2218 H   0  0  0  0  0  0  0  0  0  0  0  0
  1  2  2  0
  2  3  1  0
  3  4  2  0
  4  5  1  0
  5  6  1  0
  6  7  2  0
  7  8  1  0
  8  9  2  0
  9 10  1  0
 10 11  2  0
 11 12  1  0
 12 13  1  0
 13 14  1  0
 14 15  1  0
 15 16  2  0
 16 17  1  0
 17 18  2  0
 18 19  1  0
 19 20  2  0
 20 21  1  0
 19 22  1  0
 17 23  1  0
 16 24  1  0
 14 25  1  0
 14 26  1  0
 13 27  1  0
 13 28  1  0
 12 29  1  0
 12 30  1  0
 10 31  1  0
  9 32  1  0
  8 33  1  0
  7 34  1  0
  5 35  2  0
 35 36  1  0
  4 37  1  0
  2 38  1  0
  1 39  1  0
 35  1  1  0
 11  6  1  0
 20 15  1  0
M  CHG  1  13   1
M  END
>  <cnnaffinity>  (1) 
-4.81751

>  <filename>  (1) 
c1cncc(-c2ccccc2C[NH2+]Cc2ccncc2)c1

$$$$
