
     RDKit          3D

 49 54  0  0  0  0  0  0  0  0999 V2000
    4.8137    1.3092   19.0508 C   0  0  0  0  0  0  0  0  0  0  0  0
    5.4040    1.2994   17.7843 C   0  0  0  0  0  0  0  0  0  0  0  0
    6.5467    0.6509   17.5044 N   0  0  0  0  0  0  0  0  0  0  0  0
    7.1446    0.0012   18.5102 C   0  0  0  0  0  0  0  0  0  0  0  0
    6.6584   -0.0402   19.8280 C   0  0  0  0  0  0  0  0  0  0  0  0
    7.4266   -0.6972   20.9738 C   0  0  0  0  0  0  0  0  0  0  0  0
    8.3243    0.2609   21.7092 C   0  0  0  0  0  0  0  0  0  0  0  0
    9.5978    0.4351   21.3962 N   0  0  0  0  0  0  0  0  0  0  0  0
    9.9502    1.4958   22.1760 N   0  0  0  0  0  0  0  0  0  0  0  0
   11.2478    2.0663   22.2155 C   0  0  0  0  0  0  0  0  0  0  0  0
   11.4676    3.4467   22.2253 C   0  0  0  0  0  0  0  0  0  0  0  0
   12.7590    3.9764   22.4275 C   0  0  0  0  0  0  0  0  0  0  0  0
   13.8453    3.1460   22.6687 C   0  0  0  0  0  0  0  0  0  0  0  0
   13.6486    1.7477   22.6562 C   0  0  0  0  0  0  0  0  0  0  0  0
   12.3698    1.2397   22.3727 C   0  0  0  0  0  0  0  0  0  0  0  0
   12.5339   -0.1226   22.3159 N   0  0  0  0  0  0  0  0  0  0  0  0
   13.8587   -0.3698   22.5283 C   0  0  0  0  0  0  0  0  0  0  0  0
   14.5608    0.7046   22.7523 N   0  0  0  0  0  0  0  0  0  0  0  0
   14.2501   -1.3792   22.5488 H   0  0  0  0  0  0  0  0  0  0  0  0
   11.8340   -0.7393   21.9408 H   0  0  0  0  0  0  0  0  0  0  0  0
   14.8349    3.5677   22.7616 H   0  0  0  0  0  0  0  0  0  0  0  0
   12.9031    5.0499   22.3976 H   0  0  0  0  0  0  0  0  0  0  0  0
   10.6351    4.1283   22.1261 H   0  0  0  0  0  0  0  0  0  0  0  0
    8.8995    1.8401   22.9706 C   0  0  0  0  0  0  0  0  0  0  0  0
    8.9623    2.9142   24.0268 C   0  0  0  0  0  0  0  0  0  0  0  0
    8.3379    2.4799   25.3928 C   0  0  0  0  0  0  0  0  0  0  0  0
    7.1004    3.3266   25.5250 C   0  0  0  0  0  0  0  0  0  0  0  0
    6.0792    3.2667   26.4684 C   0  0  0  0  0  0  0  0  0  0  0  0
    5.0334    4.1941   26.3592 C   0  0  0  0  0  0  0  0  0  0  0  0
    5.0725    5.1312   25.3183 C   0  0  0  0  0  0  0  0  0  0  0  0
    6.0529    5.2058   24.4061 N   0  0  0  0  0  0  0  0  0  0  0  0
    7.0317    4.3049   24.5241 C   0  0  0  0  0  0  0  0  0  0  0  0
    8.2043    4.2213   23.5925 C   0  0  0  0  0  0  0  0  0  0  0  0
    8.8377    5.1103   23.7022 H   0  0  0  0  0  0  0  0  0  0  0  0
    7.8705    4.2026   22.5470 H   0  0  0  0  0  0  0  0  0  0  0  0
    4.2837    5.8690   25.2033 H   0  0  0  0  0  0  0  0  0  0  0  0
    4.2034    4.2033   27.0569 H   0  0  0  0  0  0  0  0  0  0  0  0
    6.0932    2.5189   27.2630 H   0  0  0  0  0  0  0  0  0  0  0  0
    9.0376    2.6832   26.2182 H   0  0  0  0  0  0  0  0  0  0  0  0
    8.1051    1.4067   25.4399 H   0  0  0  0  0  0  0  0  0  0  0  0
   10.0203    3.1353   24.1949 H   0  0  0  0  0  0  0  0  0  0  0  0
    7.8578    1.0835   22.6849 N   0  0  0  0  0  0  0  0  0  0  0  0
    8.0520   -1.5162   20.6071 H   0  0  0  0  0  0  0  0  0  0  0  0
    6.7188   -1.1034   21.7057 H   0  0  0  0  0  0  0  0  0  0  0  0
    5.4555    0.6299   20.0881 C   0  0  0  0  0  0  0  0  0  0  0  0
    5.0566    0.6273   21.1031 H   0  0  0  0  0  0  0  0  0  0  0  0
    8.0749   -0.5132   18.2604 H   0  0  0  0  0  0  0  0  0  0  0  0
    4.9425    1.8293   16.9540 H   0  0  0  0  0  0  0  0  0  0  0  0
    3.8876    1.8527   19.2140 H   0  0  0  0  0  0  0  0  0  0  0  0
  1  2  2  0
  2  3  1  0
  3  4  2  0
  4  5  1  0
  5  6  1  0
  6  7  1  0
  7  8  2  0
  8  9  1  0
  9 10  1  0
 10 11  2  0
 11 12  1  0
 12 13  2  0
 13 14  1  0
 14 15  2  0
 15 16  1  0
 16 17  1  0
 17 18  2  0
 17 19  1  0
 16 20  1  0
 13 21  1  0
 12 22  1  0
 11 23  1  0
  9 24  1  0
 24 25  1  0
 25 26  1  0
 26 27  1  0
 27 28  2  0
 28 29  1  0
 29 30  2  0
 30 31  1  0
 31 32  2  0
 32 33  1  0
 33 34  1  0
 33 35  1  0
 30 36  1  0
 29 37  1  0
 28 38  1  0
 26 39  1  0
 26 40  1  0
 25 41  1  0
 24 42  2  0
  6 43  1  0
  6 44  1  0
  5 45  2  0
 45 46  1  0
  4 47  1  0
  2 48  1  0
  1 49  1  0
 45  1  1  0
 42  7  1  0
 15 10  1  0
 33 25  1  0
 18 14  1  0
 32 27  1  0
M  END
>  <cnnaffinity>  (1) 
-6.7175

>  <filename>  (1) 
c1cncc(Cc2nc(C3Cc4cccnc4C3)n(-c3cccc4nc[nH]c34)n2)c1

$$$$
