
     RDKit          3D

 47 52  0  0  0  0  0  0  0  0999 V2000
    4.7912    1.3279   18.9696 C   0  0  0  0  0  0  0  0  0  0  0  0
    5.3907    1.2896   17.7089 C   0  0  0  0  0  0  0  0  0  0  0  0
    6.5126    0.6044   17.4433 N   0  0  0  0  0  0  0  0  0  0  0  0
    7.0873   -0.0460   18.4629 C   0  0  0  0  0  0  0  0  0  0  0  0
    6.5988   -0.0418   19.7835 C   0  0  0  0  0  0  0  0  0  0  0  0
    7.3903   -0.6206   20.9542 C   0  0  0  0  0  0  0  0  0  0  0  0
    8.1722    0.4232   21.7037 C   0  0  0  0  0  0  0  0  0  0  0  0
    7.7410    0.9977   22.8094 N   0  0  0  0  0  0  0  0  0  0  0  0
    8.7313    1.8812   23.0962 N   0  0  0  0  0  0  0  0  0  0  0  0
    8.6569    2.8121   24.1697 C   0  0  0  0  0  0  0  0  0  0  0  0
    8.4396    2.4199   25.4879 C   0  0  0  0  0  0  0  0  0  0  0  0
    8.5599    3.3557   26.5403 C   0  0  0  0  0  0  0  0  0  0  0  0
    8.9031    4.6872   26.2945 C   0  0  0  0  0  0  0  0  0  0  0  0
    9.0800    5.1006   24.9596 C   0  0  0  0  0  0  0  0  0  0  0  0
    8.9040    4.1770   23.9245 C   0  0  0  0  0  0  0  0  0  0  0  0
    9.1365    4.8954   22.7668 N   0  0  0  0  0  0  0  0  0  0  0  0
    9.4729    6.1622   23.1482 C   0  0  0  0  0  0  0  0  0  0  0  0
    9.4485    6.3368   24.4365 N   0  0  0  0  0  0  0  0  0  0  0  0
    9.7731    6.9049   22.4142 H   0  0  0  0  0  0  0  0  0  0  0  0
    9.1073    4.5456   21.8239 H   0  0  0  0  0  0  0  0  0  0  0  0
    9.0449    5.4082   27.0893 H   0  0  0  0  0  0  0  0  0  0  0  0
    8.3833    3.0200   27.5591 H   0  0  0  0  0  0  0  0  0  0  0  0
    8.1928    1.3823   25.6890 H   0  0  0  0  0  0  0  0  0  0  0  0
    9.7207    1.7690   22.1662 C   0  0  0  0  0  0  0  0  0  0  0  0
   11.0503    2.4466   22.3201 C   0  0  0  0  0  0  0  0  0  0  0  0
   12.0875    2.2303   21.1834 C   0  0  0  0  0  0  0  0  0  0  0  0
   12.9042    1.4367   22.1874 C   0  0  0  0  0  0  0  0  0  0  0  0
   14.0051    0.6108   22.3794 C   0  0  0  0  0  0  0  0  0  0  0  0
   14.2122    0.1693   23.6922 C   0  0  0  0  0  0  0  0  0  0  0  0
   13.3821    0.5453   24.7571 C   0  0  0  0  0  0  0  0  0  0  0  0
   12.2890    1.4007   24.5548 C   0  0  0  0  0  0  0  0  0  0  0  0
   12.0566    1.7650   23.2409 C   0  0  0  0  0  0  0  0  0  0  0  0
   11.6571    1.7469   25.3688 H   0  0  0  0  0  0  0  0  0  0  0  0
   13.6232    0.1812   25.7529 H   0  0  0  0  0  0  0  0  0  0  0  0
   15.0412   -0.4992   23.8851 H   0  0  0  0  0  0  0  0  0  0  0  0
   14.6881    0.3033   21.5937 H   0  0  0  0  0  0  0  0  0  0  0  0
   12.5316    3.1729   20.8449 H   0  0  0  0  0  0  0  0  0  0  0  0
   11.7208    1.6865   20.3222 H   0  0  0  0  0  0  0  0  0  0  0  0
   10.9068    3.4841   22.5930 H   0  0  0  0  0  0  0  0  0  0  0  0
    9.3823    0.8645   21.2644 N   0  0  0  0  0  0  0  0  0  0  0  0
    8.1068   -1.3728   20.6071 H   0  0  0  0  0  0  0  0  0  0  0  0
    6.7253   -1.1059   21.6775 H   0  0  0  0  0  0  0  0  0  0  0  0
    5.4020    0.6470   20.0226 C   0  0  0  0  0  0  0  0  0  0  0  0
    4.9703    0.6618   21.0253 H   0  0  0  0  0  0  0  0  0  0  0  0
    8.0013   -0.5892   18.2180 H   0  0  0  0  0  0  0  0  0  0  0  0
    4.9559    1.8389   16.8776 H   0  0  0  0  0  0  0  0  0  0  0  0
    3.8836    1.9015   19.1152 H   0  0  0  0  0  0  0  0  0  0  0  0
  1  2  2  0
  2  3  1  0
  3  4  2  0
  4  5  1  0
  5  6  1  0
  6  7  1  0
  7  8  2  0
  8  9  1  0
  9 10  1  0
 10 11  2  0
 11 12  1  0
 12 13  2  0
 13 14  1  0
 14 15  2  0
 15 16  1  0
 16 17  1  0
 17 18  2  0
 17 19  1  0
 16 20  1  0
 13 21  1  0
 12 22  1  0
 11 23  1  0
  9 24  1  0
 24 25  1  0
 25 26  1  0
 26 27  1  0
 27 28  2  0
 28 29  1  0
 29 30  2  0
 30 31  1  0
 31 32  2  0
 31 33  1  0
 30 34  1  0
 29 35  1  0
 28 36  1  0
 26 37  1  0
 26 38  1  0
 25 39  1  0
 24 40  2  0
  6 41  1  0
  6 42  1  0
  5 43  2  0
 43 44  1  0
  4 45  1  0
  2 46  1  0
  1 47  1  0
 43  1  1  0
 40  7  1  0
 15 10  1  0
 32 25  1  0
 18 14  1  0
 32 27  1  0
M  END
>  <cnnaffinity>  (1) 
-6.21163

>  <filename>  (1) 
c1cncc(Cc2nc(C3Cc4ccccc43)n(-c3cccc4nc[nH]c34)n2)c1

$$$$
