
     RDKit          3D

 38 41  0  0  0  0  0  0  0  0999 V2000
    4.9129    1.7892   16.9868 H   0  0  0  0  0  0  0  0  0  0  0  0
    5.3933    1.2981   17.8262 C   0  0  0  0  0  0  0  0  0  0  0  0
    6.5590    0.6848   17.5569 N   0  0  0  0  0  0  0  0  0  0  0  0
    7.1619    0.0632   18.5753 C   0  0  0  0  0  0  0  0  0  0  0  0
    8.1187   -0.4067   18.3460 H   0  0  0  0  0  0  0  0  0  0  0  0
    6.6496    0.0120   19.8887 C   0  0  0  0  0  0  0  0  0  0  0  0
    7.3567   -0.6528   20.9829 C   0  0  0  0  0  0  0  0  0  0  0  0
    7.4290   -0.3724   22.3399 C   0  0  0  0  0  0  0  0  0  0  0  0
    6.7956    0.6958   22.8857 O   0  0  0  0  0  0  0  0  0  0  0  0
    6.8988    0.9398   24.2874 C   0  0  0  0  0  0  0  0  0  0  0  0
    6.5054    0.0747   24.8385 H   0  0  0  0  0  0  0  0  0  0  0  0
    7.9478    1.0884   24.5715 H   0  0  0  0  0  0  0  0  0  0  0  0
    6.0907    2.1750   24.6127 C   0  0  0  0  0  0  0  0  0  0  0  0
    6.7271    3.4536   24.6891 C   0  0  0  0  0  0  0  0  0  0  0  0
    7.8033    3.5283   24.5280 H   0  0  0  0  0  0  0  0  0  0  0  0
    5.9989    4.5913   24.9476 C   0  0  0  0  0  0  0  0  0  0  0  0
    6.4821    5.5652   24.9958 H   0  0  0  0  0  0  0  0  0  0  0  0
    4.5857    4.5216   25.1501 C   0  0  0  0  0  0  0  0  0  0  0  0
    3.7984    5.6850   25.4179 C   0  0  0  0  0  0  0  0  0  0  0  0
    4.3012    6.6499   25.4684 H   0  0  0  0  0  0  0  0  0  0  0  0
    2.4375    5.5811   25.6020 C   0  0  0  0  0  0  0  0  0  0  0  0
    1.8415    6.4706   25.8038 H   0  0  0  0  0  0  0  0  0  0  0  0
    1.7938    4.3068   25.5273 C   0  0  0  0  0  0  0  0  0  0  0  0
    0.7156    4.2476   25.6749 H   0  0  0  0  0  0  0  0  0  0  0  0
    2.5250    3.1692   25.2718 C   0  0  0  0  0  0  0  0  0  0  0  0
    2.0425    2.1939   25.2142 H   0  0  0  0  0  0  0  0  0  0  0  0
    3.9394    3.2436   25.0772 C   0  0  0  0  0  0  0  0  0  0  0  0
    4.7283    2.0847   24.8068 C   0  0  0  0  0  0  0  0  0  0  0  0
    4.2251    1.1202   24.7437 H   0  0  0  0  0  0  0  0  0  0  0  0
    8.2486   -1.3770   22.8923 C   0  0  0  0  0  0  0  0  0  0  0  0
    8.5367   -1.4927   23.9267 H   0  0  0  0  0  0  0  0  0  0  0  0
    8.6660   -2.2266   21.9586 N   0  0  0  0  0  0  0  0  0  0  0  0
    8.1333   -1.7627   20.8278 N   0  0  0  0  0  0  0  0  0  0  0  0
    8.2763   -2.2696   19.9720 H   0  0  0  0  0  0  0  0  0  0  0  0
    5.4287    0.6606   20.1457 C   0  0  0  0  0  0  0  0  0  0  0  0
    5.0181    0.6399   21.1590 H   0  0  0  0  0  0  0  0  0  0  0  0
    4.7956    1.3139   19.0915 C   0  0  0  0  0  0  0  0  0  0  0  0
    3.8668    1.8476   19.2507 H   0  0  0  0  0  0  0  0  0  0  0  0
  1  2  1  0
  2  3  2  0
  3  4  1  0
  4  5  1  0
  4  6  2  0
  6  7  1  0
  7  8  2  0
  8  9  1  0
  9 10  1  0
 10 11  1  0
 10 12  1  0
 10 13  1  0
 13 14  2  0
 14 15  1  0
 14 16  1  0
 16 17  1  0
 16 18  2  0
 18 19  1  0
 19 20  1  0
 19 21  2  0
 21 22  1  0
 21 23  1  0
 23 24  1  0
 23 25  2  0
 25 26  1  0
 25 27  1  0
 27 28  2  0
 28 29  1  0
  8 30  1  0
 30 31  1  0
 30 32  2  0
 32 33  1  0
 33 34  1  0
  6 35  1  0
 35 36  1  0
 35 37  2  0
 37 38  1  0
 37  2  1  0
 33  7  1  0
 28 13  1  0
 27 18  1  0
M  END
>  <cnnaffinity>  (1) 
-5.2093

>  <filename>  (1) 
c1cncc(-c2[nH]ncc2OCc2ccc3ccccc3c2)c1

$$$$
