
     RDKit          3D

 41 43  0  0  0  0  0  0  0  0999 V2000
    4.9213    1.8345   16.9357 H   0  0  0  0  0  0  0  0  0  0  0  0
    5.3864    1.3207   17.7763 C   0  0  0  0  0  0  0  0  0  0  0  0
    6.5470    0.6999   17.5279 N   0  0  0  0  0  0  0  0  0  0  0  0
    7.1522    0.0914   18.5578 C   0  0  0  0  0  0  0  0  0  0  0  0
    8.1040   -0.3814   18.3055 H   0  0  0  0  0  0  0  0  0  0  0  0
    6.6518    0.0350   19.8793 C   0  0  0  0  0  0  0  0  0  0  0  0
    7.3527   -0.7748   20.9951 C   0  0  0  0  0  0  0  0  0  0  0  0
    6.7349   -2.2130   20.9602 C   0  0  0  0  0  0  0  0  0  0  0  0
    6.8418   -2.5791   19.9287 H   0  0  0  0  0  0  0  0  0  0  0  0
    5.6504   -2.0692   21.0873 H   0  0  0  0  0  0  0  0  0  0  0  0
    7.2507   -3.1792   21.9338 N   0  0  0  0  0  0  0  0  0  0  0  0
    6.2498   -3.6912   22.8912 C   0  0  0  0  0  0  0  0  0  0  0  0
    5.7590   -2.8448   23.3865 H   0  0  0  0  0  0  0  0  0  0  0  0
    5.4553   -4.2767   22.3886 H   0  0  0  0  0  0  0  0  0  0  0  0
    6.9019   -4.5841   23.9651 C   0  0  0  0  0  0  0  0  0  0  0  0
    6.1540   -4.9246   24.6857 H   0  0  0  0  0  0  0  0  0  0  0  0
    7.6127   -3.9727   24.5334 H   0  0  0  0  0  0  0  0  0  0  0  0
    7.6520   -5.7370   23.4454 N   0  0  0  0  0  0  0  0  0  0  0  0
    7.0240   -6.4452   23.0758 H   0  0  0  0  0  0  0  0  0  0  0  0
    8.5882   -5.2463   22.4290 C   0  0  0  0  0  0  0  0  0  0  0  0
    9.0889   -6.0963   21.9549 H   0  0  0  0  0  0  0  0  0  0  0  0
    9.3672   -4.6967   22.9711 H   0  0  0  0  0  0  0  0  0  0  0  0
    8.0195   -4.2919   21.3492 C   0  0  0  0  0  0  0  0  0  0  0  0
    7.4261   -4.8782   20.6213 H   0  0  0  0  0  0  0  0  0  0  0  0
    8.8578   -3.8575   20.7926 H   0  0  0  0  0  0  0  0  0  0  0  0
    8.9004   -0.7694   20.8587 C   0  0  0  0  0  0  0  0  0  0  0  0
    9.2593   -1.5247   20.1487 H   0  0  0  0  0  0  0  0  0  0  0  0
    9.2014    0.2109   20.4720 H   0  0  0  0  0  0  0  0  0  0  0  0
    9.5113   -0.9545   22.2627 C   0  0  0  0  0  0  0  0  0  0  0  0
   10.4085   -0.3355   22.3825 H   0  0  0  0  0  0  0  0  0  0  0  0
    9.8256   -1.9904   22.4203 H   0  0  0  0  0  0  0  0  0  0  0  0
    8.4028   -0.5681   23.2623 C   0  0  0  0  0  0  0  0  0  0  0  0
    8.1546   -1.4199   23.9015 H   0  0  0  0  0  0  0  0  0  0  0  0
    8.7063    0.2463   23.9309 H   0  0  0  0  0  0  0  0  0  0  0  0
    7.1860   -0.1504   22.4111 C   0  0  0  0  0  0  0  0  0  0  0  0
    6.2455   -0.4568   22.8862 H   0  0  0  0  0  0  0  0  0  0  0  0
    7.1610    0.9402   22.3168 H   0  0  0  0  0  0  0  0  0  0  0  0
    5.4179    0.6794   20.0927 C   0  0  0  0  0  0  0  0  0  0  0  0
    4.9597    0.6878   21.0825 H   0  0  0  0  0  0  0  0  0  0  0  0
    4.7816    1.3332   19.0346 C   0  0  0  0  0  0  0  0  0  0  0  0
    3.8427    1.8574   19.1784 H   0  0  0  0  0  0  0  0  0  0  0  0
  1  2  1  0
  2  3  2  0
  3  4  1  0
  4  5  1  0
  4  6  2  0
  6  7  1  0
  7  8  1  0
  8  9  1  0
  8 10  1  0
  8 11  1  0
 11 12  1  0
 12 13  1  0
 12 14  1  0
 12 15  1  0
 15 16  1  0
 15 17  1  0
 15 18  1  0
 18 19  1  0
 18 20  1  0
 20 21  1  0
 20 22  1  0
 20 23  1  0
 23 24  1  0
 23 25  1  0
  7 26  1  0
 26 27  1  0
 26 28  1  0
 26 29  1  0
 29 30  1  0
 29 31  1  0
 29 32  1  0
 32 33  1  0
 32 34  1  0
 32 35  1  0
 35 36  1  0
 35 37  1  0
  6 38  1  0
 38 39  1  0
 38 40  2  0
 40 41  1  0
 40  2  1  0
 35  7  1  0
 23 11  1  0
M  END
>  <cnnaffinity>  (1) 
-4.49636

>  <filename>  (1) 
c1cncc(C2(CN3CCNCC3)CCCC2)c1

$$$$
