
     RDKit          3D

 37 39  0  0  0  0  0  0  0  0999 V2000
    4.9360    1.8153   16.9399 H   0  0  0  0  0  0  0  0  0  0  0  0
    5.4346    1.3063   17.7615 C   0  0  0  0  0  0  0  0  0  0  0  0
    6.5904    0.6920   17.4599 N   0  0  0  0  0  0  0  0  0  0  0  0
    7.2382    0.0683   18.4524 C   0  0  0  0  0  0  0  0  0  0  0  0
    8.1669   -0.4272   18.1696 H   0  0  0  0  0  0  0  0  0  0  0  0
    6.7763    0.0172   19.7854 C   0  0  0  0  0  0  0  0  0  0  0  0
    7.5170   -0.6778   20.8624 C   0  0  0  0  0  0  0  0  0  0  0  0
    9.2110   -1.0343   20.7801 S   0  0  0  0  0  0  0  0  0  0  0  0
    9.1995   -1.7358   22.3577 C   0  0  0  0  0  0  0  0  0  0  0  0
   10.1086   -2.1495   22.7756 H   0  0  0  0  0  0  0  0  0  0  0  0
    7.9616   -1.7051   22.9307 C   0  0  0  0  0  0  0  0  0  0  0  0
    7.5456   -2.2327   24.2856 C   0  0  0  0  0  0  0  0  0  0  0  0
    8.4287   -2.4571   24.8983 H   0  0  0  0  0  0  0  0  0  0  0  0
    7.0078   -1.4339   24.8156 H   0  0  0  0  0  0  0  0  0  0  0  0
    6.6138   -3.4625   24.1859 C   0  0  0  0  0  0  0  0  0  0  0  0
    5.7845   -3.1804   23.5147 H   0  0  0  0  0  0  0  0  0  0  0  0
    7.3445   -4.6808   23.5901 C   0  0  0  0  0  0  0  0  0  0  0  0
    8.2001   -4.9139   24.2429 H   0  0  0  0  0  0  0  0  0  0  0  0
    7.7701   -4.4353   22.6087 H   0  0  0  0  0  0  0  0  0  0  0  0
    6.4645   -5.9366   23.4944 C   0  0  0  0  0  0  0  0  0  0  0  0
    5.6832   -5.7956   22.7346 H   0  0  0  0  0  0  0  0  0  0  0  0
    7.0767   -6.7700   23.1319 H   0  0  0  0  0  0  0  0  0  0  0  0
    5.7703   -6.2777   24.8260 C   0  0  0  0  0  0  0  0  0  0  0  0
    6.4985   -6.6209   25.5795 H   0  0  0  0  0  0  0  0  0  0  0  0
    5.0645   -7.1057   24.6785 H   0  0  0  0  0  0  0  0  0  0  0  0
    5.0358   -5.0577   25.3831 C   0  0  0  0  0  0  0  0  0  0  0  0
    4.2166   -4.7918   24.6976 H   0  0  0  0  0  0  0  0  0  0  0  0
    4.5824   -5.3059   26.3470 H   0  0  0  0  0  0  0  0  0  0  0  0
    5.9809   -3.8569   25.5321 C   0  0  0  0  0  0  0  0  0  0  0  0
    6.7904   -4.1001   26.2362 H   0  0  0  0  0  0  0  0  0  0  0  0
    5.4469   -3.0123   25.9827 H   0  0  0  0  0  0  0  0  0  0  0  0
    7.0107   -1.1091   22.0498 C   0  0  0  0  0  0  0  0  0  0  0  0
    5.9640   -1.0190   22.3082 H   0  0  0  0  0  0  0  0  0  0  0  0
    5.5566    0.6571   20.0697 C   0  0  0  0  0  0  0  0  0  0  0  0
    5.1626    0.6572   21.0853 H   0  0  0  0  0  0  0  0  0  0  0  0
    4.8730    1.3101   19.0421 C   0  0  0  0  0  0  0  0  0  0  0  0
    3.9325    1.8196   19.2243 H   0  0  0  0  0  0  0  0  0  0  0  0
  1  2  1  0
  2  3  2  0
  3  4  1  0
  4  5  1  0
  4  6  2  0
  6  7  1  0
  7  8  1  0
  8  9  1  0
  9 10  1  0
  9 11  2  0
 11 12  1  0
 12 13  1  0
 12 14  1  0
 12 15  1  0
 15 16  1  0
 15 17  1  0
 17 18  1  0
 17 19  1  0
 17 20  1  0
 20 21  1  0
 20 22  1  0
 20 23  1  0
 23 24  1  0
 23 25  1  0
 23 26  1  0
 26 27  1  0
 26 28  1  0
 26 29  1  0
 29 30  1  0
 29 31  1  0
 11 32  1  0
 32 33  1  0
  6 34  1  0
 34 35  1  0
 34 36  2  0
 36 37  1  0
 36  2  1  0
 32  7  2  0
 29 15  1  0
M  END
>  <cnnaffinity>  (1) 
-5.39276

>  <filename>  (1) 
c1cncc(-c2cc(CC3CCCCC3)cs2)c1

$$$$
