
     RDKit          3D

 34 37  0  0  0  0  0  0  0  0999 V2000
    5.0269    1.7682   16.9551 H   0  0  0  0  0  0  0  0  0  0  0  0
    5.4681    1.2739   17.8193 C   0  0  0  0  0  0  0  0  0  0  0  0
    6.6176    0.6196   17.5979 N   0  0  0  0  0  0  0  0  0  0  0  0
    7.1881    0.0040   18.6374 C   0  0  0  0  0  0  0  0  0  0  0  0
    8.0971   -0.5510   18.4184 H   0  0  0  0  0  0  0  0  0  0  0  0
    6.6817    0.0445   19.9477 C   0  0  0  0  0  0  0  0  0  0  0  0
    7.4573   -0.6141   21.0236 C   0  0  0  0  0  0  0  0  0  0  0  0
    8.1349   -1.7103   20.6545 N   0  0  0  0  0  0  0  0  0  0  0  0
    8.7650   -2.4104   21.5995 C   0  0  0  0  0  0  0  0  0  0  0  0
    9.2610   -3.3134   21.2551 H   0  0  0  0  0  0  0  0  0  0  0  0
    8.8163   -2.0292   22.9374 C   0  0  0  0  0  0  0  0  0  0  0  0
    9.3177   -2.6684   23.6551 H   0  0  0  0  0  0  0  0  0  0  0  0
    8.1723   -0.8447   23.3299 C   0  0  0  0  0  0  0  0  0  0  0  0
    8.2015   -0.4063   24.7521 C   0  0  0  0  0  0  0  0  0  0  0  0
    9.4023   -0.4288   25.4791 C   0  0  0  0  0  0  0  0  0  0  0  0
   10.3190   -0.7226   24.9823 H   0  0  0  0  0  0  0  0  0  0  0  0
    9.4547   -0.0846   26.8453 C   0  0  0  0  0  0  0  0  0  0  0  0
   10.4074   -0.1103   27.3698 H   0  0  0  0  0  0  0  0  0  0  0  0
    8.3018    0.2570   27.5429 C   0  0  0  0  0  0  0  0  0  0  0  0
    8.3088    0.5322   28.5946 H   0  0  0  0  0  0  0  0  0  0  0  0
    7.0982    0.2560   26.8234 C   0  0  0  0  0  0  0  0  0  0  0  0
    7.0211   -0.0057   25.4360 C   0  0  0  0  0  0  0  0  0  0  0  0
    5.6390    0.1740   25.0846 C   0  0  0  0  0  0  0  0  0  0  0  0
    5.2554    0.1633   24.0794 H   0  0  0  0  0  0  0  0  0  0  0  0
    4.9409    0.4485   26.2235 C   0  0  0  0  0  0  0  0  0  0  0  0
    3.8743    0.5864   26.3639 H   0  0  0  0  0  0  0  0  0  0  0  0
    5.8294    0.5000   27.2742 N   0  0  0  0  0  0  0  0  0  0  0  0
    5.6319    0.7271   28.2308 H   0  0  0  0  0  0  0  0  0  0  0  0
    7.4925   -0.1271   22.3371 C   0  0  0  0  0  0  0  0  0  0  0  0
    7.0017    0.8063   22.5882 H   0  0  0  0  0  0  0  0  0  0  0  0
    5.4568    0.6989   20.1532 C   0  0  0  0  0  0  0  0  0  0  0  0
    4.9757    0.7066   21.1323 H   0  0  0  0  0  0  0  0  0  0  0  0
    4.8395    1.3191   19.0667 C   0  0  0  0  0  0  0  0  0  0  0  0
    3.8973    1.8455   19.1691 H   0  0  0  0  0  0  0  0  0  0  0  0
  1  2  1  0
  2  3  2  0
  3  4  1  0
  4  5  1  0
  4  6  2  0
  6  7  1  0
  7  8  2  0
  8  9  1  0
  9 10  1  0
  9 11  2  0
 11 12  1  0
 11 13  1  0
 13 14  1  0
 14 15  2  0
 15 16  1  0
 15 17  1  0
 17 18  1  0
 17 19  2  0
 19 20  1  0
 19 21  1  0
 21 22  2  0
 22 23  1  0
 23 24  1  0
 23 25  2  0
 25 26  1  0
 25 27  1  0
 27 28  1  0
 13 29  2  0
 29 30  1  0
  6 31  1  0
 31 32  1  0
 31 33  2  0
 33 34  1  0
 33  2  1  0
 29  7  1  0
 22 14  1  0
 27 21  1  0
M  END
>  <cnnaffinity>  (1) 
-5.31244

>  <filename>  (1) 
c1cncc(-c2cc(-c3cccc4[nH]ccc34)ccn2)c1

$$$$
