
     RDKit          3D

 43 47  0  0  0  0  0  0  0  0999 V2000
    4.7909    1.3108   19.0240 C   0  0  0  0  0  0  0  0  0  0  0  0
    5.4029    1.3012   17.7671 C   0  0  0  0  0  0  0  0  0  0  0  0
    6.5459    0.6479   17.5042 N   0  0  0  0  0  0  0  0  0  0  0  0
    7.1288    0.0051   18.5237 C   0  0  0  0  0  0  0  0  0  0  0  0
    6.6276   -0.0178   19.8370 C   0  0  0  0  0  0  0  0  0  0  0  0
    7.4119   -0.6211   20.9933 C   0  0  0  0  0  0  0  0  0  0  0  0
    8.2643    0.3762   21.7225 C   0  0  0  0  0  0  0  0  0  0  0  0
    7.8073    1.1084   22.7195 N   0  0  0  0  0  0  0  0  0  0  0  0
    8.8741    1.8709   23.0594 N   0  0  0  0  0  0  0  0  0  0  0  0
    8.7544    2.9066   24.0885 C   0  0  0  0  0  0  0  0  0  0  0  0
    8.2490    4.2315   23.5483 C   0  0  0  0  0  0  0  0  0  0  0  0
    8.8341    5.4424   23.7589 C   0  0  0  0  0  0  0  0  0  0  0  0
    7.9423    6.7292   23.0431 S   0  0  0  0  0  0  0  0  0  0  0  0
    6.7689    5.6312   22.4324 C   0  0  0  0  0  0  0  0  0  0  0  0
    7.0541    4.3450   22.7701 C   0  0  0  0  0  0  0  0  0  0  0  0
    6.4581    3.4838   22.4767 H   0  0  0  0  0  0  0  0  0  0  0  0
    5.9314    5.9904   21.8455 H   0  0  0  0  0  0  0  0  0  0  0  0
    9.7644    5.6595   24.2712 H   0  0  0  0  0  0  0  0  0  0  0  0
    8.0723    2.5217   24.8538 H   0  0  0  0  0  0  0  0  0  0  0  0
    9.7325    3.0436   24.5583 H   0  0  0  0  0  0  0  0  0  0  0  0
    9.9158    1.5604   22.2516 C   0  0  0  0  0  0  0  0  0  0  0  0
   11.2438    2.1269   22.3981 C   0  0  0  0  0  0  0  0  0  0  0  0
   11.4311    3.5091   22.4173 C   0  0  0  0  0  0  0  0  0  0  0  0
   12.6256    4.1079   22.5899 N   0  0  0  0  0  0  0  0  0  0  0  0
   13.7107    3.3485   22.7362 C   0  0  0  0  0  0  0  0  0  0  0  0
   13.6271    1.9361   22.7237 C   0  0  0  0  0  0  0  0  0  0  0  0
   12.3817    1.3068   22.5273 C   0  0  0  0  0  0  0  0  0  0  0  0
   12.6247   -0.1020   22.4861 C   0  0  0  0  0  0  0  0  0  0  0  0
   13.9681   -0.2838   22.6276 C   0  0  0  0  0  0  0  0  0  0  0  0
   14.5797    0.9428   22.7811 N   0  0  0  0  0  0  0  0  0  0  0  0
   15.5712    1.1118   22.6778 H   0  0  0  0  0  0  0  0  0  0  0  0
   14.5402   -1.2032   22.6960 H   0  0  0  0  0  0  0  0  0  0  0  0
   11.8480   -0.8387   22.3186 H   0  0  0  0  0  0  0  0  0  0  0  0
   14.6624    3.8648   22.8398 H   0  0  0  0  0  0  0  0  0  0  0  0
   10.5806    4.1715   22.2904 H   0  0  0  0  0  0  0  0  0  0  0  0
    9.5580    0.6160   21.3944 N   0  0  0  0  0  0  0  0  0  0  0  0
    6.7229   -1.0506   21.7270 H   0  0  0  0  0  0  0  0  0  0  0  0
    8.0630   -1.4255   20.6394 H   0  0  0  0  0  0  0  0  0  0  0  0
    5.4146    0.6380   20.0755 C   0  0  0  0  0  0  0  0  0  0  0  0
    4.9825    0.6255   21.0790 H   0  0  0  0  0  0  0  0  0  0  0  0
    8.0550   -0.5221   18.2914 H   0  0  0  0  0  0  0  0  0  0  0  0
    4.9543    1.8351   16.9317 H   0  0  0  0  0  0  0  0  0  0  0  0
    3.8585    1.8460   19.1695 H   0  0  0  0  0  0  0  0  0  0  0  0
  1  2  2  0
  2  3  1  0
  3  4  2  0
  4  5  1  0
  5  6  1  0
  6  7  1  0
  7  8  2  0
  8  9  1  0
  9 10  1  0
 10 11  1  0
 11 12  2  0
 12 13  1  0
 13 14  1  0
 14 15  2  0
 15 16  1  0
 14 17  1  0
 12 18  1  0
 10 19  1  0
 10 20  1  0
  9 21  1  0
 21 22  1  0
 22 23  2  0
 23 24  1  0
 24 25  2  0
 25 26  1  0
 26 27  2  0
 27 28  1  0
 28 29  2  0
 29 30  1  0
 30 31  1  0
 29 32  1  0
 28 33  1  0
 25 34  1  0
 23 35  1  0
 21 36  2  0
  6 37  1  0
  6 38  1  0
  5 39  2  0
 39 40  1  0
  4 41  1  0
  2 42  1  0
  1 43  1  0
 39  1  1  0
 36  7  1  0
 15 11  1  0
 27 22  1  0
 30 26  1  0
M  END
>  <cnnaffinity>  (1) 
-6.83066

>  <filename>  (1) 
c1cncc(Cc2nc(-c3cncc4[nH]ccc34)n(Cc3ccsc3)n2)c1

$$$$
