
     RDKit          3D

 39 42  0  0  0  0  0  0  0  0999 V2000
    4.9502    1.8046   16.9748 H   0  0  0  0  0  0  0  0  0  0  0  0
    5.4028    1.2953   17.8239 C   0  0  0  0  0  0  0  0  0  0  0  0
    6.5488    0.6542   17.5740 N   0  0  0  0  0  0  0  0  0  0  0  0
    7.1541    0.0432   18.6060 C   0  0  0  0  0  0  0  0  0  0  0  0
    8.1012   -0.4286   18.3437 H   0  0  0  0  0  0  0  0  0  0  0  0
    6.6592    0.0133   19.9283 C   0  0  0  0  0  0  0  0  0  0  0  0
    7.4476   -0.5999   21.1238 C   0  0  2  0  0  0  0  0  0  0  0  0
    8.1877    0.5955   21.8004 C   0  0  1  0  0  0  0  0  0  0  0  0
    7.4083    1.2826   22.1728 H   0  0  0  0  0  0  0  0  0  0  0  0
    8.9873    0.2030   22.9096 O   0  0  0  0  0  0  0  0  0  0  0  0
   10.2431    0.8692   22.9202 C   0  0  0  0  0  0  0  0  0  0  0  0
   10.3811    1.3067   23.9164 H   0  0  0  0  0  0  0  0  0  0  0  0
   11.0445    0.1290   22.7763 H   0  0  0  0  0  0  0  0  0  0  0  0
   10.2116    1.9097   21.7871 C   0  0  0  0  0  0  0  0  0  0  0  0
    9.9188    2.8931   22.1711 H   0  0  0  0  0  0  0  0  0  0  0  0
   11.1896    2.0295   21.3034 H   0  0  0  0  0  0  0  0  0  0  0  0
    9.1311    1.3537   20.8610 C   0  0  0  0  0  0  0  0  0  0  0  0
    9.5527    0.6575   20.1256 H   0  0  0  0  0  0  0  0  0  0  0  0
    8.5589    2.1047   20.3057 H   0  0  0  0  0  0  0  0  0  0  0  0
    8.4334   -1.7554   20.7513 C   0  0  0  0  0  0  0  0  0  0  0  0
    9.4352   -1.5420   21.1368 H   0  0  0  0  0  0  0  0  0  0  0  0
    8.5219   -1.8135   19.6736 H   0  0  0  0  0  0  0  0  0  0  0  0
    7.8964   -3.0207   21.4678 C   0  0  2  0  0  0  0  0  0  0  0  0
    8.6326   -3.8288   21.5290 H   0  0  0  0  0  0  0  0  0  0  0  0
    6.5384   -3.4561   20.8764 C   0  0  0  0  0  0  0  0  0  0  0  0
    6.5343   -3.5734   19.7871 H   0  0  0  0  0  0  0  0  0  0  0  0
    6.2285   -4.4223   21.2905 H   0  0  0  0  0  0  0  0  0  0  0  0
    5.5946   -2.3115   21.3333 C   0  0  0  0  0  0  0  0  0  0  0  0
    4.7319   -2.6741   21.9015 H   0  0  0  0  0  0  0  0  0  0  0  0
    5.2259   -1.7738   20.4625 H   0  0  0  0  0  0  0  0  0  0  0  0
    6.5308   -1.3755   22.1451 C   0  0  1  0  0  0  0  0  0  0  0  0
    6.0577   -0.6983   22.8596 H   0  0  0  0  0  0  0  0  0  0  0  0
    7.4557   -2.4061   22.8065 C   0  0  0  0  0  0  0  0  0  0  0  0
    8.2556   -1.9682   23.4059 H   0  0  0  0  0  0  0  0  0  0  0  0
    6.9094   -3.1000   23.4569 H   0  0  0  0  0  0  0  0  0  0  0  0
    5.4429    0.6862   20.1501 C   0  0  0  0  0  0  0  0  0  0  0  0
    4.9781    0.7014   21.1382 H   0  0  0  0  0  0  0  0  0  0  0  0
    4.8029    1.3319   19.0837 C   0  0  0  0  0  0  0  0  0  0  0  0
    3.8659    1.8608   19.2199 H   0  0  0  0  0  0  0  0  0  0  0  0
  1  2  1  0
  2  3  2  0
  3  4  1  0
  4  5  1  0
  4  6  2  0
  7  6  1  6
  7  8  1  0
  8  9  1  1
  8 10  1  0
 10 11  1  0
 11 12  1  0
 11 13  1  0
 11 14  1  0
 14 15  1  0
 14 16  1  0
 14 17  1  0
 17 18  1  0
 17 19  1  0
  7 20  1  0
 20 21  1  0
 20 22  1  0
 20 23  1  0
 23 24  1  1
 23 25  1  0
 25 26  1  0
 25 27  1  0
 25 28  1  0
 28 29  1  0
 28 30  1  0
 28 31  1  0
 31 32  1  1
 31 33  1  0
 33 34  1  0
 33 35  1  0
  6 36  1  0
 36 37  1  0
 36 38  2  0
 38 39  1  0
 38  2  1  0
 31  7  1  0
 17  8  1  0
 33 23  1  0
M  END
>  <cnnaffinity>  (1) 
-4.71587

>  <filename>  (1) 
c1cncc([C@]2([C@@H]3CCCO3)C[C@@H]3CC[C@H]2C3)c1

$$$$
