
     RDKit          3D

 32 35  0  0  0  0  0  0  0  0999 V2000
    4.9844    1.7934   16.9785 H   0  0  0  0  0  0  0  0  0  0  0  0
    5.4282    1.2823   17.8274 C   0  0  0  0  0  0  0  0  0  0  0  0
    6.5886    0.6483   17.5917 N   0  0  0  0  0  0  0  0  0  0  0  0
    7.1716    0.0375   18.6253 C   0  0  0  0  0  0  0  0  0  0  0  0
    8.1211   -0.4720   18.4544 H   0  0  0  0  0  0  0  0  0  0  0  0
    6.6280    0.0275   19.9101 C   0  0  0  0  0  0  0  0  0  0  0  0
    7.3800   -0.6690   20.9380 C   0  0  0  0  0  0  0  0  0  0  0  0
    8.5902   -1.2582   20.7243 N   0  0  0  0  0  0  0  0  0  0  0  0
    8.8656   -1.7837   21.8945 C   0  0  0  0  0  0  0  0  0  0  0  0
    9.7241   -2.3744   22.1815 H   0  0  0  0  0  0  0  0  0  0  0  0
    7.8681   -1.5339   22.7723 N   0  0  0  0  0  0  0  0  0  0  0  0
    7.7652   -1.7966   24.1677 C   0  0  0  0  0  0  0  0  0  0  0  0
    7.2070   -0.8198   24.9651 C   0  0  0  0  0  0  0  0  0  0  0  0
    6.8150    0.0642   24.4743 H   0  0  0  0  0  0  0  0  0  0  0  0
    7.1628   -0.9572   26.3672 C   0  0  0  0  0  0  0  0  0  0  0  0
    6.7275   -0.1551   26.9643 H   0  0  0  0  0  0  0  0  0  0  0  0
    7.6732   -2.0932   26.9478 C   0  0  0  0  0  0  0  0  0  0  0  0
    7.7379   -2.1588   28.0151 H   0  0  0  0  0  0  0  0  0  0  0  0
    8.1729   -3.1677   26.1591 C   0  0  0  0  0  0  0  0  0  0  0  0
    8.6133   -4.4043   26.7213 C   0  0  0  0  0  0  0  0  0  0  0  0
    8.5597   -4.5486   27.8010 H   0  0  0  0  0  0  0  0  0  0  0  0
    9.0706   -5.3926   25.8868 C   0  0  0  0  0  0  0  0  0  0  0  0
    9.4344   -6.3438   26.2613 H   0  0  0  0  0  0  0  0  0  0  0  0
    9.0836   -5.1569   24.4841 C   0  0  0  0  0  0  0  0  0  0  0  0
    9.4112   -5.9531   23.8232 H   0  0  0  0  0  0  0  0  0  0  0  0
    8.7137   -4.0334   23.9143 N   0  0  0  0  0  0  0  0  0  0  0  0
    8.2331   -3.0331   24.7319 C   0  0  0  0  0  0  0  0  0  0  0  0
    6.9217   -0.7848   22.1642 N   0  0  0  0  0  0  0  0  0  0  0  0
    5.4020    0.6716   20.1519 C   0  0  0  0  0  0  0  0  0  0  0  0
    4.9663    0.6709   21.1546 H   0  0  0  0  0  0  0  0  0  0  0  0
    4.7964    1.3127   19.0774 C   0  0  0  0  0  0  0  0  0  0  0  0
    3.8620    1.8490   19.1973 H   0  0  0  0  0  0  0  0  0  0  0  0
  1  2  1  0
  2  3  2  0
  3  4  1  0
  4  5  1  0
  4  6  2  0
  6  7  1  0
  7  8  1  0
  8  9  2  0
  9 10  1  0
  9 11  1  0
 11 12  1  0
 12 13  2  0
 13 14  1  0
 13 15  1  0
 15 16  1  0
 15 17  2  0
 17 18  1  0
 17 19  1  0
 19 20  2  0
 20 21  1  0
 20 22  1  0
 22 23  1  0
 22 24  2  0
 24 25  1  0
 24 26  1  0
 26 27  2  0
 11 28  1  0
  6 29  1  0
 29 30  1  0
 29 31  2  0
 31 32  1  0
 31  2  1  0
 28  7  2  0
 27 12  1  0
 27 19  1  0
M  END
>  <cnnaffinity>  (1) 
-5.58659

>  <filename>  (1) 
c1cncc(-c2ncn(-c3cccc4cccnc34)n2)c1

$$$$
