
     RDKit          3D

 33 35  0  0  0  0  0  0  0  0999 V2000
    4.9742    1.8082   16.9667 H   0  0  0  0  0  0  0  0  0  0  0  0
    5.4408    1.3046   17.8126 C   0  0  0  0  0  0  0  0  0  0  0  0
    6.6069    0.6875   17.5686 N   0  0  0  0  0  0  0  0  0  0  0  0
    7.1916    0.0631   18.5985 C   0  0  0  0  0  0  0  0  0  0  0  0
    8.1373   -0.4373   18.3826 H   0  0  0  0  0  0  0  0  0  0  0  0
    6.6692    0.0123   19.8969 C   0  0  0  0  0  0  0  0  0  0  0  0
    7.3739   -0.7622   20.9835 C   0  0  0  0  0  0  0  0  0  0  0  0
    7.4216   -0.1393   21.8795 H   0  0  0  0  0  0  0  0  0  0  0  0
    8.4106   -0.9716   20.6861 H   0  0  0  0  0  0  0  0  0  0  0  0
    6.6976   -2.0223   21.2992 N   0  0  0  0  0  0  0  0  0  0  0  0
    6.2091   -2.8920   20.3609 C   0  0  0  0  0  0  0  0  0  0  0  0
    6.2442   -2.6569   19.3001 H   0  0  0  0  0  0  0  0  0  0  0  0
    5.7046   -3.9738   20.8955 N   0  0  0  0  0  0  0  0  0  0  0  0
    5.8794   -3.8106   22.2477 C   0  0  0  0  0  0  0  0  0  0  0  0
    5.5573   -4.5904   22.9261 H   0  0  0  0  0  0  0  0  0  0  0  0
    6.4980   -2.6155   22.5400 C   0  0  0  0  0  0  0  0  0  0  0  0
    6.8948   -1.9903   23.8481 C   0  0  1  0  0  0  0  0  0  0  0  0
    6.5413   -2.6622   24.6419 H   0  0  0  0  0  0  0  0  0  0  0  0
    8.4121   -1.7605   24.0955 C   0  0  0  0  0  0  0  0  0  0  0  0
    8.9394   -2.6829   24.3657 H   0  0  0  0  0  0  0  0  0  0  0  0
    8.8903   -1.3463   23.1978 H   0  0  0  0  0  0  0  0  0  0  0  0
    8.4993   -0.7723   25.1740 N   0  0  0  0  0  0  0  0  0  0  0  0
    8.2883   -1.2296   26.0576 H   0  0  0  0  0  0  0  0  0  0  0  0
    7.4212    0.1825   24.8988 C   0  0  0  0  0  0  0  0  0  0  0  0
    7.8096    1.0019   24.2772 H   0  0  0  0  0  0  0  0  0  0  0  0
    7.0538    0.6285   25.8308 H   0  0  0  0  0  0  0  0  0  0  0  0
    6.3032   -0.5874   24.1675 C   0  0  0  0  0  0  0  0  0  0  0  0
    5.4288   -0.6785   24.8136 H   0  0  0  0  0  0  0  0  0  0  0  0
    5.9735   -0.0397   23.2814 H   0  0  0  0  0  0  0  0  0  0  0  0
    5.4490    0.6610   20.1316 C   0  0  0  0  0  0  0  0  0  0  0  0
    4.9886    0.6495   21.1231 H   0  0  0  0  0  0  0  0  0  0  0  0
    4.8244    1.3150   19.0674 C   0  0  0  0  0  0  0  0  0  0  0  0
    3.8854    1.8398   19.2023 H   0  0  0  0  0  0  0  0  0  0  0  0
  1  2  1  0
  2  3  2  0
  3  4  1  0
  4  5  1  0
  4  6  2  0
  6  7  1  0
  7  8  1  0
  7  9  1  0
  7 10  1  0
 10 11  1  0
 11 12  1  0
 11 13  2  0
 13 14  1  0
 14 15  1  0
 14 16  2  0
 16 17  1  0
 17 18  1  1
 17 19  1  0
 19 20  1  0
 19 21  1  0
 19 22  1  0
 22 23  1  0
 22 24  1  0
 24 25  1  0
 24 26  1  0
 24 27  1  0
 27 28  1  0
 27 29  1  0
  6 30  1  0
 30 31  1  0
 30 32  2  0
 32 33  1  0
 32  2  1  0
 16 10  1  0
 27 17  1  0
M  END
>  <cnnaffinity>  (1) 
-4.09938

>  <filename>  (1) 
c1cncc(Cn2cncc2[C@@H]2CCNC2)c1

$$$$
