
     RDKit          3D

 33 36  0  0  0  0  0  0  0  0999 V2000
    4.9085    1.8541   16.9909 H   0  0  0  0  0  0  0  0  0  0  0  0
    5.3836    1.3159   17.8086 C   0  0  0  0  0  0  0  0  0  0  0  0
    6.5357    0.6916   17.5172 N   0  0  0  0  0  0  0  0  0  0  0  0
    7.1595    0.0568   18.5228 C   0  0  0  0  0  0  0  0  0  0  0  0
    8.0847   -0.4563   18.2699 H   0  0  0  0  0  0  0  0  0  0  0  0
    6.6816   -0.0030   19.8588 C   0  0  0  0  0  0  0  0  0  0  0  0
    7.3772   -0.6418   20.9005 N   0  0  0  0  0  0  0  0  0  0  0  0
    6.8601   -1.2210   21.5532 H   0  0  0  0  0  0  0  0  0  0  0  0
    8.7614   -0.6488   21.0692 C   0  0  0  0  0  0  0  0  0  0  0  0
    9.6970    0.3403   20.7082 C   0  0  0  0  0  0  0  0  0  0  0  0
    9.4945    1.2340   20.1454 H   0  0  0  0  0  0  0  0  0  0  0  0
   10.9264    0.0346   21.1021 N   0  0  0  0  0  0  0  0  0  0  0  0
   10.8020   -1.1425   21.7123 N   0  0  0  0  0  0  0  0  0  0  0  0
   11.6502   -1.5957   22.0273 H   0  0  0  0  0  0  0  0  0  0  0  0
    9.5168   -1.6156   21.7328 C   0  0  0  0  0  0  0  0  0  0  0  0
    9.1423   -2.8121   22.4383 C   0  0  0  0  0  0  0  0  0  0  0  0
    7.8276   -3.2107   22.3440 O   0  0  0  0  0  0  0  0  0  0  0  0
    7.6831   -4.2534   23.2088 C   0  0  0  0  0  0  0  0  0  0  0  0
    6.4894   -4.9079   23.5106 C   0  0  0  0  0  0  0  0  0  0  0  0
    5.5845   -4.7116   22.9373 H   0  0  0  0  0  0  0  0  0  0  0  0
    6.5477   -5.8040   24.5791 C   0  0  0  0  0  0  0  0  0  0  0  0
    5.6397   -6.2776   24.9469 H   0  0  0  0  0  0  0  0  0  0  0  0
    7.7627   -6.1018   25.2379 C   0  0  0  0  0  0  0  0  0  0  0  0
    7.7608   -6.8209   26.0532 H   0  0  0  0  0  0  0  0  0  0  0  0
    8.9616   -5.5178   24.8500 C   0  0  0  0  0  0  0  0  0  0  0  0
    9.9039   -5.7892   25.3208 H   0  0  0  0  0  0  0  0  0  0  0  0
    8.9082   -4.5341   23.8413 C   0  0  0  0  0  0  0  0  0  0  0  0
    9.8454   -3.5970   23.2926 C   0  0  0  0  0  0  0  0  0  0  0  0
   10.9063   -3.5249   23.4943 H   0  0  0  0  0  0  0  0  0  0  0  0
    5.4496    0.6139   20.1225 C   0  0  0  0  0  0  0  0  0  0  0  0
    5.0343    0.5816   21.1315 H   0  0  0  0  0  0  0  0  0  0  0  0
    4.8015    1.2946   19.0825 C   0  0  0  0  0  0  0  0  0  0  0  0
    3.8681    1.8215   19.2543 H   0  0  0  0  0  0  0  0  0  0  0  0
  1  2  1  0
  2  3  2  0
  3  4  1  0
  4  5  1  0
  4  6  2  0
  6  7  1  0
  7  8  1  0
  7  9  1  0
  9 10  1  0
 10 11  1  0
 10 12  2  0
 12 13  1  0
 13 14  1  0
 13 15  1  0
 15 16  1  0
 16 17  1  0
 17 18  1  0
 18 19  2  0
 19 20  1  0
 19 21  1  0
 21 22  1  0
 21 23  2  0
 23 24  1  0
 23 25  1  0
 25 26  1  0
 25 27  2  0
 27 28  1  0
 28 29  1  0
  6 30  1  0
 30 31  1  0
 30 32  2  0
 32 33  1  0
 32  2  1  0
 15  9  2  0
 28 16  2  0
 27 18  1  0
M  END
>  <cnnaffinity>  (1) 
-5.87076

>  <filename>  (1) 
c1cncc(Nc2cn[nH]c2-c2cc3ccccc3o2)c1

$$$$
