
     RDKit          3D

 27 29  0  0  0  0  0  0  0  0999 V2000
    4.9300    1.8011   16.9832 H   0  0  0  0  0  0  0  0  0  0  0  0
    5.3939    1.2961   17.8283 C   0  0  0  0  0  0  0  0  0  0  0  0
    6.5606    0.6783   17.5757 N   0  0  0  0  0  0  0  0  0  0  0  0
    7.1685    0.0609   18.5949 C   0  0  0  0  0  0  0  0  0  0  0  0
    8.1178   -0.4186   18.3539 H   0  0  0  0  0  0  0  0  0  0  0  0
    6.6633    0.0196   19.9126 C   0  0  0  0  0  0  0  0  0  0  0  0
    7.3730   -0.6769   21.0114 C   0  0  0  0  0  0  0  0  0  0  0  0
    7.9150   -2.2885   20.8049 S   0  0  0  0  0  0  0  0  0  0  0  0
    8.4506   -2.4340   22.4222 C   0  0  0  0  0  0  0  0  0  0  0  0
    8.9125   -3.3637   22.7343 H   0  0  0  0  0  0  0  0  0  0  0  0
    8.2109   -1.3012   23.1234 C   0  0  0  0  0  0  0  0  0  0  0  0
    8.4148   -1.1636   24.1842 H   0  0  0  0  0  0  0  0  0  0  0  0
    7.6135   -0.2774   22.3112 C   0  0  0  0  0  0  0  0  0  0  0  0
    7.2931    1.0442   22.8631 C   0  0  0  0  0  0  0  0  0  0  0  0
    7.0245    1.2174   24.1034 N   0  0  0  0  0  0  0  0  0  0  0  0
    6.7944    2.6452   24.3027 C   0  0  0  0  0  0  0  0  0  0  0  0
    5.7680    2.7953   24.6682 H   0  0  0  0  0  0  0  0  0  0  0  0
    7.4912    2.9965   25.0750 H   0  0  0  0  0  0  0  0  0  0  0  0
    7.0371    3.3436   22.9263 C   0  0  0  0  0  0  0  0  0  0  0  0
    7.8834    4.0473   22.9569 H   0  0  0  0  0  0  0  0  0  0  0  0
    6.1632    3.9142   22.5787 H   0  0  0  0  0  0  0  0  0  0  0  0
    7.2974    2.1791   22.0943 N   0  0  0  0  0  0  0  0  0  0  0  0
    7.6111    2.1722   21.1420 H   0  0  0  0  0  0  0  0  0  0  0  0
    5.4310    0.6508   20.1445 C   0  0  0  0  0  0  0  0  0  0  0  0
    5.0019    0.6417   21.1460 H   0  0  0  0  0  0  0  0  0  0  0  0
    4.7950    1.3072   19.0883 C   0  0  0  0  0  0  0  0  0  0  0  0
    3.8664    1.8390   19.2374 H   0  0  0  0  0  0  0  0  0  0  0  0
  1  2  1  0
  2  3  2  0
  3  4  1  0
  4  5  1  0
  4  6  2  0
  6  7  1  0
  7  8  1  0
  8  9  1  0
  9 10  1  0
  9 11  2  0
 11 12  1  0
 11 13  1  0
 13 14  1  0
 14 15  2  0
 15 16  1  0
 16 17  1  0
 16 18  1  0
 16 19  1  0
 19 20  1  0
 19 21  1  0
 19 22  1  0
 22 23  1  0
  6 24  1  0
 24 25  1  0
 24 26  2  0
 26 27  1  0
 26  2  1  0
 13  7  2  0
 22 14  1  0
M  END
>  <cnnaffinity>  (1) 
-4.33561

>  <filename>  (1) 
c1cncc(-c2sccc2C2=NCCN2)c1

$$$$
