
     RDKit          3D

 20 21  0  0  0  0  0  0  0  0999 V2000
    4.9068    1.7743   17.0029 H   0  0  0  0  0  0  0  0  0  0  0  0
    5.4013    1.2921   17.8419 C   0  0  0  0  0  0  0  0  0  0  0  0
    6.5691    0.6807   17.5806 N   0  0  0  0  0  0  0  0  0  0  0  0
    7.1772    0.0585   18.5954 C   0  0  0  0  0  0  0  0  0  0  0  0
    8.1274   -0.4363   18.3789 H   0  0  0  0  0  0  0  0  0  0  0  0
    6.6492   -0.0038   19.8981 C   0  0  0  0  0  0  0  0  0  0  0  0
    7.5444   -0.8505   21.1795 S   0  0  0  0  0  0  0  0  0  0  0  0
    8.5646    0.5785   21.6795 C   0  0  0  0  0  0  0  0  0  0  0  0
    9.0289    1.0103   20.7896 H   0  0  0  0  0  0  0  0  0  0  0  0
    9.3506    0.1974   22.3332 H   0  0  0  0  0  0  0  0  0  0  0  0
    7.7539    1.6216   22.3803 C   0  0  0  0  0  0  0  0  0  0  0  0
    7.2499    1.4701   23.6293 N   0  0  0  0  0  0  0  0  0  0  0  0
    6.5698    2.5434   23.8930 N   0  0  0  0  0  0  0  0  0  0  0  0
    6.6752    3.2999   22.8246 N   0  0  0  0  0  0  0  0  0  0  0  0
    6.2402    4.2071   22.7665 H   0  0  0  0  0  0  0  0  0  0  0  0
    7.4056    2.7850   21.8528 N   0  0  0  0  0  0  0  0  0  0  0  0
    5.4324    0.6419   20.1594 C   0  0  0  0  0  0  0  0  0  0  0  0
    5.0140    0.6282   21.1653 H   0  0  0  0  0  0  0  0  0  0  0  0
    4.8029    1.3118   19.1077 C   0  0  0  0  0  0  0  0  0  0  0  0
    3.8687    1.8464   19.2649 H   0  0  0  0  0  0  0  0  0  0  0  0
  1  2  1  0
  2  3  2  0
  3  4  1  0
  4  5  1  0
  4  6  2  0
  6  7  1  0
  7  8  1  0
  8  9  1  0
  8 10  1  0
  8 11  1  0
 11 12  1  0
 12 13  2  0
 13 14  1  0
 14 15  1  0
 14 16  1  0
  6 17  1  0
 17 18  1  0
 17 19  2  0
 19 20  1  0
 19  2  1  0
 16 11  2  0
M  END
>  <cnnaffinity>  (1) 
-4.24796

>  <filename>  (1) 
c1cncc(SCc2nn[nH]n2)c1

$$$$
