
     RDKit          3D

 33 35  0  0  0  0  0  0  0  0999 V2000
    4.9762    1.7818   16.9629 H   0  0  0  0  0  0  0  0  0  0  0  0
    5.4139    1.3190   17.8440 C   0  0  0  0  0  0  0  0  0  0  0  0
    6.5901    0.6989   17.6637 N   0  0  0  0  0  0  0  0  0  0  0  0
    7.1449    0.1112   18.7338 C   0  0  0  0  0  0  0  0  0  0  0  0
    8.1018   -0.3723   18.5467 H   0  0  0  0  0  0  0  0  0  0  0  0
    6.5839    0.1155   20.0333 C   0  0  0  0  0  0  0  0  0  0  0  0
    7.2301   -0.6383   21.1435 C   0  0  0  0  0  0  0  0  0  0  0  0
    7.5936   -1.9637   21.1306 C   0  0  0  0  0  0  0  0  0  0  0  0
    7.3010   -2.6494   20.3530 H   0  0  0  0  0  0  0  0  0  0  0  0
    8.3186   -2.2574   22.3172 C   0  0  0  0  0  0  0  0  0  0  0  0
    8.7443   -3.2227   22.5803 H   0  0  0  0  0  0  0  0  0  0  0  0
    8.3562   -1.0892   23.0411 C   0  0  0  0  0  0  0  0  0  0  0  0
    8.8158   -0.8283   23.9858 H   0  0  0  0  0  0  0  0  0  0  0  0
    7.6487   -0.1282   22.3659 N   0  0  0  0  0  0  0  0  0  0  0  0
    7.4813    1.2023   22.8122 N   0  0  0  0  0  0  0  0  0  0  0  0
    6.7519    1.5755   22.2081 H   0  0  0  0  0  0  0  0  0  0  0  0
    7.0869    1.3718   24.2245 C   0  0  0  0  0  0  0  0  0  0  0  0
    7.9521    1.1301   24.8525 H   0  0  0  0  0  0  0  0  0  0  0  0
    6.9310    2.4481   24.3408 H   0  0  0  0  0  0  0  0  0  0  0  0
    5.8686    0.6181   24.7382 C   0  0  0  0  0  0  0  0  0  0  0  0
    6.0200   -0.5554   25.4953 C   0  0  0  0  0  0  0  0  0  0  0  0
    7.0004   -1.0037   25.6246 H   0  0  0  0  0  0  0  0  0  0  0  0
    4.8971   -1.1453   26.0822 C   0  0  0  0  0  0  0  0  0  0  0  0
    5.0095   -2.0111   26.7328 H   0  0  0  0  0  0  0  0  0  0  0  0
    3.6525   -0.6714   25.9419 N   0  0  0  0  0  0  0  0  0  0  0  0
    3.4996    0.4284   25.1940 C   0  0  0  0  0  0  0  0  0  0  0  0
    2.4836    0.8050   25.0851 H   0  0  0  0  0  0  0  0  0  0  0  0
    4.5615    1.1005   24.5782 C   0  0  0  0  0  0  0  0  0  0  0  0
    4.3721    1.9987   23.9986 H   0  0  0  0  0  0  0  0  0  0  0  0
    5.3595    0.7871   20.1855 C   0  0  0  0  0  0  0  0  0  0  0  0
    4.8843    0.7996   21.1642 H   0  0  0  0  0  0  0  0  0  0  0  0
    4.7550    1.3844   19.0761 C   0  0  0  0  0  0  0  0  0  0  0  0
    3.8107    1.9116   19.1621 H   0  0  0  0  0  0  0  0  0  0  0  0
  1  2  1  0
  2  3  2  0
  3  4  1  0
  4  5  1  0
  4  6  2  0
  6  7  1  0
  7  8  2  0
  8  9  1  0
  8 10  1  0
 10 11  1  0
 10 12  2  0
 12 13  1  0
 12 14  1  0
 14 15  1  0
 15 16  1  0
 15 17  1  0
 17 18  1  0
 17 19  1  0
 17 20  1  0
 20 21  2  0
 21 22  1  0
 21 23  1  0
 23 24  1  0
 23 25  2  0
 25 26  1  0
 26 27  1  0
 26 28  2  0
 28 29  1  0
  6 30  1  0
 30 31  1  0
 30 32  2  0
 32 33  1  0
 32  2  1  0
 14  7  1  0
 28 20  1  0
M  END
>  <cnnaffinity>  (1) 
-5.05519

>  <filename>  (1) 
c1cncc(-c2cccn2NCc2ccncc2)c1

$$$$
