
     RDKit          3D

 32 34  0  0  0  0  0  0  0  0999 V2000
    4.9081    1.8186   16.9616 H   0  0  0  0  0  0  0  0  0  0  0  0
    5.3768    1.3113   17.8037 C   0  0  0  0  0  0  0  0  0  0  0  0
    6.5368    0.6877   17.5380 N   0  0  0  0  0  0  0  0  0  0  0  0
    7.1489    0.0602   18.5507 C   0  0  0  0  0  0  0  0  0  0  0  0
    8.1088   -0.3969   18.3146 H   0  0  0  0  0  0  0  0  0  0  0  0
    6.6497    0.0136   19.8710 C   0  0  0  0  0  0  0  0  0  0  0  0
    7.3622   -0.6549   20.9562 C   0  0  0  0  0  0  0  0  0  0  0  0
    7.5646   -0.3173   22.2927 C   0  0  0  0  0  0  0  0  0  0  0  0
    7.0848    0.8252   22.8713 N   0  0  0  0  0  0  0  0  0  0  0  0
    6.9701    1.5337   22.1658 H   0  0  0  0  0  0  0  0  0  0  0  0
    7.4732    1.2117   24.2167 C   0  0  0  0  0  0  0  0  0  0  0  0
    7.1640    0.4077   24.8962 H   0  0  0  0  0  0  0  0  0  0  0  0
    6.8832    2.1024   24.4583 H   0  0  0  0  0  0  0  0  0  0  0  0
    8.9593    1.4981   24.4556 C   0  0  0  0  0  0  0  0  0  0  0  0
    9.5915    2.6414   23.9442 C   0  0  0  0  0  0  0  0  0  0  0  0
    9.0435    3.3835   23.3733 H   0  0  0  0  0  0  0  0  0  0  0  0
   10.9646    2.8154   24.1422 C   0  0  0  0  0  0  0  0  0  0  0  0
   11.4717    3.6922   23.7391 H   0  0  0  0  0  0  0  0  0  0  0  0
   11.7294    1.9475   24.8150 N   0  0  0  0  0  0  0  0  0  0  0  0
   11.1311    0.8615   25.3209 C   0  0  0  0  0  0  0  0  0  0  0  0
   11.7771    0.1628   25.8518 H   0  0  0  0  0  0  0  0  0  0  0  0
    9.7658    0.6010   25.1768 C   0  0  0  0  0  0  0  0  0  0  0  0
    9.3486   -0.3214   25.5660 H   0  0  0  0  0  0  0  0  0  0  0  0
    8.2450   -1.2825   22.9507 N   0  0  0  0  0  0  0  0  0  0  0  0
    8.4583   -2.2163   22.0496 C   0  0  0  0  0  0  0  0  0  0  0  0
    8.9584   -3.1593   22.2187 H   0  0  0  0  0  0  0  0  0  0  0  0
    7.9635   -1.8874   20.8338 N   0  0  0  0  0  0  0  0  0  0  0  0
    7.9150   -2.4797   20.0194 H   0  0  0  0  0  0  0  0  0  0  0  0
    5.4305    0.6668   20.1201 C   0  0  0  0  0  0  0  0  0  0  0  0
    5.0225    0.6353   21.1302 H   0  0  0  0  0  0  0  0  0  0  0  0
    4.7842    1.3252   19.0718 C   0  0  0  0  0  0  0  0  0  0  0  0
    3.8545    1.8581   19.2267 H   0  0  0  0  0  0  0  0  0  0  0  0
  1  2  1  0
  2  3  2  0
  3  4  1  0
  4  5  1  0
  4  6  2  0
  6  7  1  0
  7  8  2  0
  8  9  1  0
  9 10  1  0
  9 11  1  0
 11 12  1  0
 11 13  1  0
 11 14  1  0
 14 15  2  0
 15 16  1  0
 15 17  1  0
 17 18  1  0
 17 19  2  0
 19 20  1  0
 20 21  1  0
 20 22  2  0
 22 23  1  0
  8 24  1  0
 24 25  2  0
 25 26  1  0
 25 27  1  0
 27 28  1  0
  6 29  1  0
 29 30  1  0
 29 31  2  0
 31 32  1  0
 31  2  1  0
 27  7  1  0
 22 14  1  0
M  END
>  <cnnaffinity>  (1) 
-5.18192

>  <filename>  (1) 
c1cncc(-c2[nH]cnc2NCc2ccncc2)c1

$$$$
