
     RDKit          3D

 32 35  0  0  0  0  0  0  0  0999 V2000
    8.3101   -2.0030   19.8241 H   0  0  0  0  0  0  0  0  0  0  0  0
    8.1626   -1.7297   20.8449 C   0  0  0  0  0  0  0  0  0  0  0  0
    8.7720   -2.4290   21.8123 N   0  0  0  0  0  0  0  0  0  0  0  0
    8.6258   -1.9468   23.0587 C   0  0  0  0  0  0  0  0  0  0  0  0
    9.1338   -2.4560   23.8770 H   0  0  0  0  0  0  0  0  0  0  0  0
    7.8557   -0.7955   23.2985 C   0  0  0  0  0  0  0  0  0  0  0  0
    7.7465   -0.2768   24.6637 C   0  0  0  0  0  0  0  0  0  0  0  0
    8.3211   -0.7779   25.7273 N   0  0  0  0  0  0  0  0  0  0  0  0
    7.9228    0.0597   26.7439 C   0  0  0  0  0  0  0  0  0  0  0  0
    8.2661    0.0032   28.0982 C   0  0  0  0  0  0  0  0  0  0  0  0
    8.9697   -0.7651   28.4043 H   0  0  0  0  0  0  0  0  0  0  0  0
    7.7027    0.9416   28.9551 C   0  0  0  0  0  0  0  0  0  0  0  0
    7.9253    0.8825   30.0119 H   0  0  0  0  0  0  0  0  0  0  0  0
    6.8519    1.9603   28.4659 C   0  0  0  0  0  0  0  0  0  0  0  0
    6.4474    2.6887   29.1566 H   0  0  0  0  0  0  0  0  0  0  0  0
    6.5328    2.0536   27.1108 C   0  0  0  0  0  0  0  0  0  0  0  0
    5.8969    2.8433   26.7269 H   0  0  0  0  0  0  0  0  0  0  0  0
    7.0755    1.0845   26.2615 C   0  0  0  0  0  0  0  0  0  0  0  0
    6.9960    0.8346   24.9135 N   0  0  0  0  0  0  0  0  0  0  0  0
    6.5138    1.3184   24.1713 H   0  0  0  0  0  0  0  0  0  0  0  0
    7.1945   -0.1345   22.3090 N   0  0  0  0  0  0  0  0  0  0  0  0
    7.3545   -0.6019   21.0671 C   0  0  0  0  0  0  0  0  0  0  0  0
    6.6408    0.0625   19.9510 C   0  0  0  0  0  0  0  0  0  0  0  0
    7.1646    0.0714   18.6457 C   0  0  0  0  0  0  0  0  0  0  0  0
    8.1183   -0.3983   18.4016 H   0  0  0  0  0  0  0  0  0  0  0  0
    6.5680    0.6608   17.6083 N   0  0  0  0  0  0  0  0  0  0  0  0
    5.4023    1.2826   17.8383 C   0  0  0  0  0  0  0  0  0  0  0  0
    4.9583    1.7846   16.9811 H   0  0  0  0  0  0  0  0  0  0  0  0
    4.7831    1.3119   19.0920 C   0  0  0  0  0  0  0  0  0  0  0  0
    3.8503    1.8469   19.2190 H   0  0  0  0  0  0  0  0  0  0  0  0
    5.4100    0.6894   20.1686 C   0  0  0  0  0  0  0  0  0  0  0  0
    4.9818    0.6858   21.1725 H   0  0  0  0  0  0  0  0  0  0  0  0
  1  2  1  0
  2  3  2  0
  3  4  1  0
  4  5  1  0
  4  6  2  0
  6  7  1  0
  7  8  2  0
  8  9  1  0
  9 10  2  0
 10 11  1  0
 10 12  1  0
 12 13  1  0
 12 14  2  0
 14 15  1  0
 14 16  1  0
 16 17  1  0
 16 18  2  0
 18 19  1  0
 19 20  1  0
  6 21  1  0
 21 22  2  0
 22 23  1  0
 23 24  2  0
 24 25  1  0
 24 26  1  0
 26 27  2  0
 27 28  1  0
 27 29  1  0
 29 30  1  0
 29 31  2  0
 31 32  1  0
 22  2  1  0
 31 23  1  0
 19  7  1  0
 18  9  1  0
M  END
>  <cnnaffinity>  (1) 
-5.19445

>  <filename>  (1) 
c1cncc(-c2cncc(-c3nc4ccccc4[nH]3)n2)c1

$$$$
