
     RDKit          3D

 32 35  0  0  0  0  0  0  0  0999 V2000
    4.9352    1.8016   16.9803 H   0  0  0  0  0  0  0  0  0  0  0  0
    5.4011    1.2984   17.8270 C   0  0  0  0  0  0  0  0  0  0  0  0
    6.5600    0.6718   17.5739 N   0  0  0  0  0  0  0  0  0  0  0  0
    7.1614    0.0434   18.5866 C   0  0  0  0  0  0  0  0  0  0  0  0
    8.1058   -0.4476   18.3595 H   0  0  0  0  0  0  0  0  0  0  0  0
    6.6536    0.0079   19.8908 C   0  0  0  0  0  0  0  0  0  0  0  0
    7.4264   -0.7185   20.9028 C   0  0  0  0  0  0  0  0  0  0  0  0
    7.9351   -1.9281   20.8229 N   0  0  0  0  0  0  0  0  0  0  0  0
    8.4599   -2.1995   22.0355 N   0  0  0  0  0  0  0  0  0  0  0  0
    8.3149   -1.1997   22.8360 N   0  0  0  0  0  0  0  0  0  0  0  0
    7.6854   -0.2384   22.1404 N   0  0  0  0  0  0  0  0  0  0  0  0
    7.4057    1.0501   22.7600 C   0  0  0  0  0  0  0  0  0  0  0  0
    7.2550    1.8105   21.9912 H   0  0  0  0  0  0  0  0  0  0  0  0
    8.2824    1.3114   23.3604 H   0  0  0  0  0  0  0  0  0  0  0  0
    6.1814    1.0341   23.6304 C   0  0  0  0  0  0  0  0  0  0  0  0
    5.1873    1.8770   23.5460 N   0  0  0  0  0  0  0  0  0  0  0  0
    4.3122    1.4932   24.5501 C   0  0  0  0  0  0  0  0  0  0  0  0
    3.0731    2.0483   24.9136 C   0  0  0  0  0  0  0  0  0  0  0  0
    2.7065    2.9162   24.3720 H   0  0  0  0  0  0  0  0  0  0  0  0
    2.3680    1.4559   25.9569 C   0  0  0  0  0  0  0  0  0  0  0  0
    1.4108    1.8708   26.2573 H   0  0  0  0  0  0  0  0  0  0  0  0
    2.8834    0.3251   26.6332 C   0  0  0  0  0  0  0  0  0  0  0  0
    2.3122   -0.1122   27.4462 H   0  0  0  0  0  0  0  0  0  0  0  0
    4.1116   -0.2349   26.2809 C   0  0  0  0  0  0  0  0  0  0  0  0
    4.5043   -1.1048   26.7964 H   0  0  0  0  0  0  0  0  0  0  0  0
    4.8192    0.3682   25.2357 C   0  0  0  0  0  0  0  0  0  0  0  0
    6.0333    0.1078   24.6194 N   0  0  0  0  0  0  0  0  0  0  0  0
    6.6505   -0.6796   24.7479 H   0  0  0  0  0  0  0  0  0  0  0  0
    5.4326    0.6585   20.1434 C   0  0  0  0  0  0  0  0  0  0  0  0
    4.9749    0.6618   21.1333 H   0  0  0  0  0  0  0  0  0  0  0  0
    4.7999    1.3152   19.0895 C   0  0  0  0  0  0  0  0  0  0  0  0
    3.8668    1.8491   19.2330 H   0  0  0  0  0  0  0  0  0  0  0  0
  1  2  1  0
  2  3  2  0
  3  4  1  0
  4  5  1  0
  4  6  2  0
  6  7  1  0
  7  8  2  0
  8  9  1  0
  9 10  2  0
 10 11  1  0
 11 12  1  0
 12 13  1  0
 12 14  1  0
 12 15  1  0
 15 16  2  0
 16 17  1  0
 17 18  2  0
 18 19  1  0
 18 20  1  0
 20 21  1  0
 20 22  2  0
 22 23  1  0
 22 24  1  0
 24 25  1  0
 24 26  2  0
 26 27  1  0
 27 28  1  0
  6 29  1  0
 29 30  1  0
 29 31  2  0
 31 32  1  0
 31  2  1  0
 11  7  1  0
 27 15  1  0
 26 17  1  0
M  END
>  <cnnaffinity>  (1) 
-5.1936

>  <filename>  (1) 
c1cncc(-c2nnnn2Cc2nc3ccccc3[nH]2)c1

$$$$
