
     RDKit          3D

 53 56  0  0  0  0  0  0  0  0999 V2000
    4.9835    1.8200   16.9317 H   0  0  0  0  0  0  0  0  0  0  0  0
    5.4447    1.3088   17.7768 C   0  0  0  0  0  0  0  0  0  0  0  0
    6.5990    0.6734   17.5371 N   0  0  0  0  0  0  0  0  0  0  0  0
    7.1898    0.0471   18.5694 C   0  0  0  0  0  0  0  0  0  0  0  0
    8.1241   -0.4421   18.3201 H   0  0  0  0  0  0  0  0  0  0  0  0
    6.6857   -0.0002   19.8876 C   0  0  0  0  0  0  0  0  0  0  0  0
    7.3641   -0.7526   21.0579 C   0  0  2  0  0  0  0  0  0  0  0  0
    6.4386   -1.9375   21.4609 C   0  0  0  0  0  0  0  0  0  0  0  0
    6.3196   -2.5647   20.5627 H   0  0  0  0  0  0  0  0  0  0  0  0
    5.4288   -1.5441   21.6396 H   0  0  0  0  0  0  0  0  0  0  0  0
    6.9084   -2.7288   22.5903 N   0  0  0  0  0  0  0  0  0  0  0  0
    7.2944   -4.1039   22.2738 C   0  0  0  0  0  0  0  0  0  0  0  0
    7.8052   -4.1294   21.3042 H   0  0  0  0  0  0  0  0  0  0  0  0
    6.4222   -4.7844   22.1788 H   0  0  0  0  0  0  0  0  0  0  0  0
    8.2553   -4.6462   23.3389 C   0  0  0  0  0  0  0  0  0  0  0  0
    8.0922   -5.7221   23.4546 H   0  0  0  0  0  0  0  0  0  0  0  0
    9.3012   -4.5192   23.0464 H   0  0  0  0  0  0  0  0  0  0  0  0
    8.0805   -3.9683   24.7022 C   0  0  0  0  0  0  0  0  0  0  0  0
    8.6822   -3.0482   24.7039 H   0  0  0  0  0  0  0  0  0  0  0  0
    8.6424   -4.8440   25.7205 N   0  0  0  0  0  0  0  0  0  0  0  0
    7.9523   -6.1181   25.9874 C   0  0  0  0  0  0  0  0  0  0  0  0
    8.6962   -6.9294   26.0437 H   0  0  0  0  0  0  0  0  0  0  0  0
    7.2277   -6.3688   25.2062 H   0  0  0  0  0  0  0  0  0  0  0  0
    7.2767   -5.9284   27.3350 C   0  0  0  0  0  0  0  0  0  0  0  0
    7.0060   -6.8702   27.8200 H   0  0  0  0  0  0  0  0  0  0  0  0
    6.3610   -5.3382   27.1957 H   0  0  0  0  0  0  0  0  0  0  0  0
    8.3136   -5.1022   28.0914 C   0  0  0  0  0  0  0  0  0  0  0  0
    7.8220   -4.5008   28.8526 H   0  0  0  0  0  0  0  0  0  0  0  0
    9.0826   -5.7418   28.5479 H   0  0  0  0  0  0  0  0  0  0  0  0
    8.9400   -4.2058   27.0079 C   0  0  0  0  0  0  0  0  0  0  0  0
   10.0247   -4.0992   27.1270 H   0  0  0  0  0  0  0  0  0  0  0  0
    8.5159   -3.1878   27.0672 H   0  0  0  0  0  0  0  0  0  0  0  0
    6.6162   -3.5523   24.9389 C   0  0  0  0  0  0  0  0  0  0  0  0
    6.5172   -3.0514   25.9089 H   0  0  0  0  0  0  0  0  0  0  0  0
    5.9845   -4.4506   24.9849 H   0  0  0  0  0  0  0  0  0  0  0  0
    6.1095   -2.6166   23.8226 C   0  0  0  0  0  0  0  0  0  0  0  0
    5.0391   -2.8478   23.6549 H   0  0  0  0  0  0  0  0  0  0  0  0
    6.1558   -1.5717   24.1687 H   0  0  0  0  0  0  0  0  0  0  0  0
    7.6835    0.2007   22.2537 C   0  0  0  0  0  0  0  0  0  0  0  0
    6.8854    0.9152   22.4843 H   0  0  0  0  0  0  0  0  0  0  0  0
    7.8514   -0.3979   23.1605 H   0  0  0  0  0  0  0  0  0  0  0  0
    8.9224    0.9024   21.8991 N   0  0  0  0  0  0  0  0  0  0  0  0
    8.6965    1.8084   21.4964 H   0  0  0  0  0  0  0  0  0  0  0  0
    9.6279    0.0973   20.8916 C   0  0  0  0  0  0  0  0  0  0  0  0
   10.6672   -0.0934   21.1877 H   0  0  0  0  0  0  0  0  0  0  0  0
    9.6461    0.6234   19.9288 H   0  0  0  0  0  0  0  0  0  0  0  0
    8.8223   -1.1996   20.7701 C   0  0  0  0  0  0  0  0  0  0  0  0
    8.9625   -1.6962   19.8075 H   0  0  0  0  0  0  0  0  0  0  0  0
    9.1363   -1.9061   21.5520 H   0  0  0  0  0  0  0  0  0  0  0  0
    5.4631    0.6643   20.0991 C   0  0  0  0  0  0  0  0  0  0  0  0
    4.9981    0.6690   21.0886 H   0  0  0  0  0  0  0  0  0  0  0  0
    4.8396    1.3228   19.0371 C   0  0  0  0  0  0  0  0  0  0  0  0
    3.8945    1.8351   19.1684 H   0  0  0  0  0  0  0  0  0  0  0  0
  1  2  1  0
  2  3  2  0
  3  4  1  0
  4  5  1  0
  4  6  2  0
  6  7  1  0
  7  8  1  1
  8  9  1  0
  8 10  1  0
  8 11  1  0
 11 12  1  0
 12 13  1  0
 12 14  1  0
 12 15  1  0
 15 16  1  0
 15 17  1  0
 15 18  1  0
 18 19  1  0
 18 20  1  0
 20 21  1  0
 21 22  1  0
 21 23  1  0
 21 24  1  0
 24 25  1  0
 24 26  1  0
 24 27  1  0
 27 28  1  0
 27 29  1  0
 27 30  1  0
 30 31  1  0
 30 32  1  0
 18 33  1  0
 33 34  1  0
 33 35  1  0
 33 36  1  0
 36 37  1  0
 36 38  1  0
  7 39  1  0
 39 40  1  0
 39 41  1  0
 39 42  1  0
 42 43  1  0
 42 44  1  0
 44 45  1  0
 44 46  1  0
 44 47  1  0
 47 48  1  0
 47 49  1  0
  6 50  1  0
 50 51  1  0
 50 52  2  0
 52 53  1  0
 52  2  1  0
 47  7  1  0
 36 11  1  0
 30 20  1  0
M  END
>  <cnnaffinity>  (1) 
-4.87503

>  <filename>  (1) 
c1cncc([C@@]2(CN3CCC(N4CCCC4)CC3)CCNC2)c1

$$$$
