
     RDKit          3D

 34 37  0  0  0  0  0  0  0  0999 V2000
    4.9172    1.7908   16.9862 H   0  0  0  0  0  0  0  0  0  0  0  0
    5.3965    1.2984   17.8288 C   0  0  0  0  0  0  0  0  0  0  0  0
    6.5600    0.6843   17.5670 N   0  0  0  0  0  0  0  0  0  0  0  0
    7.1595    0.0606   18.5901 C   0  0  0  0  0  0  0  0  0  0  0  0
    8.1121   -0.4197   18.3614 H   0  0  0  0  0  0  0  0  0  0  0  0
    6.6416   -0.0071   19.8950 C   0  0  0  0  0  0  0  0  0  0  0  0
    7.4144   -0.6610   21.0138 C   0  0  0  0  0  0  0  0  0  0  0  0
    6.7181   -1.0378   21.7742 H   0  0  0  0  0  0  0  0  0  0  0  0
    7.9542   -1.5377   20.6286 H   0  0  0  0  0  0  0  0  0  0  0  0
    8.4149    0.2934   21.6940 C   0  0  0  0  0  0  0  0  0  0  0  0
    7.8244    1.5453   22.3211 C   0  0  0  0  0  0  0  0  0  0  0  0
    7.8019    2.7511   21.6126 C   0  0  0  0  0  0  0  0  0  0  0  0
    8.2732    2.7149   20.6374 H   0  0  0  0  0  0  0  0  0  0  0  0
    7.2415    3.9375   22.1384 C   0  0  0  0  0  0  0  0  0  0  0  0
    7.2071    4.8749   21.5878 H   0  0  0  0  0  0  0  0  0  0  0  0
    6.7231    3.8593   23.4184 C   0  0  0  0  0  0  0  0  0  0  0  0
    6.7444    2.6642   24.1406 C   0  0  0  0  0  0  0  0  0  0  0  0
    7.2766    1.5019   23.6198 C   0  0  0  0  0  0  0  0  0  0  0  0
    7.3053    0.5821   24.1884 H   0  0  0  0  0  0  0  0  0  0  0  0
    6.1813    2.8546   25.3670 O   0  0  0  0  0  0  0  0  0  0  0  0
    5.7814    4.2212   25.4085 C   0  0  0  0  0  0  0  0  0  0  0  0
    6.2969    4.7259   26.2308 H   0  0  0  0  0  0  0  0  0  0  0  0
    4.6974    4.2797   25.5466 H   0  0  0  0  0  0  0  0  0  0  0  0
    6.1389    4.8386   24.1734 O   0  0  0  0  0  0  0  0  0  0  0  0
    9.7976    0.3760   21.0857 C   0  0  0  0  0  0  0  0  0  0  0  0
   10.3263    1.3273   21.1034 H   0  0  0  0  0  0  0  0  0  0  0  0
    9.9992   -0.2257   20.2011 H   0  0  0  0  0  0  0  0  0  0  0  0
    9.5915   -0.3465   22.3876 C   0  0  0  0  0  0  0  0  0  0  0  0
    9.6534   -1.4327   22.3976 H   0  0  0  0  0  0  0  0  0  0  0  0
    9.9589    0.1209   23.2981 H   0  0  0  0  0  0  0  0  0  0  0  0
    5.4263    0.6442   20.1429 C   0  0  0  0  0  0  0  0  0  0  0  0
    5.0117    0.6425   21.1569 H   0  0  0  0  0  0  0  0  0  0  0  0
    4.7964    1.3134   19.0932 C   0  0  0  0  0  0  0  0  0  0  0  0
    3.8680    1.8494   19.2467 H   0  0  0  0  0  0  0  0  0  0  0  0
  1  2  1  0
  2  3  2  0
  3  4  1  0
  4  5  1  0
  4  6  2  0
  6  7  1  0
  7  8  1  0
  7  9  1  0
  7 10  1  0
 10 11  1  0
 11 12  2  0
 12 13  1  0
 12 14  1  0
 14 15  1  0
 14 16  2  0
 16 17  1  0
 17 18  2  0
 18 19  1  0
 17 20  1  0
 20 21  1  0
 21 22  1  0
 21 23  1  0
 21 24  1  0
 10 25  1  0
 25 26  1  0
 25 27  1  0
 25 28  1  0
 28 29  1  0
 28 30  1  0
  6 31  1  0
 31 32  1  0
 31 33  2  0
 33 34  1  0
 33  2  1  0
 28 10  1  0
 18 11  1  0
 24 16  1  0
M  END
>  <cnnaffinity>  (1) 
-4.72402

>  <filename>  (1) 
c1cncc(CC2(c3ccc4c(c3)OCO4)CC2)c1

$$$$
