
     RDKit          3D

 33 36  0  0  0  0  0  0  0  0999 V2000
    4.9123    1.7804   16.9946 H   0  0  0  0  0  0  0  0  0  0  0  0
    5.4014    1.2953   17.8343 C   0  0  0  0  0  0  0  0  0  0  0  0
    6.5637    0.6776   17.5655 N   0  0  0  0  0  0  0  0  0  0  0  0
    7.1710    0.0731   18.5938 C   0  0  0  0  0  0  0  0  0  0  0  0
    8.1116   -0.4273   18.3732 H   0  0  0  0  0  0  0  0  0  0  0  0
    6.6587    0.0149   19.9008 C   0  0  0  0  0  0  0  0  0  0  0  0
    7.3878   -0.7029   20.9725 C   0  0  0  0  0  0  0  0  0  0  0  0
    8.7731   -0.5446   21.1264 C   0  0  0  0  0  0  0  0  0  0  0  0
    9.3056    0.1242   20.4544 H   0  0  0  0  0  0  0  0  0  0  0  0
    9.4453   -1.2127   22.1523 C   0  0  0  0  0  0  0  0  0  0  0  0
   10.5158   -1.0791   22.2607 H   0  0  0  0  0  0  0  0  0  0  0  0
    8.7500   -2.0521   23.0236 C   0  0  0  0  0  0  0  0  0  0  0  0
    9.2837   -2.5687   23.8148 H   0  0  0  0  0  0  0  0  0  0  0  0
    7.3611   -2.2213   22.8704 C   0  0  0  0  0  0  0  0  0  0  0  0
    6.5699   -3.0864   23.7602 C   0  0  0  0  0  0  0  0  0  0  0  0
    5.2995   -3.3054   23.6856 N   0  0  0  0  0  0  0  0  0  0  0  0
    5.0411   -4.1802   24.7305 C   0  0  0  0  0  0  0  0  0  0  0  0
    3.8446   -4.7687   25.1630 C   0  0  0  0  0  0  0  0  0  0  0  0
    2.9224   -4.5356   24.6373 H   0  0  0  0  0  0  0  0  0  0  0  0
    3.9019   -5.6338   26.2602 C   0  0  0  0  0  0  0  0  0  0  0  0
    2.9853   -6.1029   26.6137 H   0  0  0  0  0  0  0  0  0  0  0  0
    5.1311   -5.9019   26.9098 C   0  0  0  0  0  0  0  0  0  0  0  0
    5.1447   -6.5796   27.7612 H   0  0  0  0  0  0  0  0  0  0  0  0
    6.3321   -5.3149   26.4837 C   0  0  0  0  0  0  0  0  0  0  0  0
    7.2850   -5.5085   26.9696 H   0  0  0  0  0  0  0  0  0  0  0  0
    6.2437   -4.4572   25.3895 C   0  0  0  0  0  0  0  0  0  0  0  0
    7.2279   -3.7514   24.7594 O   0  0  0  0  0  0  0  0  0  0  0  0
    6.6912   -1.5426   21.8450 C   0  0  0  0  0  0  0  0  0  0  0  0
    5.6184   -1.6794   21.7112 H   0  0  0  0  0  0  0  0  0  0  0  0
    5.4341    0.6510   20.1516 C   0  0  0  0  0  0  0  0  0  0  0  0
    5.0135    0.6303   21.1617 H   0  0  0  0  0  0  0  0  0  0  0  0
    4.8025    1.3174   19.1025 C   0  0  0  0  0  0  0  0  0  0  0  0
    3.8672    1.8478   19.2594 H   0  0  0  0  0  0  0  0  0  0  0  0
  1  2  1  0
  2  3  2  0
  3  4  1  0
  4  5  1  0
  4  6  2  0
  6  7  1  0
  7  8  2  0
  8  9  1  0
  8 10  1  0
 10 11  1  0
 10 12  2  0
 12 13  1  0
 12 14  1  0
 14 15  1  0
 15 16  2  0
 16 17  1  0
 17 18  2  0
 18 19  1  0
 18 20  1  0
 20 21  1  0
 20 22  2  0
 22 23  1  0
 22 24  1  0
 24 25  1  0
 24 26  2  0
 26 27  1  0
 14 28  2  0
 28 29  1  0
  6 30  1  0
 30 31  1  0
 30 32  2  0
 32 33  1  0
 32  2  1  0
 28  7  1  0
 27 15  1  0
 26 17  1  0
M  END
>  <cnnaffinity>  (1) 
-5.15552

>  <filename>  (1) 
c1cncc(-c2cccc(-c3nc4ccccc4o3)c2)c1

$$$$
