
     RDKit          3D

 43 47  0  0  0  0  0  0  0  0999 V2000
    4.7746    1.3208   19.0024 C   0  0  0  0  0  0  0  0  0  0  0  0
    5.4044    1.3041   17.7533 C   0  0  0  0  0  0  0  0  0  0  0  0
    6.5381    0.6315   17.5040 N   0  0  0  0  0  0  0  0  0  0  0  0
    7.0984   -0.0271   18.5266 C   0  0  0  0  0  0  0  0  0  0  0  0
    6.5828   -0.0395   19.8355 C   0  0  0  0  0  0  0  0  0  0  0  0
    7.3557   -0.6472   21.0013 C   0  0  0  0  0  0  0  0  0  0  0  0
    8.2281    0.3430   21.7284 C   0  0  0  0  0  0  0  0  0  0  0  0
    7.7641    1.1042   22.7012 N   0  0  0  0  0  0  0  0  0  0  0  0
    8.8335    1.8597   23.0494 N   0  0  0  0  0  0  0  0  0  0  0  0
    8.7090    2.8798   24.0859 C   0  0  0  0  0  0  0  0  0  0  0  0
    8.1604    4.1936   23.5654 C   0  0  0  0  0  0  0  0  0  0  0  0
    7.1229    4.3693   22.6990 C   0  0  0  0  0  0  0  0  0  0  0  0
    6.8375    5.7467   22.4427 C   0  0  0  0  0  0  0  0  0  0  0  0
    7.6742    6.5857   23.1165 C   0  0  0  0  0  0  0  0  0  0  0  0
    8.8027    5.7136   24.0822 S   0  0  0  0  0  0  0  0  0  0  0  0
    7.6938    7.6693   23.1090 H   0  0  0  0  0  0  0  0  0  0  0  0
    6.0385    6.0820   21.7871 H   0  0  0  0  0  0  0  0  0  0  0  0
    6.5924    3.5277   22.2571 H   0  0  0  0  0  0  0  0  0  0  0  0
    8.0452    2.4770   24.8652 H   0  0  0  0  0  0  0  0  0  0  0  0
    9.6956    3.0249   24.5347 H   0  0  0  0  0  0  0  0  0  0  0  0
    9.8875    1.5293   22.2572 C   0  0  0  0  0  0  0  0  0  0  0  0
   11.2363    2.1504   22.3927 C   0  0  0  0  0  0  0  0  0  0  0  0
   11.4682    3.5409   22.4567 C   0  0  0  0  0  0  0  0  0  0  0  0
   12.7603    4.0522   22.6851 C   0  0  0  0  0  0  0  0  0  0  0  0
   13.8583    3.3052   22.8608 N   0  0  0  0  0  0  0  0  0  0  0  0
   13.6269    1.9960   22.7506 C   0  0  0  0  0  0  0  0  0  0  0  0
   12.3878    1.3395   22.4891 C   0  0  0  0  0  0  0  0  0  0  0  0
   12.6872   -0.0622   22.3901 C   0  0  0  0  0  0  0  0  0  0  0  0
   14.0317   -0.2089   22.5858 C   0  0  0  0  0  0  0  0  0  0  0  0
   14.5901    1.0335   22.8155 N   0  0  0  0  0  0  0  0  0  0  0  0
   15.5558    1.3108   22.8394 H   0  0  0  0  0  0  0  0  0  0  0  0
   14.6273   -1.1158   22.6131 H   0  0  0  0  0  0  0  0  0  0  0  0
   11.9599   -0.8398   22.1753 H   0  0  0  0  0  0  0  0  0  0  0  0
   12.9104    5.1264   22.7570 H   0  0  0  0  0  0  0  0  0  0  0  0
   10.6642    4.2513   22.3267 H   0  0  0  0  0  0  0  0  0  0  0  0
    9.5316    0.5572   21.4260 N   0  0  0  0  0  0  0  0  0  0  0  0
    6.6557   -1.0594   21.7372 H   0  0  0  0  0  0  0  0  0  0  0  0
    7.9923   -1.4651   20.6492 H   0  0  0  0  0  0  0  0  0  0  0  0
    5.3771    0.6325   20.0584 C   0  0  0  0  0  0  0  0  0  0  0  0
    4.9380    0.6223   21.0583 H   0  0  0  0  0  0  0  0  0  0  0  0
    8.0169   -0.5724   18.3046 H   0  0  0  0  0  0  0  0  0  0  0  0
    4.9769    1.8482   16.9133 H   0  0  0  0  0  0  0  0  0  0  0  0
    3.8492    1.8691   19.1371 H   0  0  0  0  0  0  0  0  0  0  0  0
  1  2  2  0
  2  3  1  0
  3  4  2  0
  4  5  1  0
  5  6  1  0
  6  7  1  0
  7  8  2  0
  8  9  1  0
  9 10  1  0
 10 11  1  0
 11 12  2  0
 12 13  1  0
 13 14  2  0
 14 15  1  0
 14 16  1  0
 13 17  1  0
 12 18  1  0
 10 19  1  0
 10 20  1  0
  9 21  1  0
 21 22  1  0
 22 23  2  0
 23 24  1  0
 24 25  2  0
 25 26  1  0
 26 27  2  0
 27 28  1  0
 28 29  2  0
 29 30  1  0
 30 31  1  0
 29 32  1  0
 28 33  1  0
 24 34  1  0
 23 35  1  0
 21 36  2  0
  6 37  1  0
  6 38  1  0
  5 39  2  0
 39 40  1  0
  4 41  1  0
  2 42  1  0
  1 43  1  0
 39  1  1  0
 36  7  1  0
 15 11  1  0
 27 22  1  0
 30 26  1  0
M  END
>  <cnnaffinity>  (1) 
-6.80873

>  <filename>  (1) 
c1cncc(Cc2nc(-c3ccnc4[nH]ccc34)n(Cc3cccs3)n2)c1

$$$$
