
     RDKit          3D

 48 53  0  0  0  0  0  0  0  0999 V2000
    4.8140    1.3090   19.0636 C   0  0  0  0  0  0  0  0  0  0  0  0
    5.4010    1.2966   17.7955 C   0  0  0  0  0  0  0  0  0  0  0  0
    6.5480    0.6577   17.5177 N   0  0  0  0  0  0  0  0  0  0  0  0
    7.1573    0.0252   18.5285 C   0  0  0  0  0  0  0  0  0  0  0  0
    6.6767   -0.0101   19.8501 C   0  0  0  0  0  0  0  0  0  0  0  0
    7.4753   -0.6533   20.9849 C   0  0  0  0  0  0  0  0  0  0  0  0
    8.3490    0.3189   21.7327 C   0  0  0  0  0  0  0  0  0  0  0  0
    7.8260    1.1202   22.6391 N   0  0  0  0  0  0  0  0  0  0  0  0
    8.8768    1.8886   23.0122 N   0  0  0  0  0  0  0  0  0  0  0  0
    8.7159    2.8951   23.9894 C   0  0  0  0  0  0  0  0  0  0  0  0
    9.3566    2.7945   25.2096 C   0  0  0  0  0  0  0  0  0  0  0  0
    9.2274    3.7249   26.1870 N   0  0  0  0  0  0  0  0  0  0  0  0
    8.5250    4.8071   26.0066 N   0  0  0  0  0  0  0  0  0  0  0  0
    7.8572    4.9898   24.8166 C   0  0  0  0  0  0  0  0  0  0  0  0
    7.1157    6.1999   24.6720 C   0  0  0  0  0  0  0  0  0  0  0  0
    6.3867    6.4222   23.5325 C   0  0  0  0  0  0  0  0  0  0  0  0
    6.3699    5.4593   22.4824 C   0  0  0  0  0  0  0  0  0  0  0  0
    7.1055    4.2922   22.5812 C   0  0  0  0  0  0  0  0  0  0  0  0
    7.8775    4.0263   23.7620 C   0  0  0  0  0  0  0  0  0  0  0  0
    7.0905    3.5488   21.7863 H   0  0  0  0  0  0  0  0  0  0  0  0
    5.7661    5.6423   21.5969 H   0  0  0  0  0  0  0  0  0  0  0  0
    5.8033    7.3358   23.4231 H   0  0  0  0  0  0  0  0  0  0  0  0
    7.1713    6.8998   25.4968 H   0  0  0  0  0  0  0  0  0  0  0  0
   10.0025    1.9551   25.4459 H   0  0  0  0  0  0  0  0  0  0  0  0
    9.9896    1.5147   22.3089 C   0  0  0  0  0  0  0  0  0  0  0  0
   11.2967    2.2655   22.3933 C   0  0  0  0  0  0  0  0  0  0  0  0
   12.3846    1.7278   23.3047 C   0  0  0  0  0  0  0  0  0  0  0  0
   13.4405    0.7731   22.8136 C   0  0  0  0  0  0  0  0  0  0  0  0
   12.3925    0.3092   23.7863 C   0  0  0  0  0  0  0  0  0  0  0  0
   11.6100   -0.3390   23.3929 H   0  0  0  0  0  0  0  0  0  0  0  0
   12.6832    0.1177   24.8161 H   0  0  0  0  0  0  0  0  0  0  0  0
   14.4593    0.9227   23.1610 H   0  0  0  0  0  0  0  0  0  0  0  0
   13.3644    0.3934   21.8021 H   0  0  0  0  0  0  0  0  0  0  0  0
   12.7633    2.4677   24.0127 H   0  0  0  0  0  0  0  0  0  0  0  0
   11.6881    2.9520   21.1013 C   0  0  0  0  0  0  0  0  0  0  0  0
   11.2592    3.7707   22.2854 C   0  0  0  0  0  0  0  0  0  0  0  0
   10.2896    4.2668   22.2711 H   0  0  0  0  0  0  0  0  0  0  0  0
   12.0296    4.3172   22.8249 H   0  0  0  0  0  0  0  0  0  0  0  0
   12.7175    3.0227   20.7711 H   0  0  0  0  0  0  0  0  0  0  0  0
   10.9679    2.8186   20.3031 H   0  0  0  0  0  0  0  0  0  0  0  0
    9.6763    0.5103   21.5023 N   0  0  0  0  0  0  0  0  0  0  0  0
    8.1079   -1.4664   20.6150 H   0  0  0  0  0  0  0  0  0  0  0  0
    6.7842   -1.0775   21.7227 H   0  0  0  0  0  0  0  0  0  0  0  0
    5.4643    0.6453   20.1088 C   0  0  0  0  0  0  0  0  0  0  0  0
    5.0468    0.6409   21.1183 H   0  0  0  0  0  0  0  0  0  0  0  0
    8.0891   -0.4843   18.2792 H   0  0  0  0  0  0  0  0  0  0  0  0
    4.9315    1.8199   16.9638 H   0  0  0  0  0  0  0  0  0  0  0  0
    3.8802    1.8394   19.2180 H   0  0  0  0  0  0  0  0  0  0  0  0
  1  2  2  0
  2  3  1  0
  3  4  2  0
  4  5  1  0
  5  6  1  0
  6  7  1  0
  7  8  2  0
  8  9  1  0
  9 10  1  0
 10 11  2  0
 11 12  1  0
 12 13  2  0
 13 14  1  0
 14 15  2  0
 15 16  1  0
 16 17  2  0
 17 18  1  0
 18 19  2  0
 18 20  1  0
 17 21  1  0
 16 22  1  0
 15 23  1  0
 11 24  1  0
  9 25  1  0
 25 26  1  0
 26 27  1  0
 27 28  1  0
 28 29  1  0
 29 30  1  0
 29 31  1  0
 28 32  1  0
 28 33  1  0
 27 34  1  0
 26 35  1  0
 35 36  1  0
 36 37  1  0
 36 38  1  0
 35 39  1  0
 35 40  1  0
 25 41  2  0
  6 42  1  0
  6 43  1  0
  5 44  2  0
 44 45  1  0
  4 46  1  0
  2 47  1  0
  1 48  1  0
 44  1  1  0
 41  7  1  0
 19 10  1  0
 36 26  1  0
 19 14  1  0
 29 27  1  0
M  END
>  <cnnaffinity>  (1) 
-6.25188

>  <filename>  (1) 
c1cncc(Cc2nc(C3(C4CC4)CC3)n(-c3cnnc4ccccc34)n2)c1

$$$$
