
     RDKit          3D

 21 22  0  0  0  0  0  0  0  0999 V2000
    4.9399    1.8402   17.0059 H   0  0  0  0  0  0  0  0  0  0  0  0
    5.4179    1.3191   17.8322 C   0  0  0  0  0  0  0  0  0  0  0  0
    6.5724    0.6908   17.5583 N   0  0  0  0  0  0  0  0  0  0  0  0
    7.1799    0.0172   18.5526 C   0  0  0  0  0  0  0  0  0  0  0  0
    8.1099   -0.4839   18.2878 H   0  0  0  0  0  0  0  0  0  0  0  0
    6.6668   -0.0839   19.8757 C   0  0  0  0  0  0  0  0  0  0  0  0
    7.1927   -0.8621   20.9350 N   0  0  0  0  0  0  0  0  0  0  0  0
    6.8116   -0.6108   21.8368 H   0  0  0  0  0  0  0  0  0  0  0  0
    8.7481   -1.5066   21.1359 S   0  0  0  0  0  0  0  0  0  0  0  0
    9.5861   -0.0601   21.6907 C   0  0  0  0  0  0  0  0  0  0  0  0
    9.8327    0.9847   20.7875 C   0  0  0  0  0  0  0  0  0  0  0  0
    9.5442    0.9780   19.7539 H   0  0  0  0  0  0  0  0  0  0  0  0
   10.4693    1.9917   21.3473 N   0  0  0  0  0  0  0  0  0  0  0  0
   10.6142    1.6083   22.6170 N   0  0  0  0  0  0  0  0  0  0  0  0
   11.0769    2.2507   23.2371 H   0  0  0  0  0  0  0  0  0  0  0  0
   10.0952    0.3878   22.8956 C   0  0  0  0  0  0  0  0  0  0  0  0
   10.1072   -0.0114   23.9023 H   0  0  0  0  0  0  0  0  0  0  0  0
    5.4684    0.6085   20.1332 C   0  0  0  0  0  0  0  0  0  0  0  0
    5.0557    0.5918   21.1407 H   0  0  0  0  0  0  0  0  0  0  0  0
    4.8316    1.3041   19.1031 C   0  0  0  0  0  0  0  0  0  0  0  0
    3.8968    1.8306   19.2676 H   0  0  0  0  0  0  0  0  0  0  0  0
  1  2  1  0
  2  3  2  0
  3  4  1  0
  4  5  1  0
  4  6  2  0
  6  7  1  0
  7  8  1  0
  7  9  1  0
  9 10  1  0
 10 11  1  0
 11 12  1  0
 11 13  2  0
 13 14  1  0
 14 15  1  0
 14 16  1  0
 16 17  1  0
  6 18  1  0
 18 19  1  0
 18 20  2  0
 20 21  1  0
 20  2  1  0
 16 10  2  0
M  END
>  <cnnaffinity>  (1) 
-4.63165

>  <filename>  (1) 
c1cncc(NSc2cn[nH]c2)c1

$$$$
