
     RDKit          3D

 25 27  0  0  0  0  0  0  0  0999 V2000
    4.9140    1.7843   16.9906 H   0  0  0  0  0  0  0  0  0  0  0  0
    5.3971    1.2967   17.8311 C   0  0  0  0  0  0  0  0  0  0  0  0
    6.5599    0.6819   17.5625 N   0  0  0  0  0  0  0  0  0  0  0  0
    7.1709    0.0745   18.5861 C   0  0  0  0  0  0  0  0  0  0  0  0
    8.1104   -0.4261   18.3598 H   0  0  0  0  0  0  0  0  0  0  0  0
    6.6650    0.0222   19.8946 C   0  0  0  0  0  0  0  0  0  0  0  0
    7.3944   -0.6919   20.9567 C   0  0  0  0  0  0  0  0  0  0  0  0
    8.7520   -0.7824   21.0674 C   0  0  0  0  0  0  0  0  0  0  0  0
    9.4659   -0.3208   20.4076 H   0  0  0  0  0  0  0  0  0  0  0  0
    9.2489   -1.6745   22.4485 S   0  0  0  0  0  0  0  0  0  0  0  0
    7.6012   -1.9704   22.9024 C   0  0  0  0  0  0  0  0  0  0  0  0
    7.2116   -2.7361   24.0715 C   0  0  0  0  0  0  0  0  0  0  0  0
    5.9669   -2.9786   24.4364 N   0  0  0  0  0  0  0  0  0  0  0  0
    6.0492   -3.7235   25.5741 C   0  0  0  0  0  0  0  0  0  0  0  0
    5.1666   -4.0644   26.0990 H   0  0  0  0  0  0  0  0  0  0  0  0
    7.3544   -3.9517   25.9142 C   0  0  0  0  0  0  0  0  0  0  0  0
    7.7922   -4.4997   26.7406 H   0  0  0  0  0  0  0  0  0  0  0  0
    8.0852   -3.3157   24.9447 N   0  0  0  0  0  0  0  0  0  0  0  0
    9.0844   -3.2601   24.8561 H   0  0  0  0  0  0  0  0  0  0  0  0
    6.7483   -1.3876   22.0110 C   0  0  0  0  0  0  0  0  0  0  0  0
    5.6715   -1.4911   22.0583 H   0  0  0  0  0  0  0  0  0  0  0  0
    5.4363    0.6553   20.1477 C   0  0  0  0  0  0  0  0  0  0  0  0
    5.0199    0.6377   21.1589 H   0  0  0  0  0  0  0  0  0  0  0  0
    4.8014    1.3159   19.0987 C   0  0  0  0  0  0  0  0  0  0  0  0
    3.8699    1.8455   19.2559 H   0  0  0  0  0  0  0  0  0  0  0  0
  1  2  1  0
  2  3  2  0
  3  4  1  0
  4  5  1  0
  4  6  2  0
  6  7  1  0
  7  8  2  0
  8  9  1  0
  8 10  1  0
 10 11  1  0
 11 12  1  0
 12 13  2  0
 13 14  1  0
 14 15  1  0
 14 16  2  0
 16 17  1  0
 16 18  1  0
 18 19  1  0
 11 20  2  0
 20 21  1  0
  6 22  1  0
 22 23  1  0
 22 24  2  0
 24 25  1  0
 24  2  1  0
 20  7  1  0
 18 12  1  0
M  END
>  <cnnaffinity>  (1) 
-4.90703

>  <filename>  (1) 
c1cncc(-c2csc(-c3ncc[nH]3)c2)c1

$$$$
