
     RDKit          3D

 31 34  0  0  0  0  0  0  0  0999 V2000
    4.9145    1.7876   16.9919 H   0  0  0  0  0  0  0  0  0  0  0  0
    5.3940    1.2957   17.8350 C   0  0  0  0  0  0  0  0  0  0  0  0
    6.5555    0.6780   17.5696 N   0  0  0  0  0  0  0  0  0  0  0  0
    7.1566    0.0429   18.5802 C   0  0  0  0  0  0  0  0  0  0  0  0
    8.1187   -0.4223   18.3674 H   0  0  0  0  0  0  0  0  0  0  0  0
    6.6249   -0.0295   19.8819 C   0  0  0  0  0  0  0  0  0  0  0  0
    7.5637   -0.8312   21.1931 S   0  0  0  0  0  0  0  0  0  0  0  0
    8.5295    0.5845   21.6313 C   0  0  0  0  0  0  0  0  0  0  0  0
    9.6930    0.8867   21.1019 N   0  0  0  0  0  0  0  0  0  0  0  0
    9.9939    2.1167   21.5701 N   0  0  0  0  0  0  0  0  0  0  0  0
    9.0726    2.5678   22.3343 N   0  0  0  0  0  0  0  0  0  0  0  0
    8.1125    1.6104   22.4018 N   0  0  0  0  0  0  0  0  0  0  0  0
    6.8881    1.7696   23.1223 C   0  0  0  0  0  0  0  0  0  0  0  0
    6.3828    0.7394   23.9136 C   0  0  0  0  0  0  0  0  0  0  0  0
    6.9255   -0.1995   24.0112 H   0  0  0  0  0  0  0  0  0  0  0  0
    5.1588    0.9063   24.6119 C   0  0  0  0  0  0  0  0  0  0  0  0
    4.7885    0.0845   25.2238 H   0  0  0  0  0  0  0  0  0  0  0  0
    4.4187    2.0840   24.5294 C   0  0  0  0  0  0  0  0  0  0  0  0
    3.4752    2.2230   25.0647 H   0  0  0  0  0  0  0  0  0  0  0  0
    4.9449    3.1071   23.7207 C   0  0  0  0  0  0  0  0  0  0  0  0
    6.1644    2.9797   23.0064 C   0  0  0  0  0  0  0  0  0  0  0  0
    6.3460    4.2076   22.2756 C   0  0  0  0  0  0  0  0  0  0  0  0
    7.1938    4.4057   21.6384 H   0  0  0  0  0  0  0  0  0  0  0  0
    5.2860    5.0189   22.5623 C   0  0  0  0  0  0  0  0  0  0  0  0
    5.0542    6.0183   22.2004 H   0  0  0  0  0  0  0  0  0  0  0  0
    4.4471    4.3545   23.4392 N   0  0  0  0  0  0  0  0  0  0  0  0
    3.5789    4.6980   23.8070 H   0  0  0  0  0  0  0  0  0  0  0  0
    5.4259    0.6390   20.1538 C   0  0  0  0  0  0  0  0  0  0  0  0
    5.0149    0.6340   21.1700 H   0  0  0  0  0  0  0  0  0  0  0  0
    4.7967    1.3118   19.1003 C   0  0  0  0  0  0  0  0  0  0  0  0
    3.8664    1.8478   19.2496 H   0  0  0  0  0  0  0  0  0  0  0  0
  1  2  1  0
  2  3  2  0
  3  4  1  0
  4  5  1  0
  4  6  2  0
  6  7  1  0
  7  8  1  0
  8  9  2  0
  9 10  1  0
 10 11  2  0
 11 12  1  0
 12 13  1  0
 13 14  2  0
 14 15  1  0
 14 16  1  0
 16 17  1  0
 16 18  2  0
 18 19  1  0
 18 20  1  0
 20 21  2  0
 21 22  1  0
 22 23  1  0
 22 24  2  0
 24 25  1  0
 24 26  1  0
 26 27  1  0
  6 28  1  0
 28 29  1  0
 28 30  2  0
 30 31  1  0
 30  2  1  0
 12  8  1  0
 21 13  1  0
 26 20  1  0
M  END
>  <cnnaffinity>  (1) 
-5.0438

>  <filename>  (1) 
c1cncc(Sc2nnnn2-c2cccc3[nH]ccc23)c1

$$$$
