
     RDKit          3D

 34 36  0  0  0  0  0  0  0  0999 V2000
    4.7907    1.3275   19.0079 C   0  0  0  0  0  0  0  0  0  0  0  0
    5.4156    1.3366   17.7576 C   0  0  0  0  0  0  0  0  0  0  0  0
    6.5560    0.6804   17.4944 N   0  0  0  0  0  0  0  0  0  0  0  0
    7.1173    0.0041   18.5063 C   0  0  0  0  0  0  0  0  0  0  0  0
    6.5961   -0.0630   19.8109 C   0  0  0  0  0  0  0  0  0  0  0  0
    7.3334   -0.7795   20.9276 C   0  0  0  0  0  0  0  0  0  0  0  0
    8.2933    0.1705   21.6527 C   0  0  0  0  0  0  0  0  0  0  0  0
    9.1834   -0.6310   23.0315 S   0  0  0  0  0  0  0  0  0  0  0  0
   10.0767    0.8116   23.5744 C   0  0  0  0  0  0  0  0  0  0  0  0
    9.4483    1.7761   24.4204 C   0  0  0  0  0  0  0  0  0  0  0  0
   10.0403    2.9956   24.6523 C   0  0  0  0  0  0  0  0  0  0  0  0
   11.3328    3.2977   24.1304 C   0  0  0  0  0  0  0  0  0  0  0  0
   11.9509    4.5737   24.3148 C   0  0  0  0  0  0  0  0  0  0  0  0
   13.1996    4.8288   23.7912 C   0  0  0  0  0  0  0  0  0  0  0  0
   13.8912    3.8083   23.0710 C   0  0  0  0  0  0  0  0  0  0  0  0
   13.3197    2.5685   22.8915 C   0  0  0  0  0  0  0  0  0  0  0  0
   12.0113    2.2877   23.3770 C   0  0  0  0  0  0  0  0  0  0  0  0
   11.3419    1.0579   23.0841 C   0  0  0  0  0  0  0  0  0  0  0  0
   11.8255    0.3182   22.4548 H   0  0  0  0  0  0  0  0  0  0  0  0
   13.8537    1.7735   22.3782 H   0  0  0  0  0  0  0  0  0  0  0  0
   14.8707    4.0183   22.6498 H   0  0  0  0  0  0  0  0  0  0  0  0
   13.6503    5.8132   23.9042 H   0  0  0  0  0  0  0  0  0  0  0  0
   11.4056    5.3339   24.8701 H   0  0  0  0  0  0  0  0  0  0  0  0
    9.5200    3.7509   25.2301 H   0  0  0  0  0  0  0  0  0  0  0  0
    8.5049    1.5236   24.8876 H   0  0  0  0  0  0  0  0  0  0  0  0
    9.0298    0.5764   20.9531 H   0  0  0  0  0  0  0  0  0  0  0  0
    7.7355    1.0122   22.0750 H   0  0  0  0  0  0  0  0  0  0  0  0
    6.6110   -1.1828   21.6479 H   0  0  0  0  0  0  0  0  0  0  0  0
    7.8902   -1.6344   20.5231 H   0  0  0  0  0  0  0  0  0  0  0  0
    5.3937    0.6207   20.0497 C   0  0  0  0  0  0  0  0  0  0  0  0
    4.9383    0.5952   21.0423 H   0  0  0  0  0  0  0  0  0  0  0  0
    8.0385   -0.5269   18.2633 H   0  0  0  0  0  0  0  0  0  0  0  0
    4.9785    1.8897   16.9291 H   0  0  0  0  0  0  0  0  0  0  0  0
    3.8607    1.8715   19.1548 H   0  0  0  0  0  0  0  0  0  0  0  0
  1  2  2  0
  2  3  1  0
  3  4  2  0
  4  5  1  0
  5  6  1  0
  6  7  1  0
  7  8  1  0
  8  9  1  0
  9 10  2  0
 10 11  1  0
 11 12  2  0
 12 13  1  0
 13 14  2  0
 14 15  1  0
 15 16  2  0
 16 17  1  0
 17 18  2  0
 18 19  1  0
 16 20  1  0
 15 21  1  0
 14 22  1  0
 13 23  1  0
 11 24  1  0
 10 25  1  0
  7 26  1  0
  7 27  1  0
  6 28  1  0
  6 29  1  0
  5 30  2  0
 30 31  1  0
  4 32  1  0
  2 33  1  0
  1 34  1  0
 30  1  1  0
 18  9  1  0
 17 12  1  0
M  END
>  <cnnaffinity>  (1) 
-5.14042

>  <filename>  (1) 
c1cncc(CCSc2ccc3ccccc3c2)c1

$$$$
