
     RDKit          3D

 40 42  0  0  0  0  0  0  0  0999 V2000
    5.0736    1.7754   16.9413 H   0  0  0  0  0  0  0  0  0  0  0  0
    5.4836    1.2919   17.8250 C   0  0  0  0  0  0  0  0  0  0  0  0
    6.6441    0.6362   17.6580 N   0  0  0  0  0  0  0  0  0  0  0  0
    7.1592    0.0082   18.7216 C   0  0  0  0  0  0  0  0  0  0  0  0
    8.1161   -0.4921   18.5626 H   0  0  0  0  0  0  0  0  0  0  0  0
    6.5638    0.0094   19.9972 C   0  0  0  0  0  0  0  0  0  0  0  0
    7.1926   -0.6984   21.0686 N   0  0  0  0  0  0  0  0  0  0  0  0
    7.4999   -2.0384   21.0104 C   0  0  0  0  0  0  0  0  0  0  0  0
    7.0827   -2.6068   20.1943 H   0  0  0  0  0  0  0  0  0  0  0  0
    8.2246   -2.3835   22.1233 C   0  0  0  0  0  0  0  0  0  0  0  0
    8.6366   -3.3686   22.3358 H   0  0  0  0  0  0  0  0  0  0  0  0
    8.3544   -1.1982   22.9020 C   0  0  0  0  0  0  0  0  0  0  0  0
    8.8940   -1.0981   23.8397 H   0  0  0  0  0  0  0  0  0  0  0  0
    7.7172   -0.1693   22.2393 C   0  0  0  0  0  0  0  0  0  0  0  0
    7.7041    1.3128   22.4779 C   0  0  0  0  0  0  0  0  0  0  0  0
    6.6842    1.7138   22.4511 H   0  0  0  0  0  0  0  0  0  0  0  0
    8.0764    1.5036   23.4911 H   0  0  0  0  0  0  0  0  0  0  0  0
    8.5641    2.0809   21.4435 C   0  0  0  0  0  0  0  0  0  0  0  0
    8.0981    2.0323   20.4562 H   0  0  0  0  0  0  0  0  0  0  0  0
    8.5658    3.1512   21.6797 H   0  0  0  0  0  0  0  0  0  0  0  0
    9.9494    1.6117   21.3247 N   0  0  0  0  0  0  0  0  0  0  0  0
    9.9155    0.6084   21.1322 H   0  0  0  0  0  0  0  0  0  0  0  0
   10.7288    1.7997   22.5486 C   0  0  0  0  0  0  0  0  0  0  0  0
   10.2581    1.3205   23.4302 H   0  0  0  0  0  0  0  0  0  0  0  0
   10.9769    3.2757   22.8593 C   0  0  0  0  0  0  0  0  0  0  0  0
   10.1113    3.7794   23.3012 H   0  0  0  0  0  0  0  0  0  0  0  0
   11.1900    3.7848   21.9167 H   0  0  0  0  0  0  0  0  0  0  0  0
   12.2100    3.3028   23.7740 C   0  0  0  0  0  0  0  0  0  0  0  0
   11.9011    3.4346   24.8122 H   0  0  0  0  0  0  0  0  0  0  0  0
   12.8536    4.1531   23.5339 H   0  0  0  0  0  0  0  0  0  0  0  0
   12.9214    1.9410   23.5616 C   0  0  0  0  0  0  0  0  0  0  0  0
   12.8825    1.3345   24.4739 H   0  0  0  0  0  0  0  0  0  0  0  0
   13.9792    2.0543   23.3160 H   0  0  0  0  0  0  0  0  0  0  0  0
   12.1401    1.2460   22.4306 C   0  0  0  0  0  0  0  0  0  0  0  0
   12.1762    0.1541   22.4893 H   0  0  0  0  0  0  0  0  0  0  0  0
   12.5182    1.5274   21.4427 H   0  0  0  0  0  0  0  0  0  0  0  0
    5.3604    0.7155   20.1621 C   0  0  0  0  0  0  0  0  0  0  0  0
    4.8821    0.7533   21.1411 H   0  0  0  0  0  0  0  0  0  0  0  0
    4.8036    1.3498   19.0456 C   0  0  0  0  0  0  0  0  0  0  0  0
    3.8612    1.8856   19.1193 H   0  0  0  0  0  0  0  0  0  0  0  0
  1  2  1  0
  2  3  2  0
  3  4  1  0
  4  5  1  0
  4  6  2  0
  6  7  1  0
  7  8  1  0
  8  9  1  0
  8 10  2  0
 10 11  1  0
 10 12  1  0
 12 13  1  0
 12 14  2  0
 14 15  1  0
 15 16  1  0
 15 17  1  0
 15 18  1  0
 18 19  1  0
 18 20  1  0
 18 21  1  0
 21 22  1  0
 21 23  1  0
 23 24  1  0
 23 25  1  0
 25 26  1  0
 25 27  1  0
 25 28  1  0
 28 29  1  0
 28 30  1  0
 28 31  1  0
 31 32  1  0
 31 33  1  0
 31 34  1  0
 34 35  1  0
 34 36  1  0
  6 37  1  0
 37 38  1  0
 37 39  2  0
 39 40  1  0
 39  2  1  0
 14  7  1  0
 34 23  1  0
M  END
>  <cnnaffinity>  (1) 
-5.01425

>  <filename>  (1) 
c1cncc(-n2cccc2CCNC2CCCC2)c1

$$$$
