
     RDKit          3D

 29 31  0  0  0  0  0  0  0  0999 V2000
    5.5081    1.4324   17.0187 H   0  0  0  0  0  0  0  0  0  0  0  0
    5.7820    0.8488   17.8930 C   0  0  0  0  0  0  0  0  0  0  0  0
    6.8805    0.0882   17.7652 N   0  0  0  0  0  0  0  0  0  0  0  0
    7.2266   -0.6683   18.8111 C   0  0  0  0  0  0  0  0  0  0  0  0
    8.1089   -1.2918   18.6762 H   0  0  0  0  0  0  0  0  0  0  0  0
    6.5319   -0.6812   20.0266 C   0  0  0  0  0  0  0  0  0  0  0  0
    7.0904   -1.4792   21.1337 C   0  0  0  0  0  0  0  0  0  0  0  0
    6.6200   -2.5954   21.6188 N   0  0  0  0  0  0  0  0  0  0  0  0
    7.4843   -3.0175   22.6031 N   0  0  0  0  0  0  0  0  0  0  0  0
    8.4448   -2.1406   22.6784 C   0  0  0  0  0  0  0  0  0  0  0  0
    9.2992   -2.1755   23.3452 H   0  0  0  0  0  0  0  0  0  0  0  0
    8.2650   -1.1320   21.7650 N   0  0  0  0  0  0  0  0  0  0  0  0
    9.1671    0.0092   21.5061 C   0  0  0  0  0  0  0  0  0  0  0  0
    9.6628   -0.1373   20.5362 H   0  0  0  0  0  0  0  0  0  0  0  0
    9.9263    0.0072   22.2900 H   0  0  0  0  0  0  0  0  0  0  0  0
    8.6033    1.4246   21.5132 C   0  0  0  0  0  0  0  0  0  0  0  0
    8.7401    2.1023   22.7344 N   0  0  0  0  0  0  0  0  0  0  0  0
    8.4592    3.4681   22.6318 C   0  0  0  0  0  0  0  0  0  0  0  0
    9.6310    3.9345   22.6426 H   0  0  0  0  0  0  0  0  0  0  0  0
    8.3914    3.7287   23.8455 H   0  0  0  0  0  0  0  0  0  0  0  0
    8.4622    3.5030   22.4882 C   0  0  0  0  0  0  0  0  0  0  0  0
    8.1823    5.1243   22.4126 H   0  0  0  0  0  0  0  0  0  0  0  0
    7.2157    3.6083   22.4200 H   0  0  0  0  0  0  0  0  0  0  0  0
    8.1867    2.1124   20.5332 N   0  0  0  0  0  0  0  0  0  0  0  0
    8.1110    1.5891   19.6675 H   0  0  0  0  0  0  0  0  0  0  0  0
    5.3914    0.1255   20.1537 C   0  0  0  0  0  0  0  0  0  0  0  0
    4.8434    0.1602   21.0968 H   0  0  0  0  0  0  0  0  0  0  0  0
    5.0113    0.9021   19.0570 C   0  0  0  0  0  0  0  0  0  0  0  0
    4.1469    1.5573   19.0985 H   0  0  0  0  0  0  0  0  0  0  0  0
  1  2  1  0
  2  3  2  0
  3  4  1  0
  4  5  1  0
  4  6  2  0
  6  7  1  0
  7  8  2  0
  8  9  1  0
  9 10  2  0
 10 11  1  0
 10 12  1  0
 12 13  1  0
 13 14  1  0
 13 15  1  0
 13 16  1  0
 16 17  2  0
 17 18  1  0
 18 19  1  0
 18 20  1  0
 18 21  1  0
 21 22  1  0
 21 23  1  0
 21 24  1  0
 24 25  1  0
  6 26  1  0
 26 27  1  0
 26 28  2  0
 28 29  1  0
 28  2  1  0
 12  7  1  0
 24 16  1  0
M  END
>  <cnnaffinity>  (1) 
-4.41604

>  <filename>  (1) 
c1cncc(-c2nncn2CC2=NCCN2)c1

$$$$
