
     RDKit          3D

 30 32  0  0  0  0  0  0  0  0999 V2000
    4.9098    1.7813   16.9962 H   0  0  0  0  0  0  0  0  0  0  0  0
    5.4001    1.2938   17.8373 C   0  0  0  0  0  0  0  0  0  0  0  0
    6.5644    0.6800   17.5733 N   0  0  0  0  0  0  0  0  0  0  0  0
    7.1781    0.0620   18.5941 C   0  0  0  0  0  0  0  0  0  0  0  0
    8.1227   -0.4253   18.3623 H   0  0  0  0  0  0  0  0  0  0  0  0
    6.6782   -0.0052   19.9267 C   0  0  0  0  0  0  0  0  0  0  0  0
    7.3248   -0.6589   20.9619 N   0  0  0  0  0  0  0  0  0  0  0  0
    6.8679   -0.6670   21.8617 H   0  0  0  0  0  0  0  0  0  0  0  0
    8.6084   -1.3174   20.8341 C   0  0  0  0  0  0  0  0  0  0  0  0
    9.3631   -0.6189   20.4447 H   0  0  0  0  0  0  0  0  0  0  0  0
    8.5331   -2.0948   20.0853 H   0  0  0  0  0  0  0  0  0  0  0  0
    9.0556   -1.9255   22.1332 C   0  0  0  0  0  0  0  0  0  0  0  0
    8.9130   -3.2862   22.4204 C   0  0  0  0  0  0  0  0  0  0  0  0
    8.4769   -3.9508   21.6779 H   0  0  0  0  0  0  0  0  0  0  0  0
    9.3152   -3.8116   23.6740 C   0  0  0  0  0  0  0  0  0  0  0  0
    9.1899   -4.8711   23.8766 H   0  0  0  0  0  0  0  0  0  0  0  0
    9.8654   -2.9952   24.6589 C   0  0  0  0  0  0  0  0  0  0  0  0
   10.1738   -3.3801   25.6296 H   0  0  0  0  0  0  0  0  0  0  0  0
   10.0043   -1.6284   24.3585 C   0  0  0  0  0  0  0  0  0  0  0  0
    9.6115   -1.0828   23.1180 C   0  0  0  0  0  0  0  0  0  0  0  0
    9.8851    0.3223   23.1750 C   0  0  0  0  0  0  0  0  0  0  0  0
    9.6827    1.0292   22.3827 H   0  0  0  0  0  0  0  0  0  0  0  0
   10.4136    0.5856   24.4073 C   0  0  0  0  0  0  0  0  0  0  0  0
   10.7416    1.5304   24.8320 H   0  0  0  0  0  0  0  0  0  0  0  0
   10.4876   -0.5931   25.1180 N   0  0  0  0  0  0  0  0  0  0  0  0
   10.8260   -0.7096   26.0572 H   0  0  0  0  0  0  0  0  0  0  0  0
    5.4483    0.6433   20.1704 C   0  0  0  0  0  0  0  0  0  0  0  0
    5.0122    0.6259   21.1726 H   0  0  0  0  0  0  0  0  0  0  0  0
    4.8158    1.3026   19.1136 C   0  0  0  0  0  0  0  0  0  0  0  0
    3.8811    1.8373   19.2653 H   0  0  0  0  0  0  0  0  0  0  0  0
  1  2  1  0
  2  3  2  0
  3  4  1  0
  4  5  1  0
  4  6  2  0
  6  7  1  0
  7  8  1  0
  7  9  1  0
  9 10  1  0
  9 11  1  0
  9 12  1  0
 12 13  2  0
 13 14  1  0
 13 15  1  0
 15 16  1  0
 15 17  2  0
 17 18  1  0
 17 19  1  0
 19 20  2  0
 20 21  1  0
 21 22  1  0
 21 23  2  0
 23 24  1  0
 23 25  1  0
 25 26  1  0
  6 27  1  0
 27 28  1  0
 27 29  2  0
 29 30  1  0
 29  2  1  0
 20 12  1  0
 25 19  1  0
M  END
>  <cnnaffinity>  (1) 
-4.69609

>  <filename>  (1) 
c1cncc(NCc2cccc3[nH]ccc23)c1

$$$$
