
     RDKit          3D

 30 32  0  0  0  0  0  0  0  0999 V2000
    4.9751    1.7883   16.9995 H   0  0  0  0  0  0  0  0  0  0  0  0
    5.4304    1.2816   17.8440 C   0  0  0  0  0  0  0  0  0  0  0  0
    6.5939    0.6552   17.6017 N   0  0  0  0  0  0  0  0  0  0  0  0
    7.1800    0.0062   18.6178 C   0  0  0  0  0  0  0  0  0  0  0  0
    8.1429   -0.4563   18.3900 H   0  0  0  0  0  0  0  0  0  0  0  0
    6.6306   -0.0687   19.9202 C   0  0  0  0  0  0  0  0  0  0  0  0
    7.1272   -0.8433   20.9825 N   0  0  0  0  0  0  0  0  0  0  0  0
    7.2178   -0.3030   21.8397 H   0  0  0  0  0  0  0  0  0  0  0  0
    8.2782   -1.6118   20.7290 N   0  0  0  0  0  0  0  0  0  0  0  0
    8.1298   -2.1964   19.9080 H   0  0  0  0  0  0  0  0  0  0  0  0
    8.8402   -2.3154   21.8387 C   0  0  0  0  0  0  0  0  0  0  0  0
   10.2161   -2.4306   21.8553 C   0  0  0  0  0  0  0  0  0  0  0  0
   10.7701   -2.0398   21.0018 H   0  0  0  0  0  0  0  0  0  0  0  0
   10.9487   -2.9793   22.8634 N   0  0  0  0  0  0  0  0  0  0  0  0
   10.2926   -3.4462   23.9041 C   0  0  0  0  0  0  0  0  0  0  0  0
   10.8798   -3.8806   24.7099 H   0  0  0  0  0  0  0  0  0  0  0  0
    8.8705   -3.4183   24.0379 C   0  0  0  0  0  0  0  0  0  0  0  0
    8.2070   -3.9025   25.2083 C   0  0  0  0  0  0  0  0  0  0  0  0
    8.7940   -4.3165   26.0234 H   0  0  0  0  0  0  0  0  0  0  0  0
    6.8383   -3.8456   25.3071 C   0  0  0  0  0  0  0  0  0  0  0  0
    6.3356   -4.1988   26.2033 H   0  0  0  0  0  0  0  0  0  0  0  0
    6.0667   -3.3236   24.2367 C   0  0  0  0  0  0  0  0  0  0  0  0
    4.9868   -3.2755   24.3356 H   0  0  0  0  0  0  0  0  0  0  0  0
    6.6697   -2.8594   23.0872 C   0  0  0  0  0  0  0  0  0  0  0  0
    6.0756   -2.4750   22.2676 H   0  0  0  0  0  0  0  0  0  0  0  0
    8.1010   -2.8632   22.9628 C   0  0  0  0  0  0  0  0  0  0  0  0
    5.4463    0.6478   20.1669 C   0  0  0  0  0  0  0  0  0  0  0  0
    5.0296    0.6502   21.1728 H   0  0  0  0  0  0  0  0  0  0  0  0
    4.8328    1.3084   19.1072 C   0  0  0  0  0  0  0  0  0  0  0  0
    3.9055    1.8459   19.2520 H   0  0  0  0  0  0  0  0  0  0  0  0
  1  2  1  0
  2  3  2  0
  3  4  1  0
  4  5  1  0
  4  6  2  0
  6  7  1  0
  7  8  1  0
  7  9  1  0
  9 10  1  0
  9 11  1  0
 11 12  2  0
 12 13  1  0
 12 14  1  0
 14 15  2  0
 15 16  1  0
 15 17  1  0
 17 18  2  0
 18 19  1  0
 18 20  1  0
 20 21  1  0
 20 22  2  0
 22 23  1  0
 22 24  1  0
 24 25  1  0
 24 26  2  0
  6 27  1  0
 27 28  1  0
 27 29  2  0
 29 30  1  0
 29  2  1  0
 26 11  1  0
 26 17  1  0
M  END
>  <cnnaffinity>  (1) 
-5.29874

>  <filename>  (1) 
c1cncc(NNc2cncc3ccccc23)c1

$$$$
