
     RDKit          3D

 36 39  0  0  0  0  0  0  0  0999 V2000
    4.9855    1.7843   16.8328 H   0  0  0  0  0  0  0  0  0  0  0  0
    5.4676    1.3090   17.6851 C   0  0  0  0  0  0  0  0  0  0  0  0
    6.6377    0.6975   17.4383 N   0  0  0  0  0  0  0  0  0  0  0  0
    7.2479    0.1128   18.4713 C   0  0  0  0  0  0  0  0  0  0  0  0
    8.1956   -0.3794   18.2486 H   0  0  0  0  0  0  0  0  0  0  0  0
    6.7514    0.1055   19.7804 C   0  0  0  0  0  0  0  0  0  0  0  0
    7.5046   -0.5480   20.8435 C   0  0  0  0  0  0  0  0  0  0  0  0
    6.9966   -0.7095   22.0209 N   0  0  0  0  0  0  0  0  0  0  0  0
    7.8533   -1.4409   22.7750 N   0  0  0  0  0  0  0  0  0  0  0  0
    7.6436   -1.4784   24.1754 C   0  0  0  0  0  0  0  0  0  0  0  0
    7.5539   -0.2877   24.8730 C   0  0  0  0  0  0  0  0  0  0  0  0
    7.5275    0.6508   24.3223 H   0  0  0  0  0  0  0  0  0  0  0  0
    7.5259   -0.2926   26.2922 C   0  0  0  0  0  0  0  0  0  0  0  0
    7.4346    0.6436   26.8387 H   0  0  0  0  0  0  0  0  0  0  0  0
    7.6206   -1.4796   26.9761 C   0  0  0  0  0  0  0  0  0  0  0  0
    7.5989   -1.4850   28.0549 H   0  0  0  0  0  0  0  0  0  0  0  0
    7.7007   -2.7270   26.2908 C   0  0  0  0  0  0  0  0  0  0  0  0
    7.8497   -3.9598   26.9991 C   0  0  0  0  0  0  0  0  0  0  0  0
    8.0014   -3.9237   28.0774 H   0  0  0  0  0  0  0  0  0  0  0  0
    7.7858   -5.1593   26.3352 C   0  0  0  0  0  0  0  0  0  0  0  0
    7.9443   -6.0927   26.8769 H   0  0  0  0  0  0  0  0  0  0  0  0
    7.4992   -5.1883   24.9402 C   0  0  0  0  0  0  0  0  0  0  0  0
    7.3395   -6.1431   24.4510 H   0  0  0  0  0  0  0  0  0  0  0  0
    7.4114   -4.0195   24.2093 C   0  0  0  0  0  0  0  0  0  0  0  0
    7.1927   -4.0479   23.1425 H   0  0  0  0  0  0  0  0  0  0  0  0
    7.5941   -2.7504   24.8627 C   0  0  0  0  0  0  0  0  0  0  0  0
    9.1523   -1.6417   22.1366 C   0  0  0  0  0  0  0  0  0  0  0  0
    9.9555   -1.1071   22.6669 H   0  0  0  0  0  0  0  0  0  0  0  0
    9.4259   -2.7043   22.1478 H   0  0  0  0  0  0  0  0  0  0  0  0
    8.9054   -1.0852   20.7226 C   0  0  0  0  0  0  0  0  0  0  0  0
    9.6099   -0.2907   20.4483 H   0  0  0  0  0  0  0  0  0  0  0  0
    8.9848   -1.8503   19.9446 H   0  0  0  0  0  0  0  0  0  0  0  0
    5.5203    0.7386   20.0269 C   0  0  0  0  0  0  0  0  0  0  0  0
    5.1081    0.7445   21.0394 H   0  0  0  0  0  0  0  0  0  0  0  0
    4.8732    1.3451   18.9539 C   0  0  0  0  0  0  0  0  0  0  0  0
    3.9228    1.8506   19.0849 H   0  0  0  0  0  0  0  0  0  0  0  0
  1  2  1  0
  2  3  2  0
  3  4  1  0
  4  5  1  0
  4  6  2  0
  6  7  1  0
  7  8  2  0
  8  9  1  0
  9 10  1  0
 10 11  2  0
 11 12  1  0
 11 13  1  0
 13 14  1  0
 13 15  2  0
 15 16  1  0
 15 17  1  0
 17 18  2  0
 18 19  1  0
 18 20  1  0
 20 21  1  0
 20 22  2  0
 22 23  1  0
 22 24  1  0
 24 25  1  0
 24 26  2  0
  9 27  1  0
 27 28  1  0
 27 29  1  0
 27 30  1  0
 30 31  1  0
 30 32  1  0
  6 33  1  0
 33 34  1  0
 33 35  2  0
 35 36  1  0
 35  2  1  0
 30  7  1  0
 26 10  1  0
 26 17  1  0
M  END
>  <cnnaffinity>  (1) 
-5.14597

>  <filename>  (1) 
c1cncc(C2=NN(c3cccc4ccccc34)CC2)c1

$$$$
