
     RDKit          3D

 31 34  0  0  0  0  0  0  0  0999 V2000
    4.8096    1.2994   19.1064 C   0  0  0  0  0  0  0  0  0  0  0  0
    5.4082    1.2912   17.8432 C   0  0  0  0  0  0  0  0  0  0  0  0
    6.5770    0.6733   17.5954 N   0  0  0  0  0  0  0  0  0  0  0  0
    7.1761    0.0367   18.6031 C   0  0  0  0  0  0  0  0  0  0  0  0
    6.6495   -0.0160   19.9037 C   0  0  0  0  0  0  0  0  0  0  0  0
    7.3622   -0.7035   20.9226 N   0  0  0  0  0  0  0  0  0  0  0  0
    7.8555   -1.9384   20.7099 N   0  0  0  0  0  0  0  0  0  0  0  0
    8.3588   -2.3151   21.8756 C   0  0  0  0  0  0  0  0  0  0  0  0
    8.2182   -1.3283   22.8593 C   0  0  0  0  0  0  0  0  0  0  0  0
    7.5915   -0.2784   22.2128 C   0  0  0  0  0  0  0  0  0  0  0  0
    7.3209    1.0542   22.6888 C   0  0  0  0  0  0  0  0  0  0  0  0
    7.4616    2.2527   22.0336 C   0  0  0  0  0  0  0  0  0  0  0  0
    7.1693    3.2749   22.9015 N   0  0  0  0  0  0  0  0  0  0  0  0
    6.8324    2.7499   24.1297 C   0  0  0  0  0  0  0  0  0  0  0  0
    6.4492    3.3376   25.3555 C   0  0  0  0  0  0  0  0  0  0  0  0
    6.1575    2.6064   26.4258 N   0  0  0  0  0  0  0  0  0  0  0  0
    6.2346    1.2545   26.3158 C   0  0  0  0  0  0  0  0  0  0  0  0
    6.5959    0.5780   25.1606 C   0  0  0  0  0  0  0  0  0  0  0  0
    6.9171    1.3528   24.0318 C   0  0  0  0  0  0  0  0  0  0  0  0
    6.6184   -0.5062   25.1287 H   0  0  0  0  0  0  0  0  0  0  0  0
    5.9833    0.7017   27.2144 H   0  0  0  0  0  0  0  0  0  0  0  0
    6.3866    4.4219   25.4306 H   0  0  0  0  0  0  0  0  0  0  0  0
    7.1977    4.2539   22.6656 H   0  0  0  0  0  0  0  0  0  0  0  0
    7.7624    2.4179   20.9986 H   0  0  0  0  0  0  0  0  0  0  0  0
    8.5777   -1.3254   23.8792 H   0  0  0  0  0  0  0  0  0  0  0  0
    8.8239   -3.2855   21.9733 H   0  0  0  0  0  0  0  0  0  0  0  0
    5.4314    0.6332   20.1638 C   0  0  0  0  0  0  0  0  0  0  0  0
    4.9999    0.6325   21.1673 H   0  0  0  0  0  0  0  0  0  0  0  0
    8.1242   -0.4416   18.3781 H   0  0  0  0  0  0  0  0  0  0  0  0
    4.9264    1.7808   16.9983 H   0  0  0  0  0  0  0  0  0  0  0  0
    3.8806    1.8369   19.2590 H   0  0  0  0  0  0  0  0  0  0  0  0
  1  2  2  0
  2  3  1  0
  3  4  2  0
  4  5  1  0
  5  6  1  0
  6  7  1  0
  7  8  2  0
  8  9  1  0
  9 10  2  0
 10 11  1  0
 11 12  2  0
 12 13  1  0
 13 14  1  0
 14 15  2  0
 15 16  1  0
 16 17  2  0
 17 18  1  0
 18 19  2  0
 18 20  1  0
 17 21  1  0
 15 22  1  0
 13 23  1  0
 12 24  1  0
  9 25  1  0
  8 26  1  0
  5 27  2  0
 27 28  1  0
  4 29  1  0
  2 30  1  0
  1 31  1  0
 27  1  1  0
 10  6  1  0
 19 11  1  0
 19 14  1  0
M  END
>  <cnnaffinity>  (1) 
-5.42815

>  <filename>  (1) 
c1cncc(-n2nccc2-c2c[nH]c3cnccc23)c1

$$$$
