
     RDKit          3D

 29 31  0  0  0  0  0  0  0  0999 V2000
    4.8092    1.3098   19.1051 C   0  0  0  0  0  0  0  0  0  0  0  0
    5.4043    1.2907   17.8403 C   0  0  0  0  0  0  0  0  0  0  0  0
    6.5684    0.6750   17.5857 N   0  0  0  0  0  0  0  0  0  0  0  0
    7.1761    0.0681   18.6141 C   0  0  0  0  0  0  0  0  0  0  0  0
    6.6584    0.0020   19.9165 C   0  0  0  0  0  0  0  0  0  0  0  0
    7.4175   -0.7061   21.0110 C   0  0  0  0  0  0  0  0  0  0  0  0
    8.2945    0.2599   21.5830 O   0  0  0  0  0  0  0  0  0  0  0  0
    9.0948   -0.0407   22.6252 C   0  0  0  0  0  0  0  0  0  0  0  0
    9.1788   -1.2956   23.2162 C   0  0  0  0  0  0  0  0  0  0  0  0
   10.0707   -1.4950   24.2969 C   0  0  0  0  0  0  0  0  0  0  0  0
   10.8480   -0.5569   24.7869 N   0  0  0  0  0  0  0  0  0  0  0  0
   10.7719    0.6833   24.2105 C   0  0  0  0  0  0  0  0  0  0  0  0
   11.6459    1.6977   24.6971 C   0  0  0  0  0  0  0  0  0  0  0  0
   11.5581    2.9720   24.1852 C   0  0  0  0  0  0  0  0  0  0  0  0
   10.6624    3.2287   23.1079 C   0  0  0  0  0  0  0  0  0  0  0  0
    9.8761    2.3106   22.5833 N   0  0  0  0  0  0  0  0  0  0  0  0
    9.9105    1.0483   23.1260 C   0  0  0  0  0  0  0  0  0  0  0  0
   10.6188    4.2225   22.6638 H   0  0  0  0  0  0  0  0  0  0  0  0
   12.1585    3.7913   24.5581 H   0  0  0  0  0  0  0  0  0  0  0  0
   12.3821    1.3486   25.4062 H   0  0  0  0  0  0  0  0  0  0  0  0
   10.1418   -2.4820   24.7603 H   0  0  0  0  0  0  0  0  0  0  0  0
    8.5802   -2.1279   22.8742 H   0  0  0  0  0  0  0  0  0  0  0  0
    8.0098   -1.5455   20.6180 H   0  0  0  0  0  0  0  0  0  0  0  0
    6.7305   -1.0869   21.7811 H   0  0  0  0  0  0  0  0  0  0  0  0
    5.4448    0.6543   20.1622 C   0  0  0  0  0  0  0  0  0  0  0  0
    5.0069    0.6469   21.1630 H   0  0  0  0  0  0  0  0  0  0  0  0
    8.1239   -0.4119   18.3712 H   0  0  0  0  0  0  0  0  0  0  0  0
    4.9349    1.7873   16.9913 H   0  0  0  0  0  0  0  0  0  0  0  0
    3.8768    1.8397   19.2459 H   0  0  0  0  0  0  0  0  0  0  0  0
  1  2  2  0
  2  3  1  0
  3  4  2  0
  4  5  1  0
  5  6  1  0
  6  7  1  0
  7  8  1  0
  8  9  2  0
  9 10  1  0
 10 11  2  0
 11 12  1  0
 12 13  2  0
 13 14  1  0
 14 15  2  0
 15 16  1  0
 16 17  2  0
 15 18  1  0
 14 19  1  0
 13 20  1  0
 10 21  1  0
  9 22  1  0
  6 23  1  0
  6 24  1  0
  5 25  2  0
 25 26  1  0
  4 27  1  0
  2 28  1  0
  1 29  1  0
 25  1  1  0
 17  8  1  0
 17 12  1  0
M  END
>  <cnnaffinity>  (1) 
-5.044

>  <filename>  (1) 
c1cncc(COc2ccnc3cccnc23)c1

$$$$
