
     RDKit          3D

 32 35  0  0  0  0  0  0  0  0999 V2000
    4.9246    1.7821   16.9951 H   0  0  0  0  0  0  0  0  0  0  0  0
    5.4085    1.2921   17.8402 C   0  0  0  0  0  0  0  0  0  0  0  0
    6.5763    0.6744   17.5927 N   0  0  0  0  0  0  0  0  0  0  0  0
    7.1787    0.0491   18.6059 C   0  0  0  0  0  0  0  0  0  0  0  0
    8.1246   -0.4399   18.3851 H   0  0  0  0  0  0  0  0  0  0  0  0
    6.6475    0.0034   19.9054 C   0  0  0  0  0  0  0  0  0  0  0  0
    7.3469   -0.6716   20.9468 N   0  0  0  0  0  0  0  0  0  0  0  0
    7.8304   -1.9138   20.7465 N   0  0  0  0  0  0  0  0  0  0  0  0
    8.3140   -2.3479   21.8634 N   0  0  0  0  0  0  0  0  0  0  0  0
    8.1443   -1.3981   22.8140 C   0  0  0  0  0  0  0  0  0  0  0  0
    8.4757   -1.5207   23.8322 H   0  0  0  0  0  0  0  0  0  0  0  0
    7.5333   -0.3140   22.2523 C   0  0  0  0  0  0  0  0  0  0  0  0
    7.2568    0.9804   22.8808 C   0  0  0  0  0  0  0  0  0  0  0  0
    6.9044    0.9438   24.1510 N   0  0  0  0  0  0  0  0  0  0  0  0
    6.6316    2.1401   24.7648 C   0  0  0  0  0  0  0  0  0  0  0  0
    6.2239    2.1355   26.1360 C   0  0  0  0  0  0  0  0  0  0  0  0
    6.1372    1.1670   26.6232 H   0  0  0  0  0  0  0  0  0  0  0  0
    5.9630    3.3194   26.7940 C   0  0  0  0  0  0  0  0  0  0  0  0
    5.6528    3.3172   27.8390 H   0  0  0  0  0  0  0  0  0  0  0  0
    6.0929    4.5735   26.1239 C   0  0  0  0  0  0  0  0  0  0  0  0
    5.8813    5.4998   26.6594 H   0  0  0  0  0  0  0  0  0  0  0  0
    6.4837    4.6160   24.8046 C   0  0  0  0  0  0  0  0  0  0  0  0
    6.5919    5.5618   24.2709 H   0  0  0  0  0  0  0  0  0  0  0  0
    6.7617    3.4075   24.0961 C   0  0  0  0  0  0  0  0  0  0  0  0
    7.1889    3.4011   22.7371 C   0  0  0  0  0  0  0  0  0  0  0  0
    7.3009    4.3497   22.2003 H   0  0  0  0  0  0  0  0  0  0  0  0
    7.4408    2.1941   22.1360 C   0  0  0  0  0  0  0  0  0  0  0  0
    7.7686    2.1306   21.1022 H   0  0  0  0  0  0  0  0  0  0  0  0
    5.4224    0.6309   20.1592 C   0  0  0  0  0  0  0  0  0  0  0  0
    4.9993    0.6319   21.1674 H   0  0  0  0  0  0  0  0  0  0  0  0
    4.8061    1.3010   19.1023 C   0  0  0  0  0  0  0  0  0  0  0  0
    3.8776    1.8391   19.2578 H   0  0  0  0  0  0  0  0  0  0  0  0
  1  2  1  0
  2  3  2  0
  3  4  1  0
  4  5  1  0
  4  6  2  0
  6  7  1  0
  7  8  1  0
  8  9  2  0
  9 10  1  0
 10 11  1  0
 10 12  2  0
 12 13  1  0
 13 14  2  0
 14 15  1  0
 15 16  2  0
 16 17  1  0
 16 18  1  0
 18 19  1  0
 18 20  2  0
 20 21  1  0
 20 22  1  0
 22 23  1  0
 22 24  2  0
 24 25  1  0
 25 26  1  0
 25 27  2  0
 27 28  1  0
  6 29  1  0
 29 30  1  0
 29 31  2  0
 31 32  1  0
 31  2  1  0
 12  7  1  0
 27 13  1  0
 24 15  1  0
M  END
>  <cnnaffinity>  (1) 
-5.26248

>  <filename>  (1) 
c1cncc(-n2nncc2-c2ccc3ccccc3n2)c1

$$$$
