
     RDKit          3D

 50 56  0  0  0  0  0  0  0  0999 V2000
    4.9308    1.3856   18.8313 C   0  0  0  0  0  0  0  0  0  0  0  0
    5.5138    1.2122   17.5736 C   0  0  0  0  0  0  0  0  0  0  0  0
    6.5440    0.3822   17.3474 N   0  0  0  0  0  0  0  0  0  0  0  0
    7.0325   -0.2904   18.3977 C   0  0  0  0  0  0  0  0  0  0  0  0
    6.5565   -0.1662   19.7187 C   0  0  0  0  0  0  0  0  0  0  0  0
    7.2115   -0.8769   20.9131 C   0  0  0  0  0  0  0  0  0  0  0  0
    8.0012    0.0156   21.8433 C   0  0  0  0  0  0  0  0  0  0  0  0
    9.3126    0.0889   21.7536 N   0  0  0  0  0  0  0  0  0  0  0  0
    9.6347    1.0781   22.6251 N   0  0  0  0  0  0  0  0  0  0  0  0
   10.9402    1.6650   22.6172 C   0  0  0  0  0  0  0  0  0  0  0  0
   12.0876    0.8836   22.8205 C   0  0  0  0  0  0  0  0  0  0  0  0
   13.3566    1.4867   22.8603 C   0  0  0  0  0  0  0  0  0  0  0  0
   13.4286    2.8586   22.6476 C   0  0  0  0  0  0  0  0  0  0  0  0
   14.5717    3.5979   22.6272 O   0  0  0  0  0  0  0  0  0  0  0  0
   14.1627    4.9671   22.7308 C   0  0  0  0  0  0  0  0  0  0  0  0
   12.7729    5.0330   22.0822 C   0  0  0  0  0  0  0  0  0  0  0  0
   12.3036    3.6308   22.3517 C   0  0  0  0  0  0  0  0  0  0  0  0
   11.0534    3.0444   22.3573 C   0  0  0  0  0  0  0  0  0  0  0  0
   10.1586    3.6214   22.1591 H   0  0  0  0  0  0  0  0  0  0  0  0
   12.1411    5.8035   22.5292 H   0  0  0  0  0  0  0  0  0  0  0  0
   12.8450    5.2144   21.0031 H   0  0  0  0  0  0  0  0  0  0  0  0
   14.9310    5.5870   22.2658 H   0  0  0  0  0  0  0  0  0  0  0  0
   14.0951    5.2271   23.7949 H   0  0  0  0  0  0  0  0  0  0  0  0
   14.2689    0.9226   23.0206 H   0  0  0  0  0  0  0  0  0  0  0  0
   11.9883   -0.1935   22.9207 H   0  0  0  0  0  0  0  0  0  0  0  0
    8.4837    1.5550   23.2115 C   0  0  0  0  0  0  0  0  0  0  0  0
    8.4336    2.7364   24.1114 C   0  0  0  0  0  0  0  0  0  0  0  0
    7.2285    3.7052   24.0369 C   0  0  0  0  0  0  0  0  0  0  0  0
    6.1148    3.9247   23.0800 C   0  0  0  0  0  0  0  0  0  0  0  0
    6.9950    5.0860   23.5454 C   0  0  0  0  0  0  0  0  0  0  0  0
    7.7431    5.4738   22.8575 H   0  0  0  0  0  0  0  0  0  0  0  0
    6.5746    5.8106   24.2432 H   0  0  0  0  0  0  0  0  0  0  0  0
    6.2745    3.5044   22.0866 H   0  0  0  0  0  0  0  0  0  0  0  0
    5.1039    3.8466   23.4765 H   0  0  0  0  0  0  0  0  0  0  0  0
    7.5004    3.0291   25.3077 C   0  0  0  0  0  0  0  0  0  0  0  0
    7.7607    3.5272   26.6844 C   0  0  0  0  0  0  0  0  0  0  0  0
    7.0476    2.1964   26.4563 C   0  0  0  0  0  0  0  0  0  0  0  0
    5.9847    2.1294   26.6882 H   0  0  0  0  0  0  0  0  0  0  0  0
    7.6195    1.2796   26.5899 H   0  0  0  0  0  0  0  0  0  0  0  0
    7.1496    4.3703   27.0063 H   0  0  0  0  0  0  0  0  0  0  0  0
    8.7921    3.5455   27.0247 H   0  0  0  0  0  0  0  0  0  0  0  0
    9.4144    3.1865   24.2688 H   0  0  0  0  0  0  0  0  0  0  0  0
    7.4480    0.8642   22.7488 N   0  0  0  0  0  0  0  0  0  0  0  0
    7.8989   -1.6546   20.5597 H   0  0  0  0  0  0  0  0  0  0  0  0
    6.4420   -1.3592   21.5257 H   0  0  0  0  0  0  0  0  0  0  0  0
    5.4591    0.6853   19.9199 C   0  0  0  0  0  0  0  0  0  0  0  0
    5.0353    0.7977   20.9203 H   0  0  0  0  0  0  0  0  0  0  0  0
    7.8645   -0.9639   18.1853 H   0  0  0  0  0  0  0  0  0  0  0  0
    5.1399    1.7594   16.7095 H   0  0  0  0  0  0  0  0  0  0  0  0
    4.0904    2.0630   18.9406 H   0  0  0  0  0  0  0  0  0  0  0  0
  1  2  2  0
  2  3  1  0
  3  4  2  0
  4  5  1  0
  5  6  1  0
  6  7  1  0
  7  8  2  0
  8  9  1  0
  9 10  1  0
 10 11  2  0
 11 12  1  0
 12 13  2  0
 13 14  1  0
 14 15  1  0
 15 16  1  0
 16 17  1  0
 17 18  2  0
 18 19  1  0
 16 20  1  0
 16 21  1  0
 15 22  1  0
 15 23  1  0
 12 24  1  0
 11 25  1  0
  9 26  1  0
 26 27  1  0
 27 28  1  0
 28 29  1  0
 29 30  1  0
 30 31  1  0
 30 32  1  0
 29 33  1  0
 29 34  1  0
 28 35  1  0
 35 36  1  0
 36 37  1  0
 37 38  1  0
 37 39  1  0
 36 40  1  0
 36 41  1  0
 27 42  1  0
 26 43  2  0
  6 44  1  0
  6 45  1  0
  5 46  2  0
 46 47  1  0
  4 48  1  0
  2 49  1  0
  1 50  1  0
 46  1  1  0
 43  7  1  0
 18 10  1  0
 35 27  1  0
 17 13  1  0
 30 28  1  0
 37 35  1  0
M  END
>  <cnnaffinity>  (1) 
-6.53114

>  <filename>  (1) 
c1cncc(Cc2nc(C3C4(CC4)C34CC4)n(-c3ccc4c(c3)CCO4)n2)c1

$$$$
