
     RDKit          3D

 27 29  0  0  0  0  0  0  0  0999 V2000
    4.9259    1.7818   16.9967 H   0  0  0  0  0  0  0  0  0  0  0  0
    5.4040    1.2917   17.8407 C   0  0  0  0  0  0  0  0  0  0  0  0
    6.5686    0.6752   17.5816 N   0  0  0  0  0  0  0  0  0  0  0  0
    7.1671    0.0416   18.5935 C   0  0  0  0  0  0  0  0  0  0  0  0
    8.1192   -0.4369   18.3742 H   0  0  0  0  0  0  0  0  0  0  0  0
    6.6465   -0.0035   19.8952 C   0  0  0  0  0  0  0  0  0  0  0  0
    7.3706   -0.7059   20.9403 C   0  0  0  0  0  0  0  0  0  0  0  0
    7.9816   -1.9285   20.7644 N   0  0  0  0  0  0  0  0  0  0  0  0
    8.4738   -2.2452   21.9315 C   0  0  0  0  0  0  0  0  0  0  0  0
    9.0108   -3.1577   22.1505 H   0  0  0  0  0  0  0  0  0  0  0  0
    8.2424   -1.2745   22.8694 N   0  0  0  0  0  0  0  0  0  0  0  0
    8.5452   -1.2517   23.8224 H   0  0  0  0  0  0  0  0  0  0  0  0
    7.5528   -0.2777   22.2434 C   0  0  0  0  0  0  0  0  0  0  0  0
    7.2078    0.8812   22.8851 N   0  0  0  0  0  0  0  0  0  0  0  0
    6.8528    1.6278   22.3081 H   0  0  0  0  0  0  0  0  0  0  0  0
    7.4260    1.1633   24.2564 C   0  0  0  0  0  0  0  0  0  0  0  0
    6.7892    0.6081   24.9465 H   0  0  0  0  0  0  0  0  0  0  0  0
    7.7602    2.5790   24.6120 C   0  0  0  0  0  0  0  0  0  0  0  0
    7.8058    3.3180   23.8157 H   0  0  0  0  0  0  0  0  0  0  0  0
    7.3842    2.9878   25.5464 H   0  0  0  0  0  0  0  0  0  0  0  0
    8.8230    1.5164   24.6759 C   0  0  0  0  0  0  0  0  0  0  0  0
    9.1739    1.1887   25.6506 H   0  0  0  0  0  0  0  0  0  0  0  0
    9.5676    1.5167   23.8851 H   0  0  0  0  0  0  0  0  0  0  0  0
    5.4333    0.6595   20.1574 C   0  0  0  0  0  0  0  0  0  0  0  0
    5.0057    0.6312   21.1633 H   0  0  0  0  0  0  0  0  0  0  0  0
    4.8025    1.3119   19.1040 C   0  0  0  0  0  0  0  0  0  0  0  0
    3.8723    1.8430   19.2546 H   0  0  0  0  0  0  0  0  0  0  0  0
  1  2  1  0
  2  3  2  0
  3  4  1  0
  4  5  1  0
  4  6  2  0
  6  7  1  0
  7  8  1  0
  8  9  2  0
  9 10  1  0
  9 11  1  0
 11 12  1  0
 11 13  1  0
 13 14  1  0
 14 15  1  0
 14 16  1  0
 16 17  1  0
 16 18  1  0
 18 19  1  0
 18 20  1  0
 18 21  1  0
 21 22  1  0
 21 23  1  0
  6 24  1  0
 24 25  1  0
 24 26  2  0
 26 27  1  0
 26  2  1  0
 13  7  2  0
 21 16  1  0
M  END
>  <cnnaffinity>  (1) 
-4.60229

>  <filename>  (1) 
c1cncc(-c2nc[nH]c2NC2CC2)c1

$$$$
