
     RDKit          3D

 34 37  0  0  0  0  0  0  0  0999 V2000
    4.9310    1.8158   16.9678 H   0  0  0  0  0  0  0  0  0  0  0  0
    5.3982    1.3073   17.8090 C   0  0  0  0  0  0  0  0  0  0  0  0
    6.5604    0.6846   17.5520 N   0  0  0  0  0  0  0  0  0  0  0  0
    7.1582    0.0628   18.5773 C   0  0  0  0  0  0  0  0  0  0  0  0
    8.1022   -0.4311   18.3454 H   0  0  0  0  0  0  0  0  0  0  0  0
    6.6383   -0.0047   19.8886 C   0  0  0  0  0  0  0  0  0  0  0  0
    7.3681   -0.7164   20.9778 C   0  0  0  0  0  0  0  0  0  0  0  0
    6.7217   -1.5688   21.8967 C   0  0  0  0  0  0  0  0  0  0  0  0
    5.6473   -1.7475   21.8204 H   0  0  0  0  0  0  0  0  0  0  0  0
    7.3625   -2.2337   22.8694 N   0  0  0  0  0  0  0  0  0  0  0  0
    8.6896   -2.0591   22.9852 C   0  0  0  0  0  0  0  0  0  0  0  0
    9.1701   -2.6085   23.7964 H   0  0  0  0  0  0  0  0  0  0  0  0
    9.4404   -1.2227   22.1401 C   0  0  0  0  0  0  0  0  0  0  0  0
   10.9114   -1.0618   22.2497 C   0  0  0  0  0  0  0  0  0  0  0  0
   11.7502   -2.1689   22.1380 C   0  0  0  0  0  0  0  0  0  0  0  0
   11.2869   -3.1451   22.0867 H   0  0  0  0  0  0  0  0  0  0  0  0
   13.1556   -2.0253   22.1077 C   0  0  0  0  0  0  0  0  0  0  0  0
   13.7863   -2.8982   21.9735 H   0  0  0  0  0  0  0  0  0  0  0  0
   13.7558   -0.7846   22.3035 C   0  0  0  0  0  0  0  0  0  0  0  0
   14.8357   -0.6762   22.3314 H   0  0  0  0  0  0  0  0  0  0  0  0
   12.9089    0.3246   22.4551 C   0  0  0  0  0  0  0  0  0  0  0  0
   11.4982    0.2264   22.3650 C   0  0  0  0  0  0  0  0  0  0  0  0
   11.0032    1.5815   22.3761 C   0  0  0  0  0  0  0  0  0  0  0  0
    9.9691    1.8677   22.2424 H   0  0  0  0  0  0  0  0  0  0  0  0
   12.0765    2.4141   22.5097 C   0  0  0  0  0  0  0  0  0  0  0  0
   12.1397    3.4946   22.4630 H   0  0  0  0  0  0  0  0  0  0  0  0
   13.2241    1.6515   22.6054 N   0  0  0  0  0  0  0  0  0  0  0  0
   14.1736    1.9849   22.5973 H   0  0  0  0  0  0  0  0  0  0  0  0
    8.7494   -0.5610   21.1213 C   0  0  0  0  0  0  0  0  0  0  0  0
    9.3024    0.0846   20.4406 H   0  0  0  0  0  0  0  0  0  0  0  0
    5.4200    0.6495   20.1250 C   0  0  0  0  0  0  0  0  0  0  0  0
    4.9950    0.6557   21.1296 H   0  0  0  0  0  0  0  0  0  0  0  0
    4.7951    1.3193   19.0709 C   0  0  0  0  0  0  0  0  0  0  0  0
    3.8624    1.8513   19.2159 H   0  0  0  0  0  0  0  0  0  0  0  0
  1  2  1  0
  2  3  2  0
  3  4  1  0
  4  5  1  0
  4  6  2  0
  6  7  1  0
  7  8  2  0
  8  9  1  0
  8 10  1  0
 10 11  2  0
 11 12  1  0
 11 13  1  0
 13 14  1  0
 14 15  2  0
 15 16  1  0
 15 17  1  0
 17 18  1  0
 17 19  2  0
 19 20  1  0
 19 21  1  0
 21 22  2  0
 22 23  1  0
 23 24  1  0
 23 25  2  0
 25 26  1  0
 25 27  1  0
 27 28  1  0
 13 29  2  0
 29 30  1  0
  6 31  1  0
 31 32  1  0
 31 33  2  0
 33 34  1  0
 33  2  1  0
 29  7  1  0
 22 14  1  0
 27 21  1  0
M  END
>  <cnnaffinity>  (1) 
-6.2459

>  <filename>  (1) 
c1cncc(-c2cncc(-c3cccc4[nH]ccc34)c2)c1

$$$$
