
     RDKit          3D

 39 43  0  0  0  0  0  0  0  0999 V2000
    4.8041    1.2998   19.0386 C   0  0  0  0  0  0  0  0  0  0  0  0
    5.3925    1.3039   17.7716 C   0  0  0  0  0  0  0  0  0  0  0  0
    6.5303    0.6542   17.4820 N   0  0  0  0  0  0  0  0  0  0  0  0
    7.1284    0.0024   18.4878 C   0  0  0  0  0  0  0  0  0  0  0  0
    6.6430   -0.0417   19.8076 C   0  0  0  0  0  0  0  0  0  0  0  0
    7.4306   -0.6667   20.9503 C   0  0  0  0  0  0  0  0  0  0  0  0
    8.3485    0.2983   21.6506 C   0  0  0  0  0  0  0  0  0  0  0  0
    9.5527    0.5689   21.1831 N   0  0  0  0  0  0  0  0  0  0  0  0
   10.0303    1.4664   22.0784 N   0  0  0  0  0  0  0  0  0  0  0  0
   11.4117    1.8925   22.0591 C   0  0  0  0  0  0  0  0  0  0  0  0
   12.1783    1.8733   23.3542 C   0  0  0  0  0  0  0  0  0  0  0  0
   12.4748    0.8590   22.2919 C   0  0  0  0  0  0  0  0  0  0  0  0
   13.4187    0.9659   21.7725 H   0  0  0  0  0  0  0  0  0  0  0  0
   12.1212   -0.1614   22.4212 H   0  0  0  0  0  0  0  0  0  0  0  0
   12.8988    2.6703   23.5288 H   0  0  0  0  0  0  0  0  0  0  0  0
   11.6226    1.5235   24.2235 H   0  0  0  0  0  0  0  0  0  0  0  0
   11.5890    2.7058   21.3643 H   0  0  0  0  0  0  0  0  0  0  0  0
    9.0742    1.7365   23.0052 C   0  0  0  0  0  0  0  0  0  0  0  0
    9.2087    2.7512   24.0845 C   0  0  0  0  0  0  0  0  0  0  0  0
    8.6860    2.5730   25.3840 C   0  0  0  0  0  0  0  0  0  0  0  0
    8.7620    3.5998   26.3475 C   0  0  0  0  0  0  0  0  0  0  0  0
    9.2718    4.8264   26.1262 N   0  0  0  0  0  0  0  0  0  0  0  0
    9.7152    4.9783   24.8836 C   0  0  0  0  0  0  0  0  0  0  0  0
    9.7806    4.0223   23.8428 C   0  0  0  0  0  0  0  0  0  0  0  0
   10.3018    4.6089   22.7013 N   0  0  0  0  0  0  0  0  0  0  0  0
   10.4811    5.8567   23.0284 C   0  0  0  0  0  0  0  0  0  0  0  0
   10.1717    6.1361   24.3258 N   0  0  0  0  0  0  0  0  0  0  0  0
   10.2458    6.9929   24.8428 H   0  0  0  0  0  0  0  0  0  0  0  0
   10.7748    6.6401   22.3452 H   0  0  0  0  0  0  0  0  0  0  0  0
    8.3730    3.4257   27.3463 H   0  0  0  0  0  0  0  0  0  0  0  0
    8.1857    1.6496   25.6534 H   0  0  0  0  0  0  0  0  0  0  0  0
    8.0183    0.9618   22.7862 N   0  0  0  0  0  0  0  0  0  0  0  0
    8.0261   -1.5105   20.5891 H   0  0  0  0  0  0  0  0  0  0  0  0
    6.7433   -1.0620   21.7026 H   0  0  0  0  0  0  0  0  0  0  0  0
    5.4386    0.6182   20.0765 C   0  0  0  0  0  0  0  0  0  0  0  0
    5.0203    0.6194   21.0866 H   0  0  0  0  0  0  0  0  0  0  0  0
    8.0643   -0.5004   18.2390 H   0  0  0  0  0  0  0  0  0  0  0  0
    4.9307    1.8550   16.9542 H   0  0  0  0  0  0  0  0  0  0  0  0
    3.8847    1.8459   19.2084 H   0  0  0  0  0  0  0  0  0  0  0  0
  1  2  2  0
  2  3  1  0
  3  4  2  0
  4  5  1  0
  5  6  1  0
  6  7  1  0
  7  8  2  0
  8  9  1  0
  9 10  1  0
 10 11  1  0
 11 12  1  0
 12 13  1  0
 12 14  1  0
 11 15  1  0
 11 16  1  0
 10 17  1  0
  9 18  1  0
 18 19  1  0
 19 20  2  0
 20 21  1  0
 21 22  2  0
 22 23  1  0
 23 24  2  0
 24 25  1  0
 25 26  2  0
 26 27  1  0
 27 28  1  0
 26 29  1  0
 21 30  1  0
 20 31  1  0
 18 32  2  0
  6 33  1  0
  6 34  1  0
  5 35  2  0
 35 36  1  0
  4 37  1  0
  2 38  1  0
  1 39  1  0
 35  1  1  0
 32  7  1  0
 12 10  1  0
 24 19  1  0
 27 23  1  0
M  END
>  <cnnaffinity>  (1) 
-5.84142

>  <filename>  (1) 
c1cncc(Cc2nc(-c3ccnc4[nH]cnc34)n(C3CC3)n2)c1

$$$$
