
     RDKit          3D

 34 37  0  0  0  0  0  0  0  0999 V2000
    4.9112    1.8065   16.9746 H   0  0  0  0  0  0  0  0  0  0  0  0
    5.3844    1.3070   17.8177 C   0  0  0  0  0  0  0  0  0  0  0  0
    6.5474    0.6898   17.5527 N   0  0  0  0  0  0  0  0  0  0  0  0
    7.1581    0.0671   18.5661 C   0  0  0  0  0  0  0  0  0  0  0  0
    8.1142   -0.3973   18.3250 H   0  0  0  0  0  0  0  0  0  0  0  0
    6.6551    0.0164   19.8827 C   0  0  0  0  0  0  0  0  0  0  0  0
    7.3771   -0.6565   20.9729 C   0  0  0  0  0  0  0  0  0  0  0  0
    7.5189   -0.3223   22.3151 C   0  0  0  0  0  0  0  0  0  0  0  0
    7.0348    0.8376   22.9248 N   0  0  0  0  0  0  0  0  0  0  0  0
    6.9894    1.6563   22.3373 H   0  0  0  0  0  0  0  0  0  0  0  0
    6.8082    1.0191   24.2875 C   0  0  0  0  0  0  0  0  0  0  0  0
    7.0257    2.3036   24.8555 C   0  0  0  0  0  0  0  0  0  0  0  0
    7.3804    3.1078   24.2160 H   0  0  0  0  0  0  0  0  0  0  0  0
    6.8148    2.5194   26.2122 C   0  0  0  0  0  0  0  0  0  0  0  0
    6.9866    3.4960   26.6566 H   0  0  0  0  0  0  0  0  0  0  0  0
    6.3631    1.4555   27.0267 C   0  0  0  0  0  0  0  0  0  0  0  0
    6.0342    1.3080   28.4191 C   0  0  0  0  0  0  0  0  0  0  0  0
    6.0853    2.0839   29.1715 H   0  0  0  0  0  0  0  0  0  0  0  0
    5.6441    0.0141   28.6081 C   0  0  0  0  0  0  0  0  0  0  0  0
    5.3161   -0.4989   29.5043 H   0  0  0  0  0  0  0  0  0  0  0  0
    5.7112   -0.6608   27.4048 N   0  0  0  0  0  0  0  0  0  0  0  0
    5.4834   -1.6240   27.2331 H   0  0  0  0  0  0  0  0  0  0  0  0
    6.1404    0.1926   26.4260 C   0  0  0  0  0  0  0  0  0  0  0  0
    6.3482   -0.0439   25.0593 C   0  0  0  0  0  0  0  0  0  0  0  0
    6.1833   -0.9998   24.5755 H   0  0  0  0  0  0  0  0  0  0  0  0
    8.2949   -1.3773   22.8671 C   0  0  0  0  0  0  0  0  0  0  0  0
    8.6388   -1.4797   23.8903 H   0  0  0  0  0  0  0  0  0  0  0  0
    8.6084   -2.2895   21.9516 N   0  0  0  0  0  0  0  0  0  0  0  0
    8.0522   -1.8276   20.8222 N   0  0  0  0  0  0  0  0  0  0  0  0
    8.1295   -2.3693   19.9709 H   0  0  0  0  0  0  0  0  0  0  0  0
    5.4343    0.6625   20.1358 C   0  0  0  0  0  0  0  0  0  0  0  0
    5.0178    0.6283   21.1432 H   0  0  0  0  0  0  0  0  0  0  0  0
    4.7918    1.3194   19.0854 C   0  0  0  0  0  0  0  0  0  0  0  0
    3.8609    1.8509   19.2373 H   0  0  0  0  0  0  0  0  0  0  0  0
  1  2  1  0
  2  3  2  0
  3  4  1  0
  4  5  1  0
  4  6  2  0
  6  7  1  0
  7  8  2  0
  8  9  1  0
  9 10  1  0
  9 11  1  0
 11 12  2  0
 12 13  1  0
 12 14  1  0
 14 15  1  0
 14 16  2  0
 16 17  1  0
 17 18  1  0
 17 19  2  0
 19 20  1  0
 19 21  1  0
 21 22  1  0
 21 23  1  0
 23 24  2  0
 24 25  1  0
  8 26  1  0
 26 27  1  0
 26 28  2  0
 28 29  1  0
 29 30  1  0
  6 31  1  0
 31 32  1  0
 31 33  2  0
 33 34  1  0
 33  2  1  0
 29  7  1  0
 24 11  1  0
 23 16  1  0
M  END
>  <cnnaffinity>  (1) 
-5.52046

>  <filename>  (1) 
c1cncc(-c2[nH]ncc2Nc2ccc3cc[nH]c3c2)c1

$$$$
