
     RDKit          3D

 48 54  0  0  0  0  0  0  0  0999 V2000
    4.7466    1.3885   18.6322 C   0  0  0  0  0  0  0  0  0  0  0  0
    5.3615    1.2063   17.3917 C   0  0  0  0  0  0  0  0  0  0  0  0
    6.4727    0.4786   17.2126 N   0  0  0  0  0  0  0  0  0  0  0  0
    7.0151   -0.0817   18.3008 C   0  0  0  0  0  0  0  0  0  0  0  0
    6.5029    0.0524   19.6041 C   0  0  0  0  0  0  0  0  0  0  0  0
    7.2503   -0.5136   20.8087 C   0  0  0  0  0  0  0  0  0  0  0  0
    8.2703    0.4238   21.3988 C   0  0  0  0  0  0  0  0  0  0  0  0
    7.9401    1.2150   22.3933 N   0  0  0  0  0  0  0  0  0  0  0  0
    9.0793    1.9104   22.6384 N   0  0  0  0  0  0  0  0  0  0  0  0
    9.0151    3.0050   23.5619 C   0  0  0  0  0  0  0  0  0  0  0  0
    8.7322    2.7233   24.9227 C   0  0  0  0  0  0  0  0  0  0  0  0
    8.6746    3.7413   25.8609 C   0  0  0  0  0  0  0  0  0  0  0  0
    8.9477    5.0587   25.4184 C   0  0  0  0  0  0  0  0  0  0  0  0
    9.0324    6.2444   26.0815 N   0  0  0  0  0  0  0  0  0  0  0  0
    9.3979    7.2711   25.2817 N   0  0  0  0  0  0  0  0  0  0  0  0
    9.5405    6.7453   24.0756 C   0  0  0  0  0  0  0  0  0  0  0  0
    9.2349    5.3481   24.0686 C   0  0  0  0  0  0  0  0  0  0  0  0
    9.1445    4.3110   23.1052 C   0  0  0  0  0  0  0  0  0  0  0  0
    9.1759    4.5169   22.0430 H   0  0  0  0  0  0  0  0  0  0  0  0
    9.8758    7.3746   23.2597 H   0  0  0  0  0  0  0  0  0  0  0  0
    8.7700    6.4097   27.0428 H   0  0  0  0  0  0  0  0  0  0  0  0
    8.4314    3.5342   26.8977 H   0  0  0  0  0  0  0  0  0  0  0  0
    8.5311    1.6909   25.2000 H   0  0  0  0  0  0  0  0  0  0  0  0
   10.0613    1.4693   21.7941 C   0  0  0  0  0  0  0  0  0  0  0  0
   11.5180    1.7427   21.7903 C   0  0  0  0  0  0  0  0  0  0  0  0
   12.3408    2.8724   22.4488 C   0  0  0  0  0  0  0  0  0  0  0  0
   13.4077    3.8842   22.1947 C   0  0  0  0  0  0  0  0  0  0  0  0
   12.1461    4.2440   22.9732 C   0  0  0  0  0  0  0  0  0  0  0  0
   12.1280    4.3144   24.0640 H   0  0  0  0  0  0  0  0  0  0  0  0
   11.4137    4.8412   22.4412 H   0  0  0  0  0  0  0  0  0  0  0  0
   14.3398    3.7220   22.7339 H   0  0  0  0  0  0  0  0  0  0  0  0
   13.5260    4.3097   21.2003 H   0  0  0  0  0  0  0  0  0  0  0  0
   12.4318    1.5177   23.0115 C   0  0  0  0  0  0  0  0  0  0  0  0
   12.3488    0.7233   24.2697 C   0  0  0  0  0  0  0  0  0  0  0  0
   13.5073    0.5306   23.2912 C   0  0  0  0  0  0  0  0  0  0  0  0
   14.4931    0.9194   23.5415 H   0  0  0  0  0  0  0  0  0  0  0  0
   13.4955   -0.3694   22.6834 H   0  0  0  0  0  0  0  0  0  0  0  0
   11.5816   -0.0476   24.2907 H   0  0  0  0  0  0  0  0  0  0  0  0
   12.5331    1.2426   25.2032 H   0  0  0  0  0  0  0  0  0  0  0  0
   11.9139    1.3950   20.8352 H   0  0  0  0  0  0  0  0  0  0  0  0
    9.5537    0.5496   20.9789 N   0  0  0  0  0  0  0  0  0  0  0  0
    7.7632   -1.4435   20.5477 H   0  0  0  0  0  0  0  0  0  0  0  0
    6.5460   -0.7501   21.6146 H   0  0  0  0  0  0  0  0  0  0  0  0
    5.3267    0.7988   19.7589 C   0  0  0  0  0  0  0  0  0  0  0  0
    4.8778    0.9274   20.7459 H   0  0  0  0  0  0  0  0  0  0  0  0
    7.9211   -0.6622   18.1321 H   0  0  0  0  0  0  0  0  0  0  0  0
    4.9534    1.6683   16.4977 H   0  0  0  0  0  0  0  0  0  0  0  0
    3.8431    1.9856   18.7049 H   0  0  0  0  0  0  0  0  0  0  0  0
  1  2  2  0
  2  3  1  0
  3  4  2  0
  4  5  1  0
  5  6  1  0
  6  7  1  0
  7  8  2  0
  8  9  1  0
  9 10  1  0
 10 11  2  0
 11 12  1  0
 12 13  2  0
 13 14  1  0
 14 15  1  0
 15 16  2  0
 16 17  1  0
 17 18  2  0
 18 19  1  0
 16 20  1  0
 14 21  1  0
 12 22  1  0
 11 23  1  0
  9 24  1  0
 24 25  1  0
 25 26  1  0
 26 27  1  0
 27 28  1  0
 28 29  1  0
 28 30  1  0
 27 31  1  0
 27 32  1  0
 26 33  1  0
 33 34  1  0
 34 35  1  0
 35 36  1  0
 35 37  1  0
 34 38  1  0
 34 39  1  0
 25 40  1  0
 24 41  2  0
  6 42  1  0
  6 43  1  0
  5 44  2  0
 44 45  1  0
  4 46  1  0
  2 47  1  0
  1 48  1  0
 44  1  1  0
 41  7  1  0
 18 10  1  0
 33 25  1  0
 17 13  1  0
 28 26  1  0
 35 33  1  0
M  END
>  <cnnaffinity>  (1) 
-6.17039

>  <filename>  (1) 
c1cncc(Cc2nc(C3C4(CC4)C34CC4)n(-c3ccc4[nH]ncc4c3)n2)c1

$$$$
