
     RDKit          3D

 47 51  0  0  0  0  0  0  0  0999 V2000
    4.6854    1.3042   18.7210 C   0  0  0  0  0  0  0  0  0  0  0  0
    5.2693    1.2480   17.4519 C   0  0  0  0  0  0  0  0  0  0  0  0
    6.3234    0.4737   17.1560 N   0  0  0  0  0  0  0  0  0  0  0  0
    6.8701   -0.2233   18.1594 C   0  0  0  0  0  0  0  0  0  0  0  0
    6.4366   -0.1596   19.4927 C   0  0  0  0  0  0  0  0  0  0  0  0
    7.2559   -0.7284   20.6446 C   0  0  0  0  0  0  0  0  0  0  0  0
    8.0877    0.3283   21.3272 C   0  0  0  0  0  0  0  0  0  0  0  0
    9.3100    0.6167   20.9343 N   0  0  0  0  0  0  0  0  0  0  0  0
    9.6811    1.6084   21.7820 N   0  0  0  0  0  0  0  0  0  0  0  0
   11.0447    2.0155   21.9123 C   0  0  0  0  0  0  0  0  0  0  0  0
   11.6712    2.9711   21.1135 C   0  0  0  0  0  0  0  0  0  0  0  0
   12.8361    3.6241   21.5744 C   0  0  0  0  0  0  0  0  0  0  0  0
   13.4862    3.2132   22.7394 C   0  0  0  0  0  0  0  0  0  0  0  0
   12.9811    2.0854   23.4227 C   0  0  0  0  0  0  0  0  0  0  0  0
   11.7859    1.5042   22.9875 C   0  0  0  0  0  0  0  0  0  0  0  0
   11.5883    0.4168   23.7982 N   0  0  0  0  0  0  0  0  0  0  0  0
   12.6434    0.3784   24.6582 C   0  0  0  0  0  0  0  0  0  0  0  0
   13.4834    1.3496   24.4802 N   0  0  0  0  0  0  0  0  0  0  0  0
   12.7217   -0.3883   25.4189 H   0  0  0  0  0  0  0  0  0  0  0  0
   10.9350   -0.3208   23.6144 H   0  0  0  0  0  0  0  0  0  0  0  0
   14.3817    3.7073   23.0871 H   0  0  0  0  0  0  0  0  0  0  0  0
   13.2617    4.4356   20.9888 H   0  0  0  0  0  0  0  0  0  0  0  0
   11.2665    3.2028   20.1373 H   0  0  0  0  0  0  0  0  0  0  0  0
    8.6525    1.8751   22.6473 C   0  0  0  0  0  0  0  0  0  0  0  0
    8.8029    3.0015   23.6749 C   0  0  0  0  0  0  0  0  0  0  0  0
    8.9693    4.4019   22.9962 C   0  0  0  0  0  0  0  0  0  0  0  0
    8.4198    5.5166   23.8949 C   0  0  0  0  0  0  0  0  0  0  0  0
    6.9437    5.2539   24.2656 C   0  0  0  0  0  0  0  0  0  0  0  0
    6.6405    3.7439   24.4008 C   0  0  0  0  0  0  0  0  0  0  0  0
    7.8022    2.9820   24.6800 O   0  0  0  0  0  0  0  0  0  0  0  0
    5.9736    3.5433   25.2428 H   0  0  0  0  0  0  0  0  0  0  0  0
    6.1550    3.3609   23.4896 H   0  0  0  0  0  0  0  0  0  0  0  0
    6.2756    5.6617   23.4964 H   0  0  0  0  0  0  0  0  0  0  0  0
    6.6989    5.7753   25.1998 H   0  0  0  0  0  0  0  0  0  0  0  0
    9.0222    5.5885   24.8087 H   0  0  0  0  0  0  0  0  0  0  0  0
    8.5119    6.4902   23.3999 H   0  0  0  0  0  0  0  0  0  0  0  0
    8.4352    4.4097   22.0367 H   0  0  0  0  0  0  0  0  0  0  0  0
   10.0324    4.5476   22.7637 H   0  0  0  0  0  0  0  0  0  0  0  0
    9.7129    2.7955   24.2470 H   0  0  0  0  0  0  0  0  0  0  0  0
    7.6370    1.0736   22.3724 N   0  0  0  0  0  0  0  0  0  0  0  0
    7.9273   -1.5235   20.2982 H   0  0  0  0  0  0  0  0  0  0  0  0
    6.5903   -1.1598   21.3981 H   0  0  0  0  0  0  0  0  0  0  0  0
    5.2812    0.5857   19.7601 C   0  0  0  0  0  0  0  0  0  0  0  0
    4.8886    0.6177   20.7786 H   0  0  0  0  0  0  0  0  0  0  0  0
    7.7099   -0.8673   17.8967 H   0  0  0  0  0  0  0  0  0  0  0  0
    4.8872    1.8574   16.6355 H   0  0  0  0  0  0  0  0  0  0  0  0
    3.8211    1.9367   18.8883 H   0  0  0  0  0  0  0  0  0  0  0  0
  1  2  2  0
  2  3  1  0
  3  4  2  0
  4  5  1  0
  5  6  1  0
  6  7  1  0
  7  8  2  0
  8  9  1  0
  9 10  1  0
 10 11  2  0
 11 12  1  0
 12 13  2  0
 13 14  1  0
 14 15  2  0
 15 16  1  0
 16 17  1  0
 17 18  2  0
 17 19  1  0
 16 20  1  0
 13 21  1  0
 12 22  1  0
 11 23  1  0
  9 24  1  0
 24 25  1  0
 25 26  1  0
 26 27  1  0
 27 28  1  0
 28 29  1  0
 29 30  1  0
 29 31  1  0
 29 32  1  0
 28 33  1  0
 28 34  1  0
 27 35  1  0
 27 36  1  0
 26 37  1  0
 26 38  1  0
 25 39  1  0
 24 40  2  0
  6 41  1  0
  6 42  1  0
  5 43  2  0
 43 44  1  0
  4 45  1  0
  2 46  1  0
  1 47  1  0
 43  1  1  0
 40  7  1  0
 15 10  1  0
 30 25  1  0
 18 14  1  0
M  END
>  <cnnaffinity>  (1) 
-6.0911

>  <filename>  (1) 
c1cncc(Cc2nc(C3CCCCO3)n(-c3cccc4nc[nH]c34)n2)c1

$$$$
