
     RDKit          3D

 38 41  0  0  0  0  0  0  0  0999 V2000
    5.0579    2.7131   16.4845 H   0  0  0  0  0  0  0  0  0  0  0  0
    5.3830    2.1067   17.3263 C   0  0  0  0  0  0  0  0  0  0  0  0
    6.4481    1.3177   17.1114 N   0  0  0  0  0  0  0  0  0  0  0  0
    6.8760    0.5639   18.1331 C   0  0  0  0  0  0  0  0  0  0  0  0
    7.7309   -0.0780   17.9341 H   0  0  0  0  0  0  0  0  0  0  0  0
    6.2843    0.5378   19.4233 C   0  0  0  0  0  0  0  0  0  0  0  0
    6.6739   -0.3340   20.4657 N   0  0  0  0  0  0  0  0  0  0  0  0
    7.2334   -1.6297   20.1092 C   0  0  0  0  0  0  0  0  0  0  0  0
    6.7896   -1.9674   19.1654 H   0  0  0  0  0  0  0  0  0  0  0  0
    8.3283   -1.5741   19.9641 H   0  0  0  0  0  0  0  0  0  0  0  0
    6.9144   -2.6424   21.2044 C   0  0  0  0  0  0  0  0  0  0  0  0
    5.8307   -2.8319   21.2026 H   0  0  0  0  0  0  0  0  0  0  0  0
    7.4157   -3.5830   20.9611 H   0  0  0  0  0  0  0  0  0  0  0  0
    7.3592   -2.1551   22.5116 N   0  0  0  0  0  0  0  0  0  0  0  0
    7.8944   -3.0275   23.4057 C   0  0  0  0  0  0  0  0  0  0  0  0
    7.9821   -2.6169   24.7071 O   0  0  0  0  0  0  0  0  0  0  0  0
    8.6673   -3.6094   25.3654 C   0  0  0  0  0  0  0  0  0  0  0  0
    9.0220   -3.6043   26.7104 C   0  0  0  0  0  0  0  0  0  0  0  0
    8.6733   -2.8182   27.3731 H   0  0  0  0  0  0  0  0  0  0  0  0
    9.8206   -4.6662   27.1501 C   0  0  0  0  0  0  0  0  0  0  0  0
   10.1392   -4.7267   28.1930 H   0  0  0  0  0  0  0  0  0  0  0  0
   10.2078   -5.6934   26.2622 C   0  0  0  0  0  0  0  0  0  0  0  0
   10.8457   -6.4989   26.6023 H   0  0  0  0  0  0  0  0  0  0  0  0
    9.7753   -5.7192   24.9405 C   0  0  0  0  0  0  0  0  0  0  0  0
   10.0326   -6.5691   24.3131 H   0  0  0  0  0  0  0  0  0  0  0  0
    8.9988   -4.6439   24.4721 C   0  0  0  0  0  0  0  0  0  0  0  0
    8.4322   -4.2613   23.2072 C   0  0  0  0  0  0  0  0  0  0  0  0
    8.4345   -4.8280   22.2927 H   0  0  0  0  0  0  0  0  0  0  0  0
    7.0581   -0.7648   22.8691 C   0  0  0  0  0  0  0  0  0  0  0  0
    6.0262   -0.6695   23.2108 H   0  0  0  0  0  0  0  0  0  0  0  0
    7.6975   -0.4662   23.7087 H   0  0  0  0  0  0  0  0  0  0  0  0
    7.2965    0.1899   21.6906 C   0  0  0  0  0  0  0  0  0  0  0  0
    6.8614    1.1687   21.9252 H   0  0  0  0  0  0  0  0  0  0  0  0
    8.3837    0.3388   21.5505 H   0  0  0  0  0  0  0  0  0  0  0  0
    5.1832    1.3837   19.6182 C   0  0  0  0  0  0  0  0  0  0  0  0
    4.6954    1.3756   20.5905 H   0  0  0  0  0  0  0  0  0  0  0  0
    4.7248    2.1699   18.5588 C   0  0  0  0  0  0  0  0  0  0  0  0
    3.8823    2.8404   18.6770 H   0  0  0  0  0  0  0  0  0  0  0  0
  1  2  1  0
  2  3  2  0
  3  4  1  0
  4  5  1  0
  4  6  2  0
  6  7  1  0
  7  8  1  0
  8  9  1  0
  8 10  1  0
  8 11  1  0
 11 12  1  0
 11 13  1  0
 11 14  1  0
 14 15  1  0
 15 16  1  0
 16 17  1  0
 17 18  2  0
 18 19  1  0
 18 20  1  0
 20 21  1  0
 20 22  2  0
 22 23  1  0
 22 24  1  0
 24 25  1  0
 24 26  2  0
 26 27  1  0
 27 28  1  0
 14 29  1  0
 29 30  1  0
 29 31  1  0
 29 32  1  0
 32 33  1  0
 32 34  1  0
  6 35  1  0
 35 36  1  0
 35 37  2  0
 37 38  1  0
 37  2  1  0
 32  7  1  0
 27 15  2  0
 26 17  1  0
M  END
>  <cnnaffinity>  (1) 
-4.78376

>  <filename>  (1) 
c1cncc(N2CCN(c3cc4ccccc4o3)CC2)c1

$$$$
