
     RDKit          3D

 34 37  0  0  0  0  0  0  0  0999 V2000
    4.9229    1.7778   16.9988 H   0  0  0  0  0  0  0  0  0  0  0  0
    5.4081    1.2888   17.8397 C   0  0  0  0  0  0  0  0  0  0  0  0
    6.5723    0.6719   17.5772 N   0  0  0  0  0  0  0  0  0  0  0  0
    7.1790    0.0550   18.5965 C   0  0  0  0  0  0  0  0  0  0  0  0
    8.1251   -0.4314   18.3772 H   0  0  0  0  0  0  0  0  0  0  0  0
    6.6591    0.0032   19.9003 C   0  0  0  0  0  0  0  0  0  0  0  0
    7.3745   -0.7013   20.9652 C   0  0  0  0  0  0  0  0  0  0  0  0
    8.5162   -1.4384   20.7431 N   0  0  0  0  0  0  0  0  0  0  0  0
    8.8748   -1.8849   21.9206 C   0  0  0  0  0  0  0  0  0  0  0  0
    9.7376   -2.5088   22.1334 H   0  0  0  0  0  0  0  0  0  0  0  0
    8.0187   -1.4828   22.9108 N   0  0  0  0  0  0  0  0  0  0  0  0
    8.1326   -1.7082   24.3133 C   0  0  0  0  0  0  0  0  0  0  0  0
    8.1679   -0.6141   25.1555 C   0  0  0  0  0  0  0  0  0  0  0  0
    8.0812    0.3889   24.7496 H   0  0  0  0  0  0  0  0  0  0  0  0
    8.3385   -0.7816   26.5489 C   0  0  0  0  0  0  0  0  0  0  0  0
    8.3814    0.0832   27.2116 H   0  0  0  0  0  0  0  0  0  0  0  0
    8.4482   -2.0453   27.0659 C   0  0  0  0  0  0  0  0  0  0  0  0
    8.5463   -2.1535   28.1252 H   0  0  0  0  0  0  0  0  0  0  0  0
    8.3910   -3.2093   26.2496 C   0  0  0  0  0  0  0  0  0  0  0  0
    8.4985   -4.5253   26.8074 C   0  0  0  0  0  0  0  0  0  0  0  0
    8.6492   -4.6278   27.8842 H   0  0  0  0  0  0  0  0  0  0  0  0
    8.4029   -5.6351   26.0020 C   0  0  0  0  0  0  0  0  0  0  0  0
    8.4812   -6.6348   26.4272 H   0  0  0  0  0  0  0  0  0  0  0  0
    8.1891   -5.4832   24.5991 C   0  0  0  0  0  0  0  0  0  0  0  0
    8.1032   -6.3646   23.9696 H   0  0  0  0  0  0  0  0  0  0  0  0
    8.0817   -4.2318   24.0352 C   0  0  0  0  0  0  0  0  0  0  0  0
    7.8893   -4.1095   22.9720 H   0  0  0  0  0  0  0  0  0  0  0  0
    8.2025   -3.0508   24.8380 C   0  0  0  0  0  0  0  0  0  0  0  0
    7.0524   -0.7172   22.2947 C   0  0  0  0  0  0  0  0  0  0  0  0
    6.2554   -0.2422   22.8530 H   0  0  0  0  0  0  0  0  0  0  0  0
    5.4389    0.6525   20.1559 C   0  0  0  0  0  0  0  0  0  0  0  0
    4.9907    0.6416   21.1542 H   0  0  0  0  0  0  0  0  0  0  0  0
    4.8075    1.3080   19.1054 C   0  0  0  0  0  0  0  0  0  0  0  0
    3.8745    1.8421   19.2595 H   0  0  0  0  0  0  0  0  0  0  0  0
  1  2  1  0
  2  3  2  0
  3  4  1  0
  4  5  1  0
  4  6  2  0
  6  7  1  0
  7  8  1  0
  8  9  2  0
  9 10  1  0
  9 11  1  0
 11 12  1  0
 12 13  2  0
 13 14  1  0
 13 15  1  0
 15 16  1  0
 15 17  2  0
 17 18  1  0
 17 19  1  0
 19 20  2  0
 20 21  1  0
 20 22  1  0
 22 23  1  0
 22 24  2  0
 24 25  1  0
 24 26  1  0
 26 27  1  0
 26 28  2  0
 11 29  1  0
 29 30  1  0
  6 31  1  0
 31 32  1  0
 31 33  2  0
 33 34  1  0
 33  2  1  0
 29  7  2  0
 28 12  1  0
 28 19  1  0
M  END
>  <cnnaffinity>  (1) 
-5.48548

>  <filename>  (1) 
c1cncc(-c2cn(-c3cccc4ccccc34)cn2)c1

$$$$
