
     RDKit          3D

 44 48  0  0  0  0  0  0  0  0999 V2000
    4.7679    1.3315   18.5102 C   0  0  0  0  0  0  0  0  0  0  0  0
    5.2880    1.1957   17.2204 C   0  0  0  0  0  0  0  0  0  0  0  0
    6.3039    0.3771   16.9173 N   0  0  0  0  0  0  0  0  0  0  0  0
    6.8508   -0.3213   17.9179 C   0  0  0  0  0  0  0  0  0  0  0  0
    6.4443   -0.2310   19.2565 C   0  0  0  0  0  0  0  0  0  0  0  0
    7.2138   -0.9075   20.3823 C   0  0  0  0  0  0  0  0  0  0  0  0
    8.0899    0.0524   21.1298 C   0  0  0  0  0  0  0  0  0  0  0  0
    9.3041    0.3650   20.7308 N   0  0  0  0  0  0  0  0  0  0  0  0
    9.7076    1.2692   21.6627 N   0  0  0  0  0  0  0  0  0  0  0  0
   11.0637    1.7306   21.7718 C   0  0  0  0  0  0  0  0  0  0  0  0
   11.6062    2.7800   21.0244 C   0  0  0  0  0  0  0  0  0  0  0  0
   12.7477    3.4737   21.4853 C   0  0  0  0  0  0  0  0  0  0  0  0
   13.4398    3.0576   22.6282 C   0  0  0  0  0  0  0  0  0  0  0  0
   13.0036    1.8821   23.2747 C   0  0  0  0  0  0  0  0  0  0  0  0
   11.8494    1.2282   22.8207 C   0  0  0  0  0  0  0  0  0  0  0  0
   11.7056    0.1373   23.6478 N   0  0  0  0  0  0  0  0  0  0  0  0
   12.7138    0.2051   24.5559 C   0  0  0  0  0  0  0  0  0  0  0  0
   13.5170    1.2128   24.3687 N   0  0  0  0  0  0  0  0  0  0  0  0
   12.8063   -0.5234   25.3466 H   0  0  0  0  0  0  0  0  0  0  0  0
   10.9158   -0.4832   23.6764 H   0  0  0  0  0  0  0  0  0  0  0  0
   14.2993    3.5924   23.0131 H   0  0  0  0  0  0  0  0  0  0  0  0
   13.1115    4.3328   20.9270 H   0  0  0  0  0  0  0  0  0  0  0  0
   11.1730    3.0569   20.0698 H   0  0  0  0  0  0  0  0  0  0  0  0
    8.6854    1.4862   22.5416 C   0  0  0  0  0  0  0  0  0  0  0  0
    8.5713    2.6275   23.5222 C   0  0  0  0  0  0  0  0  0  0  0  0
    8.5124    4.0099   22.8057 C   0  0  0  0  0  0  0  0  0  0  0  0
    9.2086    5.0645   23.6733 C   0  0  0  0  0  0  0  0  0  0  0  0
   10.4413    4.3862   24.2672 C   0  0  0  0  0  0  0  0  0  0  0  0
    9.8824    2.7399   24.7929 S   0  0  0  0  0  0  0  0  0  0  0  0
   11.2352    4.2592   23.5260 H   0  0  0  0  0  0  0  0  0  0  0  0
   10.8503    4.9071   25.1368 H   0  0  0  0  0  0  0  0  0  0  0  0
    8.5549    5.4068   24.4875 H   0  0  0  0  0  0  0  0  0  0  0  0
    9.4960    5.9375   23.0744 H   0  0  0  0  0  0  0  0  0  0  0  0
    9.0296    3.9428   21.8402 H   0  0  0  0  0  0  0  0  0  0  0  0
    7.4697    4.2679   22.5919 H   0  0  0  0  0  0  0  0  0  0  0  0
    7.6469    2.4264   24.0772 H   0  0  0  0  0  0  0  0  0  0  0  0
    7.6616    0.7067   22.2385 N   0  0  0  0  0  0  0  0  0  0  0  0
    7.8425   -1.7198   20.0056 H   0  0  0  0  0  0  0  0  0  0  0  0
    6.5193   -1.3297   21.1124 H   0  0  0  0  0  0  0  0  0  0  0  0
    5.3628    0.6123   19.5485 C   0  0  0  0  0  0  0  0  0  0  0  0
    5.0139    0.7149   20.5781 H   0  0  0  0  0  0  0  0  0  0  0  0
    7.6720   -0.9858   17.6461 H   0  0  0  0  0  0  0  0  0  0  0  0
    4.8757    1.7612   16.3894 H   0  0  0  0  0  0  0  0  0  0  0  0
    3.9364    2.0062   18.6825 H   0  0  0  0  0  0  0  0  0  0  0  0
  1  2  2  0
  2  3  1  0
  3  4  2  0
  4  5  1  0
  5  6  1  0
  6  7  1  0
  7  8  2  0
  8  9  1  0
  9 10  1  0
 10 11  2  0
 11 12  1  0
 12 13  2  0
 13 14  1  0
 14 15  2  0
 15 16  1  0
 16 17  1  0
 17 18  2  0
 17 19  1  0
 16 20  1  0
 13 21  1  0
 12 22  1  0
 11 23  1  0
  9 24  1  0
 24 25  1  0
 25 26  1  0
 26 27  1  0
 27 28  1  0
 28 29  1  0
 28 30  1  0
 28 31  1  0
 27 32  1  0
 27 33  1  0
 26 34  1  0
 26 35  1  0
 25 36  1  0
 24 37  2  0
  6 38  1  0
  6 39  1  0
  5 40  2  0
 40 41  1  0
  4 42  1  0
  2 43  1  0
  1 44  1  0
 40  1  1  0
 37  7  1  0
 15 10  1  0
 29 25  1  0
 18 14  1  0
M  END
>  <cnnaffinity>  (1) 
-6.09409

>  <filename>  (1) 
c1cncc(Cc2nc(C3CCCS3)n(-c3cccc4nc[nH]c34)n2)c1

$$$$
