
     RDKit          3D

 32 35  0  0  0  0  0  0  0  0999 V2000
    4.8162    1.3004   19.1117 C   0  0  0  0  0  0  0  0  0  0  0  0
    5.4080    1.2871   17.8443 C   0  0  0  0  0  0  0  0  0  0  0  0
    6.5736    0.6681   17.5938 N   0  0  0  0  0  0  0  0  0  0  0  0
    7.1853    0.0458   18.6059 C   0  0  0  0  0  0  0  0  0  0  0  0
    6.6632   -0.0027   19.9109 C   0  0  0  0  0  0  0  0  0  0  0  0
    7.3611   -0.6912   20.9320 N   0  0  0  0  0  0  0  0  0  0  0  0
    7.2269   -0.5055   22.2651 C   0  0  0  0  0  0  0  0  0  0  0  0
    8.0862   -1.3756   22.9039 C   0  0  0  0  0  0  0  0  0  0  0  0
    8.3157   -1.5402   24.3356 C   0  0  0  0  0  0  0  0  0  0  0  0
    8.6473   -2.7866   24.8462 C   0  0  0  0  0  0  0  0  0  0  0  0
    8.8276   -2.9733   26.2316 C   0  0  0  0  0  0  0  0  0  0  0  0
    8.7095   -2.0102   27.1277 N   0  0  0  0  0  0  0  0  0  0  0  0
    8.4005   -0.7646   26.6533 C   0  0  0  0  0  0  0  0  0  0  0  0
    8.2713    0.3160   27.5788 C   0  0  0  0  0  0  0  0  0  0  0  0
    7.9781    1.5808   27.1120 C   0  0  0  0  0  0  0  0  0  0  0  0
    7.8037    1.7924   25.7162 C   0  0  0  0  0  0  0  0  0  0  0  0
    7.8823    0.8338   24.8210 N   0  0  0  0  0  0  0  0  0  0  0  0
    8.1856   -0.4346   25.2604 C   0  0  0  0  0  0  0  0  0  0  0  0
    7.5757    2.7856   25.3312 H   0  0  0  0  0  0  0  0  0  0  0  0
    7.8838    2.4279   27.7783 H   0  0  0  0  0  0  0  0  0  0  0  0
    8.4370    0.0984   28.6308 H   0  0  0  0  0  0  0  0  0  0  0  0
    9.0796   -3.9636   26.6097 H   0  0  0  0  0  0  0  0  0  0  0  0
    8.7442   -3.6355   24.1794 H   0  0  0  0  0  0  0  0  0  0  0  0
    8.7067   -2.0626   21.8241 C   0  0  0  0  0  0  0  0  0  0  0  0
    8.2855   -1.6344   20.6532 N   0  0  0  0  0  0  0  0  0  0  0  0
    9.4736   -2.8271   21.8795 H   0  0  0  0  0  0  0  0  0  0  0  0
    6.5786    0.2485   22.6855 H   0  0  0  0  0  0  0  0  0  0  0  0
    5.4470    0.6438   20.1708 C   0  0  0  0  0  0  0  0  0  0  0  0
    4.9968    0.6265   21.1657 H   0  0  0  0  0  0  0  0  0  0  0  0
    8.1291   -0.4340   18.3723 H   0  0  0  0  0  0  0  0  0  0  0  0
    4.9308    1.7794   16.9994 H   0  0  0  0  0  0  0  0  0  0  0  0
    3.8857    1.8333   19.2635 H   0  0  0  0  0  0  0  0  0  0  0  0
  1  2  2  0
  2  3  1  0
  3  4  2  0
  4  5  1  0
  5  6  1  0
  6  7  1  0
  7  8  2  0
  8  9  1  0
  9 10  2  0
 10 11  1  0
 11 12  2  0
 12 13  1  0
 13 14  2  0
 14 15  1  0
 15 16  2  0
 16 17  1  0
 17 18  2  0
 16 19  1  0
 15 20  1  0
 14 21  1  0
 11 22  1  0
 10 23  1  0
  8 24  1  0
 24 25  2  0
 24 26  1  0
  7 27  1  0
  5 28  2  0
 28 29  1  0
  4 30  1  0
  2 31  1  0
  1 32  1  0
 28  1  1  0
 25  6  1  0
 18  9  1  0
 18 13  1  0
M  END
>  <cnnaffinity>  (1) 
-5.54287

>  <filename>  (1) 
c1cncc(-n2cc(-c3ccnc4cccnc34)cn2)c1

$$$$
