
     RDKit          3D

 33 36  0  0  0  0  0  0  0  0999 V2000
    4.9110    1.8062   16.9807 H   0  0  0  0  0  0  0  0  0  0  0  0
    5.3806    1.3037   17.8251 C   0  0  0  0  0  0  0  0  0  0  0  0
    6.5422    0.6829   17.5666 N   0  0  0  0  0  0  0  0  0  0  0  0
    7.1543    0.0746   18.5852 C   0  0  0  0  0  0  0  0  0  0  0  0
    8.1043   -0.3987   18.3421 H   0  0  0  0  0  0  0  0  0  0  0  0
    6.6627    0.0314   19.9108 C   0  0  0  0  0  0  0  0  0  0  0  0
    7.4177   -0.6525   20.9708 C   0  0  0  0  0  0  0  0  0  0  0  0
    8.3568   -1.6584   20.9298 C   0  0  0  0  0  0  0  0  0  0  0  0
    8.7435   -2.1085   20.0365 H   0  0  0  0  0  0  0  0  0  0  0  0
    8.8407   -2.0129   22.1582 N   0  0  0  0  0  0  0  0  0  0  0  0
    8.2126   -1.1924   22.9589 C   0  0  0  0  0  0  0  0  0  0  0  0
    8.3159   -0.7724   24.6317 S   0  0  0  0  0  0  0  0  0  0  0  0
    7.1458    0.4671   24.2678 C   0  0  0  0  0  0  0  0  0  0  0  0
    6.7829    1.2203   25.2912 O   0  0  0  0  0  0  0  0  0  0  0  0
    5.8278    2.2790   25.0634 C   0  0  0  0  0  0  0  0  0  0  0  0
    5.6586    2.6441   26.0797 H   0  0  0  0  0  0  0  0  0  0  0  0
    4.8961    1.8595   24.6630 H   0  0  0  0  0  0  0  0  0  0  0  0
    6.3430    3.3852   24.1654 C   0  0  0  0  0  0  0  0  0  0  0  0
    5.7973    3.6085   22.8951 C   0  0  0  0  0  0  0  0  0  0  0  0
    4.9835    2.9933   22.5288 H   0  0  0  0  0  0  0  0  0  0  0  0
    6.3514    4.5949   22.0736 C   0  0  0  0  0  0  0  0  0  0  0  0
    5.9664    4.7670   21.0697 H   0  0  0  0  0  0  0  0  0  0  0  0
    7.3827    5.3621   22.4474 N   0  0  0  0  0  0  0  0  0  0  0  0
    7.8948    5.1633   23.6667 C   0  0  0  0  0  0  0  0  0  0  0  0
    8.7352    5.8019   23.9418 H   0  0  0  0  0  0  0  0  0  0  0  0
    7.4114    4.2018   24.5593 C   0  0  0  0  0  0  0  0  0  0  0  0
    7.8732    4.0818   25.5330 H   0  0  0  0  0  0  0  0  0  0  0  0
    6.6941    0.5786   23.0550 N   0  0  0  0  0  0  0  0  0  0  0  0
    7.3303   -0.3722   22.3231 N   0  0  0  0  0  0  0  0  0  0  0  0
    5.4329    0.6691   20.1514 C   0  0  0  0  0  0  0  0  0  0  0  0
    5.0165    0.6496   21.1570 H   0  0  0  0  0  0  0  0  0  0  0  0
    4.7912    1.3167   19.0938 C   0  0  0  0  0  0  0  0  0  0  0  0
    3.8572    1.8474   19.2379 H   0  0  0  0  0  0  0  0  0  0  0  0
  1  2  1  0
  2  3  2  0
  3  4  1  0
  4  5  1  0
  4  6  2  0
  6  7  1  0
  7  8  2  0
  8  9  1  0
  8 10  1  0
 10 11  2  0
 11 12  1  0
 12 13  1  0
 13 14  1  0
 14 15  1  0
 15 16  1  0
 15 17  1  0
 15 18  1  0
 18 19  2  0
 19 20  1  0
 19 21  1  0
 21 22  1  0
 21 23  2  0
 23 24  1  0
 24 25  1  0
 24 26  2  0
 26 27  1  0
 13 28  2  0
 28 29  1  0
  6 30  1  0
 30 31  1  0
 30 32  2  0
 32 33  1  0
 32  2  1  0
 29  7  1  0
 29 11  1  0
 26 18  1  0
M  END
>  <cnnaffinity>  (1) 
-5.03553

>  <filename>  (1) 
c1cncc(-c2cnc3sc(OCc4ccncc4)nn23)c1

$$$$
