
     RDKit          3D

 35 37  0  0  0  0  0  0  0  0999 V2000
    4.9160    1.8083   16.9678 H   0  0  0  0  0  0  0  0  0  0  0  0
    5.3834    1.3017   17.8115 C   0  0  0  0  0  0  0  0  0  0  0  0
    6.5460    0.6829   17.5502 N   0  0  0  0  0  0  0  0  0  0  0  0
    7.1580    0.0625   18.5674 C   0  0  0  0  0  0  0  0  0  0  0  0
    8.1143   -0.3950   18.3180 H   0  0  0  0  0  0  0  0  0  0  0  0
    6.6496    0.0127   19.8857 C   0  0  0  0  0  0  0  0  0  0  0  0
    7.3590   -0.6397   21.0002 C   0  0  0  0  0  0  0  0  0  0  0  0
    7.4223   -0.3470   22.3555 C   0  0  0  0  0  0  0  0  0  0  0  0
    6.8078    0.7461   22.8891 O   0  0  0  0  0  0  0  0  0  0  0  0
    6.8316    0.9481   24.3073 C   0  0  0  0  0  0  0  0  0  0  0  0
    7.8580    0.7718   24.6702 H   0  0  0  0  0  0  0  0  0  0  0  0
    5.8560    0.0019   25.0247 C   0  0  0  0  0  0  0  0  0  0  0  0
    4.8631    0.1403   24.5769 H   0  0  0  0  0  0  0  0  0  0  0  0
    6.1510   -1.0400   24.8400 H   0  0  0  0  0  0  0  0  0  0  0  0
    5.7782    0.3034   26.5299 C   0  0  0  0  0  0  0  0  0  0  0  0
    5.0465   -0.3622   27.0043 H   0  0  0  0  0  0  0  0  0  0  0  0
    6.7477    0.0828   27.0018 H   0  0  0  0  0  0  0  0  0  0  0  0
    5.4057    1.7757   26.7848 C   0  0  0  0  0  0  0  0  0  0  0  0
    4.3816    1.9590   26.4269 H   0  0  0  0  0  0  0  0  0  0  0  0
    5.3926    1.9859   27.8627 H   0  0  0  0  0  0  0  0  0  0  0  0
    6.3724    2.7315   26.0605 C   0  0  0  0  0  0  0  0  0  0  0  0
    7.3746    2.6409   26.5085 H   0  0  0  0  0  0  0  0  0  0  0  0
    6.0642    3.7745   26.2115 H   0  0  0  0  0  0  0  0  0  0  0  0
    6.4539    2.4128   24.5546 C   0  0  0  0  0  0  0  0  0  0  0  0
    7.1806    3.0664   24.0525 H   0  0  0  0  0  0  0  0  0  0  0  0
    5.4796    2.6039   24.0779 H   0  0  0  0  0  0  0  0  0  0  0  0
    8.2388   -1.3615   22.9269 C   0  0  0  0  0  0  0  0  0  0  0  0
    8.5479   -1.5201   23.9534 H   0  0  0  0  0  0  0  0  0  0  0  0
    8.6499   -2.2147   21.9885 N   0  0  0  0  0  0  0  0  0  0  0  0
    8.1275   -1.7572   20.8564 N   0  0  0  0  0  0  0  0  0  0  0  0
    8.2592   -2.2803   19.9955 H   0  0  0  0  0  0  0  0  0  0  0  0
    5.4291    0.6632   20.1292 C   0  0  0  0  0  0  0  0  0  0  0  0
    5.0283    0.6528   21.1391 H   0  0  0  0  0  0  0  0  0  0  0  0
    4.7870    1.3146   19.0767 C   0  0  0  0  0  0  0  0  0  0  0  0
    3.8565    1.8534   19.2268 H   0  0  0  0  0  0  0  0  0  0  0  0
  1  2  1  0
  2  3  2  0
  3  4  1  0
  4  5  1  0
  4  6  2  0
  6  7  1  0
  7  8  2  0
  8  9  1  0
  9 10  1  0
 10 11  1  0
 10 12  1  0
 12 13  1  0
 12 14  1  0
 12 15  1  0
 15 16  1  0
 15 17  1  0
 15 18  1  0
 18 19  1  0
 18 20  1  0
 18 21  1  0
 21 22  1  0
 21 23  1  0
 21 24  1  0
 24 25  1  0
 24 26  1  0
  8 27  1  0
 27 28  1  0
 27 29  2  0
 29 30  1  0
 30 31  1  0
  6 32  1  0
 32 33  1  0
 32 34  2  0
 34 35  1  0
 34  2  1  0
 30  7  1  0
 24 10  1  0
M  END
>  <cnnaffinity>  (1) 
-5.06345

>  <filename>  (1) 
c1cncc(-c2[nH]ncc2OC2CCCCC2)c1

$$$$
