
     RDKit          3D

 50 55  0  0  0  0  0  0  0  0999 V2000
    4.7927    1.6649   18.3485 C   0  0  0  0  0  0  0  0  0  0  0  0
    5.3383    1.2314   17.1400 C   0  0  0  0  0  0  0  0  0  0  0  0
    6.2554    0.2586   17.0383 N   0  0  0  0  0  0  0  0  0  0  0  0
    6.6027   -0.3651   18.1736 C   0  0  0  0  0  0  0  0  0  0  0  0
    6.0483   -0.0750   19.4321 C   0  0  0  0  0  0  0  0  0  0  0  0
    6.3638   -0.8773   20.6945 C   0  0  0  0  0  0  0  0  0  0  0  0
    7.0991   -0.0279   21.6873 C   0  0  0  0  0  0  0  0  0  0  0  0
    8.4028    0.0435   21.6028 N   0  0  0  0  0  0  0  0  0  0  0  0
    8.7124    1.0853   22.4190 N   0  0  0  0  0  0  0  0  0  0  0  0
   10.0805    1.4608   22.5186 C   0  0  0  0  0  0  0  0  0  0  0  0
   10.4922    2.8240   22.4870 C   0  0  0  0  0  0  0  0  0  0  0  0
   11.8291    3.1647   22.6131 C   0  0  0  0  0  0  0  0  0  0  0  0
   12.7589    2.1093   22.7496 C   0  0  0  0  0  0  0  0  0  0  0  0
   14.1126    2.0891   22.8601 N   0  0  0  0  0  0  0  0  0  0  0  0
   14.6214    0.8359   22.8736 N   0  0  0  0  0  0  0  0  0  0  0  0
   13.5884    0.0282   22.7980 C   0  0  0  0  0  0  0  0  0  0  0  0
   12.3615    0.7531   22.7324 C   0  0  0  0  0  0  0  0  0  0  0  0
   10.9955    0.4255   22.6081 C   0  0  0  0  0  0  0  0  0  0  0  0
   10.6256   -0.5950   22.5502 H   0  0  0  0  0  0  0  0  0  0  0  0
   13.7329   -1.0434   22.7573 H   0  0  0  0  0  0  0  0  0  0  0  0
   14.7315    2.8864   22.8477 H   0  0  0  0  0  0  0  0  0  0  0  0
   12.1452    4.1999   22.6107 H   0  0  0  0  0  0  0  0  0  0  0  0
    9.7436    3.5945   22.3270 H   0  0  0  0  0  0  0  0  0  0  0  0
    7.5631    1.5487   23.0037 C   0  0  0  0  0  0  0  0  0  0  0  0
    7.4145    2.7100   23.9254 C   0  0  0  0  0  0  0  0  0  0  0  0
    6.4070    3.7377   23.3804 C   0  0  0  0  0  0  0  0  0  0  0  0
    6.1224    4.8951   24.3476 C   0  0  0  0  0  0  0  0  0  0  0  0
    5.6106    4.3585   25.6884 C   0  0  0  0  0  0  0  0  0  0  0  0
    6.6083    3.4074   26.3819 C   0  0  0  0  0  0  0  0  0  0  0  0
    7.4055    2.4964   25.4450 C   0  0  0  0  0  0  0  0  0  0  0  0
    8.5876    3.1201   24.7727 C   0  0  0  0  0  0  0  0  0  0  0  0
    9.5108    2.5493   24.7313 H   0  0  0  0  0  0  0  0  0  0  0  0
    8.7489    4.1871   24.9172 H   0  0  0  0  0  0  0  0  0  0  0  0
    7.5226    1.4688   25.7892 H   0  0  0  0  0  0  0  0  0  0  0  0
    6.0729    2.8017   27.1201 H   0  0  0  0  0  0  0  0  0  0  0  0
    7.3402    4.0004   26.9522 H   0  0  0  0  0  0  0  0  0  0  0  0
    4.6757    3.8084   25.5066 H   0  0  0  0  0  0  0  0  0  0  0  0
    5.3672    5.1918   26.3597 H   0  0  0  0  0  0  0  0  0  0  0  0
    5.3780    5.5735   23.9131 H   0  0  0  0  0  0  0  0  0  0  0  0
    7.0396    5.4856   24.4919 H   0  0  0  0  0  0  0  0  0  0  0  0
    6.7526    4.1257   22.4138 H   0  0  0  0  0  0  0  0  0  0  0  0
    5.4721    3.1941   23.1782 H   0  0  0  0  0  0  0  0  0  0  0  0
    6.5331    0.8396   22.5569 N   0  0  0  0  0  0  0  0  0  0  0  0
    5.4468   -1.2302   21.1738 H   0  0  0  0  0  0  0  0  0  0  0  0
    6.9994   -1.7407   20.4696 H   0  0  0  0  0  0  0  0  0  0  0  0
    5.1877    1.0298   19.5218 C   0  0  0  0  0  0  0  0  0  0  0  0
    4.8535    1.3903   20.4975 H   0  0  0  0  0  0  0  0  0  0  0  0
    7.3733   -1.1346   18.0900 H   0  0  0  0  0  0  0  0  0  0  0  0
    5.0126    1.6968   16.2168 H   0  0  0  0  0  0  0  0  0  0  0  0
    4.0719    2.4771   18.3564 H   0  0  0  0  0  0  0  0  0  0  0  0
  1  2  2  0
  2  3  1  0
  3  4  2  0
  4  5  1  0
  5  6  1  0
  6  7  1  0
  7  8  2  0
  8  9  1  0
  9 10  1  0
 10 11  2  0
 11 12  1  0
 12 13  2  0
 13 14  1  0
 14 15  1  0
 15 16  2  0
 16 17  1  0
 17 18  2  0
 18 19  1  0
 16 20  1  0
 14 21  1  0
 12 22  1  0
 11 23  1  0
  9 24  1  0
 24 25  1  0
 25 26  1  0
 26 27  1  0
 27 28  1  0
 28 29  1  0
 29 30  1  0
 30 31  1  0
 31 32  1  0
 31 33  1  0
 30 34  1  0
 29 35  1  0
 29 36  1  0
 28 37  1  0
 28 38  1  0
 27 39  1  0
 27 40  1  0
 26 41  1  0
 26 42  1  0
 24 43  2  0
  6 44  1  0
  6 45  1  0
  5 46  2  0
 46 47  1  0
  4 48  1  0
  2 49  1  0
  1 50  1  0
 46  1  1  0
 43  7  1  0
 18 10  1  0
 30 25  1  0
 17 13  1  0
 31 25  1  0
M  END
>  <cnnaffinity>  (1) 
-6.54601

>  <filename>  (1) 
c1cncc(Cc2nc(C34CCCCC3C4)n(-c3ccc4[nH]ncc4c3)n2)c1

$$$$
