
     RDKit          3D

 31 33  0  0  0  0  0  0  0  0999 V2000
    4.9667    1.8399   16.9384 H   0  0  0  0  0  0  0  0  0  0  0  0
    5.4227    1.3177   17.7768 C   0  0  0  0  0  0  0  0  0  0  0  0
    6.5735    0.6741   17.5222 N   0  0  0  0  0  0  0  0  0  0  0  0
    7.1561    0.0416   18.5499 C   0  0  0  0  0  0  0  0  0  0  0  0
    8.0868   -0.4787   18.3249 H   0  0  0  0  0  0  0  0  0  0  0  0
    6.6432   -0.0046   19.8633 C   0  0  0  0  0  0  0  0  0  0  0  0
    7.3906   -0.7246   20.9254 C   0  0  0  0  0  0  0  0  0  0  0  0
    8.7376   -0.7120   21.2560 C   0  0  0  0  0  0  0  0  0  0  0  0
    9.6855    0.1428   20.6570 N   0  0  0  0  0  0  0  0  0  0  0  0
    9.2227    1.0135   20.3938 H   0  0  0  0  0  0  0  0  0  0  0  0
   10.9298    0.3506   21.2676 N   0  0  0  0  0  0  0  0  0  0  0  0
   11.6219   -0.3493   21.0202 H   0  0  0  0  0  0  0  0  0  0  0  0
   11.1134    0.7764   22.5742 C   0  0  0  0  0  0  0  0  0  0  0  0
   12.3742    0.5321   23.1470 C   0  0  0  0  0  0  0  0  0  0  0  0
   13.1833    0.0993   22.5635 H   0  0  0  0  0  0  0  0  0  0  0  0
   12.5580    0.8551   24.4817 C   0  0  0  0  0  0  0  0  0  0  0  0
   13.5117    0.6470   24.9703 H   0  0  0  0  0  0  0  0  0  0  0  0
   11.6124    1.4087   25.2493 N   0  0  0  0  0  0  0  0  0  0  0  0
   10.4296    1.6670   24.6855 C   0  0  0  0  0  0  0  0  0  0  0  0
    9.6796    2.1095   25.3417 H   0  0  0  0  0  0  0  0  0  0  0  0
   10.1271    1.3940   23.3577 C   0  0  0  0  0  0  0  0  0  0  0  0
    9.1352    1.6230   22.9814 H   0  0  0  0  0  0  0  0  0  0  0  0
    8.8594   -1.6319   22.3350 C   0  0  0  0  0  0  0  0  0  0  0  0
    9.7415   -1.9059   22.8956 H   0  0  0  0  0  0  0  0  0  0  0  0
    7.6818   -2.1587   22.6603 N   0  0  0  0  0  0  0  0  0  0  0  0
    6.8163   -1.5855   21.8073 N   0  0  0  0  0  0  0  0  0  0  0  0
    5.8340   -1.8147   21.8634 H   0  0  0  0  0  0  0  0  0  0  0  0
    5.4284    0.6647   20.0978 C   0  0  0  0  0  0  0  0  0  0  0  0
    4.9877    0.6842   21.0957 H   0  0  0  0  0  0  0  0  0  0  0  0
    4.8123    1.3320   19.0376 C   0  0  0  0  0  0  0  0  0  0  0  0
    3.8783    1.8707   19.1741 H   0  0  0  0  0  0  0  0  0  0  0  0
  1  2  1  0
  2  3  2  0
  3  4  1  0
  4  5  1  0
  4  6  2  0
  6  7  1  0
  7  8  2  0
  8  9  1  0
  9 10  1  0
  9 11  1  0
 11 12  1  0
 11 13  1  0
 13 14  2  0
 14 15  1  0
 14 16  1  0
 16 17  1  0
 16 18  2  0
 18 19  1  0
 19 20  1  0
 19 21  2  0
 21 22  1  0
  8 23  1  0
 23 24  1  0
 23 25  2  0
 25 26  1  0
 26 27  1  0
  6 28  1  0
 28 29  1  0
 28 30  2  0
 30 31  1  0
 30  2  1  0
 26  7  1  0
 21 13  1  0
M  END
>  <cnnaffinity>  (1) 
-5.19896

>  <filename>  (1) 
c1cncc(-c2[nH]ncc2NNc2ccncc2)c1

$$$$
