
     RDKit          3D

 49 53  0  0  0  0  0  0  0  0999 V2000
    4.9602    1.2828   18.8711 C   0  0  0  0  0  0  0  0  0  0  0  0
    5.4488    1.1977   17.5641 C   0  0  0  0  0  0  0  0  0  0  0  0
    6.5321    0.4860   17.2249 N   0  0  0  0  0  0  0  0  0  0  0  0
    7.1725   -0.1603   18.2085 C   0  0  0  0  0  0  0  0  0  0  0  0
    6.7809   -0.1380   19.5591 C   0  0  0  0  0  0  0  0  0  0  0  0
    7.5711   -0.8362   20.6672 C   0  0  0  0  0  0  0  0  0  0  0  0
    8.3279    0.1056   21.5778 C   0  0  0  0  0  0  0  0  0  0  0  0
    9.6373    0.1284   21.6045 N   0  0  0  0  0  0  0  0  0  0  0  0
    9.9305    1.1585   22.4457 N   0  0  0  0  0  0  0  0  0  0  0  0
   11.3018    1.6784   22.4156 C   0  0  0  0  0  0  0  0  0  0  0  0
   12.0336    1.7109   23.7564 C   0  0  0  0  0  0  0  0  0  0  0  0
   13.5038    2.0196   23.4547 C   0  0  0  0  0  0  0  0  0  0  0  0
   13.7090    3.0701   22.5168 O   0  0  0  0  0  0  0  0  0  0  0  0
   12.5891    3.8828   22.2481 C   0  0  0  0  0  0  0  0  0  0  0  0
   11.3859    3.0699   21.7411 C   0  0  0  0  0  0  0  0  0  0  0  0
   11.4217    2.9254   20.6564 H   0  0  0  0  0  0  0  0  0  0  0  0
   10.4967    3.6520   21.9885 H   0  0  0  0  0  0  0  0  0  0  0  0
   12.9232    4.6124   21.5086 H   0  0  0  0  0  0  0  0  0  0  0  0
   12.2800    4.4411   23.1515 H   0  0  0  0  0  0  0  0  0  0  0  0
   13.9892    2.2847   24.3807 H   0  0  0  0  0  0  0  0  0  0  0  0
   14.0289    1.1446   23.0551 H   0  0  0  0  0  0  0  0  0  0  0  0
   11.6376    2.5052   24.3970 H   0  0  0  0  0  0  0  0  0  0  0  0
   11.9469    0.7763   24.3138 H   0  0  0  0  0  0  0  0  0  0  0  0
   11.8469    0.9692   21.7893 H   0  0  0  0  0  0  0  0  0  0  0  0
    8.7649    1.7295   22.8612 C   0  0  0  0  0  0  0  0  0  0  0  0
    8.6460    2.9032   23.8079 C   0  0  0  0  0  0  0  0  0  0  0  0
    8.9649    2.7955   25.1507 C   0  0  0  0  0  0  0  0  0  0  0  0
    8.7978    3.9071   26.0244 C   0  0  0  0  0  0  0  0  0  0  0  0
    8.3738    5.0945   25.6612 N   0  0  0  0  0  0  0  0  0  0  0  0
    8.0618    5.2543   24.3340 C   0  0  0  0  0  0  0  0  0  0  0  0
    7.6157    6.5430   23.9243 C   0  0  0  0  0  0  0  0  0  0  0  0
    7.2893    6.7947   22.6091 C   0  0  0  0  0  0  0  0  0  0  0  0
    7.3907    5.7569   21.6431 C   0  0  0  0  0  0  0  0  0  0  0  0
    7.8089    4.4924   22.0131 C   0  0  0  0  0  0  0  0  0  0  0  0
    8.1648    4.1983   23.3638 C   0  0  0  0  0  0  0  0  0  0  0  0
    7.8822    3.6589   21.3201 H   0  0  0  0  0  0  0  0  0  0  0  0
    7.1291    5.9741   20.6108 H   0  0  0  0  0  0  0  0  0  0  0  0
    6.9432    7.7836   22.3056 H   0  0  0  0  0  0  0  0  0  0  0  0
    7.5504    7.2928   24.7056 H   0  0  0  0  0  0  0  0  0  0  0  0
    9.0246    3.7839   27.0777 H   0  0  0  0  0  0  0  0  0  0  0  0
    9.3338    1.8669   25.5735 H   0  0  0  0  0  0  0  0  0  0  0  0
    7.7410    1.0596   22.3513 N   0  0  0  0  0  0  0  0  0  0  0  0
    6.8782   -1.4125   21.2931 H   0  0  0  0  0  0  0  0  0  0  0  0
    8.2959   -1.5414   20.2459 H   0  0  0  0  0  0  0  0  0  0  0  0
    5.6395    0.6058   19.8862 C   0  0  0  0  0  0  0  0  0  0  0  0
    5.3304    0.6766   20.9314 H   0  0  0  0  0  0  0  0  0  0  0  0
    8.0657   -0.7120   17.9149 H   0  0  0  0  0  0  0  0  0  0  0  0
    4.9529    1.7248   16.7512 H   0  0  0  0  0  0  0  0  0  0  0  0
    4.0871    1.8869   19.0870 H   0  0  0  0  0  0  0  0  0  0  0  0
  1  2  2  0
  2  3  1  0
  3  4  2  0
  4  5  1  0
  5  6  1  0
  6  7  1  0
  7  8  2  0
  8  9  1  0
  9 10  1  0
 10 11  1  0
 11 12  1  0
 12 13  1  0
 13 14  1  0
 14 15  1  0
 15 16  1  0
 15 17  1  0
 14 18  1  0
 14 19  1  0
 12 20  1  0
 12 21  1  0
 11 22  1  0
 11 23  1  0
 10 24  1  0
  9 25  1  0
 25 26  1  0
 26 27  2  0
 27 28  1  0
 28 29  2  0
 29 30  1  0
 30 31  2  0
 31 32  1  0
 32 33  2  0
 33 34  1  0
 34 35  2  0
 34 36  1  0
 33 37  1  0
 32 38  1  0
 31 39  1  0
 28 40  1  0
 27 41  1  0
 25 42  2  0
  6 43  1  0
  6 44  1  0
  5 45  2  0
 45 46  1  0
  4 47  1  0
  2 48  1  0
  1 49  1  0
 45  1  1  0
 42  7  1  0
 15 10  1  0
 35 26  1  0
 35 30  1  0
M  END
>  <cnnaffinity>  (1) 
-6.63162

>  <filename>  (1) 
c1cncc(Cc2nc(-c3ccnc4ccccc34)n(C3CCOCC3)n2)c1

$$$$
