
     RDKit          3D

 33 35  0  0  0  0  0  0  0  0999 V2000
    5.0485    1.7818   16.9769 H   0  0  0  0  0  0  0  0  0  0  0  0
    5.4967    1.2919   17.8391 C   0  0  0  0  0  0  0  0  0  0  0  0
    6.6553    0.6553   17.6123 N   0  0  0  0  0  0  0  0  0  0  0  0
    7.2287    0.0285   18.6488 C   0  0  0  0  0  0  0  0  0  0  0  0
    8.1536   -0.5085   18.4372 H   0  0  0  0  0  0  0  0  0  0  0  0
    6.6926    0.0141   19.9462 C   0  0  0  0  0  0  0  0  0  0  0  0
    7.3829   -0.7459   21.0622 C   0  0  0  0  0  0  0  0  0  0  0  0
    7.5257   -1.7890   20.7645 H   0  0  0  0  0  0  0  0  0  0  0  0
    6.7474   -0.7198   21.9519 H   0  0  0  0  0  0  0  0  0  0  0  0
    8.7233   -0.2968   21.4282 N   0  0  0  0  0  0  0  0  0  0  0  0
    9.7671   -0.9655   20.9045 N   0  0  0  0  0  0  0  0  0  0  0  0
   10.8424   -0.2826   21.2619 C   0  0  0  0  0  0  0  0  0  0  0  0
   11.8185   -0.6356   20.9646 H   0  0  0  0  0  0  0  0  0  0  0  0
   10.5019    0.8621   22.0076 C   0  0  0  0  0  0  0  0  0  0  0  0
   11.1683    1.6363   22.3665 H   0  0  0  0  0  0  0  0  0  0  0  0
    9.1273    0.8181   22.1132 C   0  0  0  0  0  0  0  0  0  0  0  0
    8.1765    1.8510   22.6527 C   0  0  1  0  0  0  0  0  0  0  0  0
    7.2784    1.3404   23.0159 H   0  0  0  0  0  0  0  0  0  0  0  0
    8.7459    2.7442   23.7992 C   0  0  0  0  0  0  0  0  0  0  0  0
    7.9795    2.8812   24.5753 H   0  0  0  0  0  0  0  0  0  0  0  0
    9.6189    2.3246   24.3052 H   0  0  0  0  0  0  0  0  0  0  0  0
    9.0266    4.0715   23.2359 N   0  0  0  0  0  0  0  0  0  0  0  0
    9.8780    4.0032   22.6736 H   0  0  0  0  0  0  0  0  0  0  0  0
    7.9270    4.2512   22.2843 C   0  0  0  0  0  0  0  0  0  0  0  0
    7.0051    4.4783   22.8367 H   0  0  0  0  0  0  0  0  0  0  0  0
    8.0906    5.1017   21.6140 H   0  0  0  0  0  0  0  0  0  0  0  0
    7.8046    2.9012   21.5696 C   0  0  0  0  0  0  0  0  0  0  0  0
    8.5349    2.8540   20.7536 H   0  0  0  0  0  0  0  0  0  0  0  0
    6.8149    2.7215   21.1455 H   0  0  0  0  0  0  0  0  0  0  0  0
    5.4713    0.6602   20.1549 C   0  0  0  0  0  0  0  0  0  0  0  0
    5.0159    0.6501   21.1473 H   0  0  0  0  0  0  0  0  0  0  0  0
    4.8599    1.3197   19.0835 C   0  0  0  0  0  0  0  0  0  0  0  0
    3.9133    1.8350   19.2000 H   0  0  0  0  0  0  0  0  0  0  0  0
  1  2  1  0
  2  3  2  0
  3  4  1  0
  4  5  1  0
  4  6  2  0
  6  7  1  0
  7  8  1  0
  7  9  1  0
  7 10  1  0
 10 11  1  0
 11 12  2  0
 12 13  1  0
 12 14  1  0
 14 15  1  0
 14 16  2  0
 16 17  1  0
 17 18  1  1
 17 19  1  0
 19 20  1  0
 19 21  1  0
 19 22  1  0
 22 23  1  0
 22 24  1  0
 24 25  1  0
 24 26  1  0
 24 27  1  0
 27 28  1  0
 27 29  1  0
  6 30  1  0
 30 31  1  0
 30 32  2  0
 32 33  1  0
 32  2  1  0
 16 10  1  0
 27 17  1  0
M  END
>  <cnnaffinity>  (1) 
-4.37531

>  <filename>  (1) 
c1cncc(Cn2nccc2[C@@H]2CCNC2)c1

$$$$
