
     RDKit          3D

 33 36  0  0  0  0  0  0  0  0999 V2000
    4.9820    1.8013   16.9805 H   0  0  0  0  0  0  0  0  0  0  0  0
    5.4350    1.2864   17.8239 C   0  0  0  0  0  0  0  0  0  0  0  0
    6.5936    0.6565   17.5746 N   0  0  0  0  0  0  0  0  0  0  0  0
    7.1823    0.0303   18.5957 C   0  0  0  0  0  0  0  0  0  0  0  0
    8.1313   -0.4671   18.3979 H   0  0  0  0  0  0  0  0  0  0  0  0
    6.6424   -0.0093   19.8937 C   0  0  0  0  0  0  0  0  0  0  0  0
    7.3761   -0.7281   20.9394 C   0  0  0  0  0  0  0  0  0  0  0  0
    8.5105   -1.3411   20.7437 N   0  0  0  0  0  0  0  0  0  0  0  0
    9.0000   -1.9127   21.8800 N   0  0  0  0  0  0  0  0  0  0  0  0
    8.2242   -1.7532   22.9093 C   0  0  0  0  0  0  0  0  0  0  0  0
    8.4936   -2.3326   24.2589 C   0  0  0  0  0  0  0  0  0  0  0  0
    7.7125   -3.6016   24.5956 C   0  0  0  0  0  0  0  0  0  0  0  0
    6.6544   -3.3438   24.6933 H   0  0  0  0  0  0  0  0  0  0  0  0
    8.0375   -3.9609   25.5789 H   0  0  0  0  0  0  0  0  0  0  0  0
    7.8510   -4.6884   23.6341 N   0  0  0  0  0  0  0  0  0  0  0  0
    8.7425   -5.7259   23.6791 C   0  0  0  0  0  0  0  0  0  0  0  0
    9.4335   -5.8817   24.5052 H   0  0  0  0  0  0  0  0  0  0  0  0
    8.6373   -6.5071   22.6343 N   0  0  0  0  0  0  0  0  0  0  0  0
    7.6289   -5.9728   21.8719 C   0  0  0  0  0  0  0  0  0  0  0  0
    7.3162   -6.4405   20.9428 H   0  0  0  0  0  0  0  0  0  0  0  0
    7.1323   -4.8484   22.4651 C   0  0  0  0  0  0  0  0  0  0  0  0
    6.3999   -4.1116   22.1560 H   0  0  0  0  0  0  0  0  0  0  0  0
    9.8834   -2.1986   24.8052 C   0  0  0  0  0  0  0  0  0  0  0  0
   10.5975   -1.6558   24.1925 H   0  0  0  0  0  0  0  0  0  0  0  0
   10.2805   -3.0750   25.3131 H   0  0  0  0  0  0  0  0  0  0  0  0
    8.7709   -1.4019   25.4171 C   0  0  0  0  0  0  0  0  0  0  0  0
    8.3758   -1.6890   26.3901 H   0  0  0  0  0  0  0  0  0  0  0  0
    8.7537   -0.3295   25.2353 H   0  0  0  0  0  0  0  0  0  0  0  0
    6.8103   -0.8159   22.5728 S   0  0  0  0  0  0  0  0  0  0  0  0
    5.4293    0.6509   20.1437 C   0  0  0  0  0  0  0  0  0  0  0  0
    4.9899    0.6620   21.1441 H   0  0  0  0  0  0  0  0  0  0  0  0
    4.8162    1.3055   19.0793 C   0  0  0  0  0  0  0  0  0  0  0  0
    3.8831    1.8380   19.2166 H   0  0  0  0  0  0  0  0  0  0  0  0
  1  2  1  0
  2  3  2  0
  3  4  1  0
  4  5  1  0
  4  6  2  0
  6  7  1  0
  7  8  2  0
  8  9  1  0
  9 10  2  0
 10 11  1  0
 11 12  1  0
 12 13  1  0
 12 14  1  0
 12 15  1  0
 15 16  1  0
 16 17  1  0
 16 18  2  0
 18 19  1  0
 19 20  1  0
 19 21  2  0
 21 22  1  0
 11 23  1  0
 23 24  1  0
 23 25  1  0
 23 26  1  0
 26 27  1  0
 26 28  1  0
 10 29  1  0
  6 30  1  0
 30 31  1  0
 30 32  2  0
 32 33  1  0
 32  2  1  0
 29  7  1  0
 26 11  1  0
 21 15  1  0
M  END
>  <cnnaffinity>  (1) 
-5.73189

>  <filename>  (1) 
c1cncc(-c2nnc(C3(Cn4ccnc4)CC3)s2)c1

$$$$
