
     RDKit          3D

 31 33  0  0  0  0  0  0  0  0999 V2000
    4.7946    1.3140   19.0960 C   0  0  0  0  0  0  0  0  0  0  0  0
    5.3956    1.2998   17.8345 C   0  0  0  0  0  0  0  0  0  0  0  0
    6.5623    0.6869   17.5755 N   0  0  0  0  0  0  0  0  0  0  0  0
    7.1578    0.0629   18.5957 C   0  0  0  0  0  0  0  0  0  0  0  0
    6.6299   -0.0129   19.8978 C   0  0  0  0  0  0  0  0  0  0  0  0
    7.3909   -0.7142   20.9938 C   0  0  0  0  0  0  0  0  0  0  0  0
    8.8526    0.2580   21.5776 S   0  0  0  0  0  0  0  0  0  0  0  0
    7.9703    1.5988   22.3237 C   0  0  0  0  0  0  0  0  0  0  0  0
    7.4241    1.5271   23.5012 N   0  0  0  0  0  0  0  0  0  0  0  0
    6.7786    2.7040   23.7653 C   0  0  0  0  0  0  0  0  0  0  0  0
    6.1007    2.9378   25.0847 C   0  0  0  0  0  0  0  0  0  0  0  0
    7.0565    2.7516   26.2867 C   0  0  0  0  0  0  0  0  0  0  0  0
    6.8526    1.2793   26.6853 C   0  0  0  0  0  0  0  0  0  0  0  0
    5.6881    0.8299   26.0189 O   0  0  0  0  0  0  0  0  0  0  0  0
    5.0281    1.8761   25.3485 C   0  0  0  0  0  0  0  0  0  0  0  0
    4.2052    2.2952   25.9542 H   0  0  0  0  0  0  0  0  0  0  0  0
    4.5924    1.4454   24.4380 H   0  0  0  0  0  0  0  0  0  0  0  0
    6.7459    1.1637   27.7763 H   0  0  0  0  0  0  0  0  0  0  0  0
    7.6848    0.6431   26.3594 H   0  0  0  0  0  0  0  0  0  0  0  0
    8.1020    2.9575   26.0342 H   0  0  0  0  0  0  0  0  0  0  0  0
    6.7825    3.4275   27.1039 H   0  0  0  0  0  0  0  0  0  0  0  0
    5.6755    3.9383   25.0306 H   0  0  0  0  0  0  0  0  0  0  0  0
    6.7642    3.6488   22.8661 N   0  0  0  0  0  0  0  0  0  0  0  0
    7.6549    3.1189   21.5824 S   0  0  0  0  0  0  0  0  0  0  0  0
    6.7575   -0.8954   21.8700 H   0  0  0  0  0  0  0  0  0  0  0  0
    7.7861   -1.6850   20.6596 H   0  0  0  0  0  0  0  0  0  0  0  0
    5.4179    0.6403   20.1493 C   0  0  0  0  0  0  0  0  0  0  0  0
    4.9952    0.6329   21.1591 H   0  0  0  0  0  0  0  0  0  0  0  0
    8.1137   -0.4136   18.3766 H   0  0  0  0  0  0  0  0  0  0  0  0
    4.9209    1.7895   16.9878 H   0  0  0  0  0  0  0  0  0  0  0  0
    3.8675    1.8524   19.2498 H   0  0  0  0  0  0  0  0  0  0  0  0
  1  2  2  0
  2  3  1  0
  3  4  2  0
  4  5  1  0
  5  6  1  0
  6  7  1  0
  7  8  1  0
  8  9  2  0
  9 10  1  0
 10 11  1  0
 11 12  1  0
 12 13  1  0
 13 14  1  0
 14 15  1  0
 15 16  1  0
 15 17  1  0
 13 18  1  0
 13 19  1  0
 12 20  1  0
 12 21  1  0
 11 22  1  0
 10 23  2  0
 23 24  1  0
  6 25  1  0
  6 26  1  0
  5 27  2  0
 27 28  1  0
  4 29  1  0
  2 30  1  0
  1 31  1  0
 27  1  1  0
 24  8  1  0
 15 11  1  0
M  END
>  <cnnaffinity>  (1) 
-4.67437

>  <filename>  (1) 
c1cncc(CSc2nc(C3CCOC3)ns2)c1

$$$$
