
     RDKit          3D

 51 55  0  0  0  0  0  0  0  0999 V2000
    4.7810    1.2626   18.8218 C   0  0  0  0  0  0  0  0  0  0  0  0
    5.3514    1.2452   17.5465 C   0  0  0  0  0  0  0  0  0  0  0  0
    6.4784    0.5805   17.2499 N   0  0  0  0  0  0  0  0  0  0  0  0
    7.0938   -0.0607   18.2502 C   0  0  0  0  0  0  0  0  0  0  0  0
    6.6427   -0.0671   19.5810 C   0  0  0  0  0  0  0  0  0  0  0  0
    7.4888   -0.6362   20.7149 C   0  0  0  0  0  0  0  0  0  0  0  0
    8.2996    0.4100   21.4362 C   0  0  0  0  0  0  0  0  0  0  0  0
    7.7362    1.2026   22.3243 N   0  0  0  0  0  0  0  0  0  0  0  0
    8.7557    2.0093   22.7348 N   0  0  0  0  0  0  0  0  0  0  0  0
    8.6154    2.6511   24.0541 C   0  0  0  0  0  0  0  0  0  0  0  0
    8.9275    1.7500   25.2702 C   0  0  0  0  0  0  0  0  0  0  0  0
   10.1711    0.8709   25.0604 C   0  0  0  0  0  0  0  0  0  0  0  0
   10.4757   -0.0634   26.2291 C   0  0  0  0  0  0  0  0  0  0  0  0
    9.2353   -0.8392   26.7237 C   0  0  0  0  0  0  0  0  0  0  0  0
    8.0157    0.0788   26.9511 C   0  0  0  0  0  0  0  0  0  0  0  0
    7.7165    0.8868   25.6774 C   0  0  0  0  0  0  0  0  0  0  0  0
    6.8328    1.5257   25.8243 H   0  0  0  0  0  0  0  0  0  0  0  0
    7.4808    0.2051   24.8436 H   0  0  0  0  0  0  0  0  0  0  0  0
    7.1365   -0.5180   27.2319 H   0  0  0  0  0  0  0  0  0  0  0  0
    8.2032    0.7690   27.7911 H   0  0  0  0  0  0  0  0  0  0  0  0
    8.9473   -1.5774   25.9588 H   0  0  0  0  0  0  0  0  0  0  0  0
    9.4729   -1.4028   27.6371 H   0  0  0  0  0  0  0  0  0  0  0  0
   10.9465    0.4820   27.0505 H   0  0  0  0  0  0  0  0  0  0  0  0
   11.2527   -0.7273   25.8450 H   0  0  0  0  0  0  0  0  0  0  0  0
   11.0547    1.4875   24.8507 H   0  0  0  0  0  0  0  0  0  0  0  0
   10.0126    0.2350   24.1785 H   0  0  0  0  0  0  0  0  0  0  0  0
    9.1403    2.4340   26.1061 H   0  0  0  0  0  0  0  0  0  0  0  0
    9.2428    3.5352   24.0799 H   0  0  0  0  0  0  0  0  0  0  0  0
    7.5733    2.9776   24.0870 H   0  0  0  0  0  0  0  0  0  0  0  0
    9.8837    1.6286   22.0681 C   0  0  0  0  0  0  0  0  0  0  0  0
   11.1940    2.2222   22.2528 C   0  0  0  0  0  0  0  0  0  0  0  0
   12.3354    1.4248   22.2681 C   0  0  0  0  0  0  0  0  0  0  0  0
   13.5662    1.8955   22.5609 N   0  0  0  0  0  0  0  0  0  0  0  0
   13.7370    3.2048   22.7873 C   0  0  0  0  0  0  0  0  0  0  0  0
   12.6575    4.1055   22.8186 C   0  0  0  0  0  0  0  0  0  0  0  0
   11.4004    3.5846   22.5007 C   0  0  0  0  0  0  0  0  0  0  0  0
   10.5387    4.6377   22.5890 N   0  0  0  0  0  0  0  0  0  0  0  0
   11.2973    5.7314   22.9327 C   0  0  0  0  0  0  0  0  0  0  0  0
   12.5537    5.4734   23.1019 N   0  0  0  0  0  0  0  0  0  0  0  0
   10.8361    6.6942   23.0992 H   0  0  0  0  0  0  0  0  0  0  0  0
    9.6812    4.6879   22.0633 H   0  0  0  0  0  0  0  0  0  0  0  0
   14.7496    3.5810   22.9121 H   0  0  0  0  0  0  0  0  0  0  0  0
   12.2687    0.3541   22.0701 H   0  0  0  0  0  0  0  0  0  0  0  0
    9.6336    0.6090   21.2652 N   0  0  0  0  0  0  0  0  0  0  0  0
    6.8388   -1.1040   21.4632 H   0  0  0  0  0  0  0  0  0  0  0  0
    8.1757   -1.4048   20.3482 H   0  0  0  0  0  0  0  0  0  0  0  0
    5.4351    0.5881   19.8563 C   0  0  0  0  0  0  0  0  0  0  0  0
    5.0367    0.5834   20.8728 H   0  0  0  0  0  0  0  0  0  0  0  0
    8.0101   -0.5910   17.9846 H   0  0  0  0  0  0  0  0  0  0  0  0
    4.8916    1.7903   16.7243 H   0  0  0  0  0  0  0  0  0  0  0  0
    3.8665    1.8185   18.9952 H   0  0  0  0  0  0  0  0  0  0  0  0
  1  2  2  0
  2  3  1  0
  3  4  2  0
  4  5  1  0
  5  6  1  0
  6  7  1  0
  7  8  2  0
  8  9  1  0
  9 10  1  0
 10 11  1  0
 11 12  1  0
 12 13  1  0
 13 14  1  0
 14 15  1  0
 15 16  1  0
 16 17  1  0
 16 18  1  0
 15 19  1  0
 15 20  1  0
 14 21  1  0
 14 22  1  0
 13 23  1  0
 13 24  1  0
 12 25  1  0
 12 26  1  0
 11 27  1  0
 10 28  1  0
 10 29  1  0
  9 30  1  0
 30 31  1  0
 31 32  2  0
 32 33  1  0
 33 34  2  0
 34 35  1  0
 35 36  2  0
 36 37  1  0
 37 38  1  0
 38 39  2  0
 38 40  1  0
 37 41  1  0
 34 42  1  0
 32 43  1  0
 30 44  2  0
  6 45  1  0
  6 46  1  0
  5 47  2  0
 47 48  1  0
  4 49  1  0
  2 50  1  0
  1 51  1  0
 47  1  1  0
 44  7  1  0
 16 11  1  0
 36 31  1  0
 39 35  1  0
M  END
>  <cnnaffinity>  (1) 
-5.84921

>  <filename>  (1) 
c1cncc(Cc2nc(-c3cncc4nc[nH]c34)n(CC3CCCCC3)n2)c1

$$$$
