
     RDKit          3D

 39 42  0  0  0  0  0  0  0  0999 V2000
    4.9154    1.8202   16.9804 H   0  0  0  0  0  0  0  0  0  0  0  0
    5.3802    1.3087   17.8198 C   0  0  0  0  0  0  0  0  0  0  0  0
    6.5418    0.6892   17.5599 N   0  0  0  0  0  0  0  0  0  0  0  0
    7.1618    0.0867   18.5798 C   0  0  0  0  0  0  0  0  0  0  0  0
    8.1101   -0.3843   18.3183 H   0  0  0  0  0  0  0  0  0  0  0  0
    6.6813    0.0506   19.9141 C   0  0  0  0  0  0  0  0  0  0  0  0
    7.4521   -0.6443   20.9774 C   0  0  0  0  0  0  0  0  0  0  0  0
    8.3993   -1.6518   20.9241 C   0  0  0  0  0  0  0  0  0  0  0  0
    8.8678   -2.0791   20.0523 H   0  0  0  0  0  0  0  0  0  0  0  0
    8.8085   -2.0955   22.1535 N   0  0  0  0  0  0  0  0  0  0  0  0
    8.1488   -1.3230   22.9730 C   0  0  0  0  0  0  0  0  0  0  0  0
    8.2241   -0.9696   24.6638 S   0  0  0  0  0  0  0  0  0  0  0  0
    7.1162    0.3665   24.3508 C   0  0  0  0  0  0  0  0  0  0  0  0
    6.6366    1.2454   25.4692 C   0  0  0  0  0  0  0  0  0  0  0  0
    6.5767    2.2645   25.0688 H   0  0  0  0  0  0  0  0  0  0  0  0
    7.3886    1.2565   26.2701 H   0  0  0  0  0  0  0  0  0  0  0  0
    5.2538    0.8444   26.0632 C   0  0  0  0  0  0  0  0  0  0  0  0
    5.0762    1.5139   26.9200 H   0  0  0  0  0  0  0  0  0  0  0  0
    4.1075    1.0556   25.0542 C   0  0  0  0  0  0  0  0  0  0  0  0
    4.0552    2.1151   24.7755 H   0  0  0  0  0  0  0  0  0  0  0  0
    4.3625    0.5279   24.1351 H   0  0  0  0  0  0  0  0  0  0  0  0
    2.7419    0.5885   25.5807 C   0  0  0  0  0  0  0  0  0  0  0  0
    1.9668    0.6800   24.8097 H   0  0  0  0  0  0  0  0  0  0  0  0
    2.4408    1.2680   26.3873 H   0  0  0  0  0  0  0  0  0  0  0  0
    2.7745   -0.8418   26.1362 C   0  0  0  0  0  0  0  0  0  0  0  0
    2.9418   -1.5529   25.3128 H   0  0  0  0  0  0  0  0  0  0  0  0
    1.8010   -1.0985   26.5720 H   0  0  0  0  0  0  0  0  0  0  0  0
    3.8863   -0.9980   27.1835 C   0  0  0  0  0  0  0  0  0  0  0  0
    3.6605   -0.3639   28.0546 H   0  0  0  0  0  0  0  0  0  0  0  0
    3.9234   -2.0287   27.5535 H   0  0  0  0  0  0  0  0  0  0  0  0
    5.2461   -0.6003   26.5948 C   0  0  0  0  0  0  0  0  0  0  0  0
    5.4668   -1.2802   25.7591 H   0  0  0  0  0  0  0  0  0  0  0  0
    6.0468   -0.7258   27.3337 H   0  0  0  0  0  0  0  0  0  0  0  0
    6.7459    0.5220   23.1188 N   0  0  0  0  0  0  0  0  0  0  0  0
    7.3105   -0.4484   22.3509 N   0  0  0  0  0  0  0  0  0  0  0  0
    5.4425    0.6889   20.1419 C   0  0  0  0  0  0  0  0  0  0  0  0
    5.0085    0.7005   21.1382 H   0  0  0  0  0  0  0  0  0  0  0  0
    4.7870    1.3233   19.0832 C   0  0  0  0  0  0  0  0  0  0  0  0
    3.8431    1.8439   19.2173 H   0  0  0  0  0  0  0  0  0  0  0  0
  1  2  1  0
  2  3  2  0
  3  4  1  0
  4  5  1  0
  4  6  2  0
  6  7  1  0
  7  8  2  0
  8  9  1  0
  8 10  1  0
 10 11  2  0
 11 12  1  0
 12 13  1  0
 13 14  1  0
 14 15  1  0
 14 16  1  0
 14 17  1  0
 17 18  1  0
 17 19  1  0
 19 20  1  0
 19 21  1  0
 19 22  1  0
 22 23  1  0
 22 24  1  0
 22 25  1  0
 25 26  1  0
 25 27  1  0
 25 28  1  0
 28 29  1  0
 28 30  1  0
 28 31  1  0
 31 32  1  0
 31 33  1  0
 13 34  2  0
 34 35  1  0
  6 36  1  0
 36 37  1  0
 36 38  2  0
 38 39  1  0
 38  2  1  0
 35  7  1  0
 35 11  1  0
 31 17  1  0
M  END
>  <cnnaffinity>  (1) 
-5.31962

>  <filename>  (1) 
c1cncc(-c2cnc3sc(CC4CCCCC4)nn23)c1

$$$$
