
     RDKit          3D

 37 40  0  0  0  0  0  0  0  0999 V2000
    4.9087    1.8154   16.9599 H   0  0  0  0  0  0  0  0  0  0  0  0
    5.3804    1.3120   17.8051 C   0  0  0  0  0  0  0  0  0  0  0  0
    6.5412    0.6873   17.5482 N   0  0  0  0  0  0  0  0  0  0  0  0
    7.1562    0.0831   18.5728 C   0  0  0  0  0  0  0  0  0  0  0  0
    8.0960   -0.4167   18.3329 H   0  0  0  0  0  0  0  0  0  0  0  0
    6.6559    0.0379   19.8938 C   0  0  0  0  0  0  0  0  0  0  0  0
    7.2944   -0.7093   20.9929 C   0  0  0  0  0  0  0  0  0  0  0  0
    6.7783   -1.6602   21.8325 C   0  0  0  0  0  0  0  0  0  0  0  0
    5.7554   -2.0156   21.8439 H   0  0  0  0  0  0  0  0  0  0  0  0
    7.7430   -2.1744   22.6590 N   0  0  0  0  0  0  0  0  0  0  0  0
    8.8349   -1.5217   22.3416 C   0  0  0  0  0  0  0  0  0  0  0  0
    9.8166   -1.6094   22.7929 H   0  0  0  0  0  0  0  0  0  0  0  0
    8.6221   -0.6110   21.3475 N   0  0  0  0  0  0  0  0  0  0  0  0
    9.6521    0.2470   20.7765 C   0  0  0  0  0  0  0  0  0  0  0  0
   10.3215   -0.4086   20.2075 H   0  0  0  0  0  0  0  0  0  0  0  0
    9.1646    0.9435   20.0917 H   0  0  0  0  0  0  0  0  0  0  0  0
   10.4213    1.0218   21.8174 C   0  0  0  0  0  0  0  0  0  0  0  0
   11.7250    0.6610   22.1023 C   0  0  0  0  0  0  0  0  0  0  0  0
   12.1909   -0.1573   21.5482 H   0  0  0  0  0  0  0  0  0  0  0  0
   12.4568    1.2970   23.1407 C   0  0  0  0  0  0  0  0  0  0  0  0
   13.4773    0.9795   23.3598 H   0  0  0  0  0  0  0  0  0  0  0  0
   11.8529    2.2964   23.8652 C   0  0  0  0  0  0  0  0  0  0  0  0
   12.3462    2.7882   24.6815 H   0  0  0  0  0  0  0  0  0  0  0  0
   10.5245    2.7331   23.5931 C   0  0  0  0  0  0  0  0  0  0  0  0
    9.9188    3.7905   24.3430 C   0  0  0  0  0  0  0  0  0  0  0  0
   10.5063    4.3244   25.0839 H   0  0  0  0  0  0  0  0  0  0  0  0
    8.6250    4.1771   24.1105 C   0  0  0  0  0  0  0  0  0  0  0  0
    8.1820    4.9745   24.7047 H   0  0  0  0  0  0  0  0  0  0  0  0
    7.8741    3.5468   23.0825 C   0  0  0  0  0  0  0  0  0  0  0  0
    6.8558    3.8800   22.8913 H   0  0  0  0  0  0  0  0  0  0  0  0
    8.4354    2.5431   22.3224 C   0  0  0  0  0  0  0  0  0  0  0  0
    7.8471    2.0692   21.5395 H   0  0  0  0  0  0  0  0  0  0  0  0
    9.7820    2.0912   22.5504 C   0  0  0  0  0  0  0  0  0  0  0  0
    5.4280    0.6733   20.1263 C   0  0  0  0  0  0  0  0  0  0  0  0
    5.0064    0.6448   21.1310 H   0  0  0  0  0  0  0  0  0  0  0  0
    4.7930    1.3307   19.0726 C   0  0  0  0  0  0  0  0  0  0  0  0
    3.8603    1.8545   19.2254 H   0  0  0  0  0  0  0  0  0  0  0  0
  1  2  1  0
  2  3  2  0
  3  4  1  0
  4  5  1  0
  4  6  2  0
  6  7  1  0
  7  8  2  0
  8  9  1  0
  8 10  1  0
 10 11  2  0
 11 12  1  0
 11 13  1  0
 13 14  1  0
 14 15  1  0
 14 16  1  0
 14 17  1  0
 17 18  2  0
 18 19  1  0
 18 20  1  0
 20 21  1  0
 20 22  2  0
 22 23  1  0
 22 24  1  0
 24 25  2  0
 25 26  1  0
 25 27  1  0
 27 28  1  0
 27 29  2  0
 29 30  1  0
 29 31  1  0
 31 32  1  0
 31 33  2  0
  6 34  1  0
 34 35  1  0
 34 36  2  0
 36 37  1  0
 36  2  1  0
 13  7  1  0
 33 17  1  0
 33 24  1  0
M  END
>  <cnnaffinity>  (1) 
-5.6562

>  <filename>  (1) 
c1cncc(-c2cncn2Cc2cccc3ccccc23)c1

$$$$
