
     RDKit          3D

 32 35  0  0  0  0  0  0  0  0999 V2000
    4.8133    1.3034   19.1097 C   0  0  0  0  0  0  0  0  0  0  0  0
    5.4057    1.2884   17.8443 C   0  0  0  0  0  0  0  0  0  0  0  0
    6.5727    0.6704   17.5955 N   0  0  0  0  0  0  0  0  0  0  0  0
    7.1839    0.0483   18.6062 C   0  0  0  0  0  0  0  0  0  0  0  0
    6.6611    0.0028   19.9093 C   0  0  0  0  0  0  0  0  0  0  0  0
    7.3602   -0.6734   20.9375 N   0  0  0  0  0  0  0  0  0  0  0  0
    7.2479   -0.4847   22.2770 C   0  0  0  0  0  0  0  0  0  0  0  0
    8.1074   -1.3593   22.8999 C   0  0  0  0  0  0  0  0  0  0  0  0
    8.3309   -1.5000   24.3479 C   0  0  0  0  0  0  0  0  0  0  0  0
    8.1937   -0.4147   25.1872 C   0  0  0  0  0  0  0  0  0  0  0  0
    8.3975   -0.4143   26.5209 N   0  0  0  0  0  0  0  0  0  0  0  0
    8.7523   -1.5509   27.0768 C   0  0  0  0  0  0  0  0  0  0  0  0
    8.9219   -2.7615   26.3766 C   0  0  0  0  0  0  0  0  0  0  0  0
    9.2888   -4.0005   26.9831 C   0  0  0  0  0  0  0  0  0  0  0  0
    9.4056   -5.1076   26.1951 C   0  0  0  0  0  0  0  0  0  0  0  0
    9.1585   -4.9834   24.8032 C   0  0  0  0  0  0  0  0  0  0  0  0
    8.8340   -3.8628   24.2088 N   0  0  0  0  0  0  0  0  0  0  0  0
    8.7014   -2.7373   24.9708 C   0  0  0  0  0  0  0  0  0  0  0  0
    9.2421   -5.8615   24.1686 H   0  0  0  0  0  0  0  0  0  0  0  0
    9.6805   -6.0702   26.6120 H   0  0  0  0  0  0  0  0  0  0  0  0
    9.4643   -4.0943   28.0490 H   0  0  0  0  0  0  0  0  0  0  0  0
    8.9148   -1.5287   28.1495 H   0  0  0  0  0  0  0  0  0  0  0  0
    7.9192    0.5568   24.7794 H   0  0  0  0  0  0  0  0  0  0  0  0
    8.7326   -2.0283   21.8065 C   0  0  0  0  0  0  0  0  0  0  0  0
    8.2894   -1.6074   20.6415 N   0  0  0  0  0  0  0  0  0  0  0  0
    9.4869   -2.7957   21.8975 H   0  0  0  0  0  0  0  0  0  0  0  0
    6.5623    0.2470   22.6866 H   0  0  0  0  0  0  0  0  0  0  0  0
    5.4421    0.6476   20.1678 C   0  0  0  0  0  0  0  0  0  0  0  0
    4.9933    0.6284   21.1620 H   0  0  0  0  0  0  0  0  0  0  0  0
    8.1283   -0.4338   18.3746 H   0  0  0  0  0  0  0  0  0  0  0  0
    4.9252    1.7780   16.9995 H   0  0  0  0  0  0  0  0  0  0  0  0
    3.8832    1.8356   19.2637 H   0  0  0  0  0  0  0  0  0  0  0  0
  1  2  2  0
  2  3  1  0
  3  4  2  0
  4  5  1  0
  5  6  1  0
  6  7  1  0
  7  8  2  0
  8  9  1  0
  9 10  2  0
 10 11  1  0
 11 12  2  0
 12 13  1  0
 13 14  2  0
 14 15  1  0
 15 16  2  0
 16 17  1  0
 17 18  2  0
 16 19  1  0
 15 20  1  0
 14 21  1  0
 12 22  1  0
 10 23  1  0
  8 24  1  0
 24 25  2  0
 24 26  1  0
  7 27  1  0
  5 28  2  0
 28 29  1  0
  4 30  1  0
  2 31  1  0
  1 32  1  0
 28  1  1  0
 25  6  1  0
 18  9  1  0
 18 13  1  0
M  END
>  <cnnaffinity>  (1) 
-5.45519

>  <filename>  (1) 
c1cncc(-n2cc(-c3cncc4cccnc34)cn2)c1

$$$$
