
     RDKit          3D

 48 53  0  0  0  0  0  0  0  0999 V2000
    4.8186    1.3001   19.0422 C   0  0  0  0  0  0  0  0  0  0  0  0
    5.4096    1.2925   17.7766 C   0  0  0  0  0  0  0  0  0  0  0  0
    6.5530    0.6460   17.4956 N   0  0  0  0  0  0  0  0  0  0  0  0
    7.1572    0.0036   18.5033 C   0  0  0  0  0  0  0  0  0  0  0  0
    6.6808   -0.0203   19.8265 C   0  0  0  0  0  0  0  0  0  0  0  0
    7.4669   -0.6509   20.9742 C   0  0  0  0  0  0  0  0  0  0  0  0
    8.3342    0.3164   21.7352 C   0  0  0  0  0  0  0  0  0  0  0  0
    9.6391    0.4149   21.5537 N   0  0  0  0  0  0  0  0  0  0  0  0
    9.9643    1.4936   22.3260 N   0  0  0  0  0  0  0  0  0  0  0  0
   11.2618    2.0519   22.4189 C   0  0  0  0  0  0  0  0  0  0  0  0
   12.3683    1.2109   22.6010 C   0  0  0  0  0  0  0  0  0  0  0  0
   12.5056   -0.1569   22.5987 N   0  0  0  0  0  0  0  0  0  0  0  0
   13.8328   -0.4164   22.7467 C   0  0  0  0  0  0  0  0  0  0  0  0
   14.5623    0.6524   22.8678 N   0  0  0  0  0  0  0  0  0  0  0  0
   13.6691    1.7123   22.7755 C   0  0  0  0  0  0  0  0  0  0  0  0
   13.8920    3.1074   22.7127 C   0  0  0  0  0  0  0  0  0  0  0  0
   12.8057    3.9457   22.4881 C   0  0  0  0  0  0  0  0  0  0  0  0
   11.4976    3.4272   22.3615 C   0  0  0  0  0  0  0  0  0  0  0  0
   10.6703    4.1099   22.2057 H   0  0  0  0  0  0  0  0  0  0  0  0
   12.9630    5.0173   22.4062 H   0  0  0  0  0  0  0  0  0  0  0  0
   14.8965    3.5078   22.7296 H   0  0  0  0  0  0  0  0  0  0  0  0
   14.2227   -1.4314   22.7327 H   0  0  0  0  0  0  0  0  0  0  0  0
   11.7726   -0.7838   22.3061 H   0  0  0  0  0  0  0  0  0  0  0  0
    8.8604    1.9273   22.9898 C   0  0  0  0  0  0  0  0  0  0  0  0
    8.8794    3.0184   24.0065 C   0  0  0  0  0  0  0  0  0  0  0  0
    7.9963    2.7764   25.2663 C   0  0  0  0  0  0  0  0  0  0  0  0
    7.1295    4.0449   25.2424 C   0  0  0  0  0  0  0  0  0  0  0  0
    6.0927    3.9481   24.0963 C   0  0  0  0  0  0  0  0  0  0  0  0
    6.9697    4.2992   22.8635 C   0  0  0  0  0  0  0  0  0  0  0  0
    8.3488    4.4086   23.5286 C   0  0  0  0  0  0  0  0  0  0  0  0
    8.0444    5.0313   24.7666 O   0  0  0  0  0  0  0  0  0  0  0  0
    9.0697    5.0256   22.9830 H   0  0  0  0  0  0  0  0  0  0  0  0
    6.9556    3.5304   22.0867 H   0  0  0  0  0  0  0  0  0  0  0  0
    6.6817    5.2548   22.4151 H   0  0  0  0  0  0  0  0  0  0  0  0
    5.6655    2.9428   24.0247 H   0  0  0  0  0  0  0  0  0  0  0  0
    5.2820    4.6681   24.2331 H   0  0  0  0  0  0  0  0  0  0  0  0
    6.7386    4.3553   26.2175 H   0  0  0  0  0  0  0  0  0  0  0  0
    7.3955    1.8637   25.2087 H   0  0  0  0  0  0  0  0  0  0  0  0
    8.6106    2.7248   26.1716 H   0  0  0  0  0  0  0  0  0  0  0  0
    9.9057    3.1758   24.3445 H   0  0  0  0  0  0  0  0  0  0  0  0
    7.8162    1.2022   22.6300 N   0  0  0  0  0  0  0  0  0  0  0  0
    8.0983   -1.4683   20.6093 H   0  0  0  0  0  0  0  0  0  0  0  0
    6.7656   -1.0673   21.7055 H   0  0  0  0  0  0  0  0  0  0  0  0
    5.4671    0.6307   20.0819 C   0  0  0  0  0  0  0  0  0  0  0  0
    5.0495    0.6150   21.0902 H   0  0  0  0  0  0  0  0  0  0  0  0
    8.0825   -0.5199   18.2534 H   0  0  0  0  0  0  0  0  0  0  0  0
    4.9466    1.8259   16.9492 H   0  0  0  0  0  0  0  0  0  0  0  0
    3.8847    1.8283   19.2026 H   0  0  0  0  0  0  0  0  0  0  0  0
  1  2  2  0
  2  3  1  0
  3  4  2  0
  4  5  1  0
  5  6  1  0
  6  7  1  0
  7  8  2  0
  8  9  1  0
  9 10  1  0
 10 11  2  0
 11 12  1  0
 12 13  1  0
 13 14  2  0
 14 15  1  0
 15 16  2  0
 16 17  1  0
 17 18  2  0
 18 19  1  0
 17 20  1  0
 16 21  1  0
 13 22  1  0
 12 23  1  0
  9 24  1  0
 24 25  1  0
 25 26  1  0
 26 27  1  0
 27 28  1  0
 28 29  1  0
 29 30  1  0
 30 31  1  0
 30 32  1  0
 29 33  1  0
 29 34  1  0
 28 35  1  0
 28 36  1  0
 27 37  1  0
 26 38  1  0
 26 39  1  0
 25 40  1  0
 24 41  2  0
  6 42  1  0
  6 43  1  0
  5 44  2  0
 44 45  1  0
  4 46  1  0
  2 47  1  0
  1 48  1  0
 44  1  1  0
 41  7  1  0
 18 10  1  0
 30 25  1  0
 15 11  1  0
 31 27  1  0
M  END
>  <cnnaffinity>  (1) 
-6.6167

>  <filename>  (1) 
c1cncc(Cc2nc(C3CC4CCC3O4)n(-c3cccc4nc[nH]c34)n2)c1

$$$$
