
     RDKit          3D

 37 39  0  0  0  0  0  0  0  0999 V2000
    5.1335    1.7355   17.0441 H   0  0  0  0  0  0  0  0  0  0  0  0
    5.5733    1.2464   17.9130 C   0  0  0  0  0  0  0  0  0  0  0  0
    6.7387    0.6173   17.7085 N   0  0  0  0  0  0  0  0  0  0  0  0
    7.3047    0.0209   18.7687 C   0  0  0  0  0  0  0  0  0  0  0  0
    8.2360   -0.5115   18.5740 H   0  0  0  0  0  0  0  0  0  0  0  0
    6.7586    0.0112   20.0673 C   0  0  0  0  0  0  0  0  0  0  0  0
    7.3997   -0.7660   21.1997 C   0  0  2  0  0  0  0  0  0  0  0  0
    8.3854   -1.1405   20.8866 H   0  0  0  0  0  0  0  0  0  0  0  0
    6.5259   -1.9830   21.6191 C   0  0  0  0  0  0  0  0  0  0  0  0
    5.4525   -1.7719   21.4813 H   0  0  0  0  0  0  0  0  0  0  0  0
    6.7462   -2.8508   20.9787 H   0  0  0  0  0  0  0  0  0  0  0  0
    6.7922   -2.2190   23.0381 N   0  0  0  0  0  0  0  0  0  0  0  0
    7.1051   -3.1635   23.2219 H   0  0  0  0  0  0  0  0  0  0  0  0
    7.7447   -1.2071   23.5211 C   0  0  0  0  0  0  0  0  0  0  0  0
    8.7929   -1.5536   23.5233 H   0  0  0  0  0  0  0  0  0  0  0  0
    7.4887   -0.8976   24.5394 H   0  0  0  0  0  0  0  0  0  0  0  0
    7.6390   -0.0289   22.5517 C   0  0  1  0  0  0  0  0  0  0  0  0
    6.7562    0.5838   22.8053 H   0  0  0  0  0  0  0  0  0  0  0  0
    8.8400    0.7340   22.6856 O   0  0  0  0  0  0  0  0  0  0  0  0
    8.9666    1.9909   22.0227 C   0  0  0  0  0  0  0  0  0  0  0  0
    8.1698    2.0827   21.2638 H   0  0  0  0  0  0  0  0  0  0  0  0
   10.3548    2.0674   21.3695 C   0  0  0  0  0  0  0  0  0  0  0  0
   10.2978    2.6821   20.4749 H   0  0  0  0  0  0  0  0  0  0  0  0
   10.6888    1.0728   21.0601 H   0  0  0  0  0  0  0  0  0  0  0  0
   11.3161    2.7826   22.3478 C   0  0  0  0  0  0  0  0  0  0  0  0
   11.9876    2.0697   22.8307 H   0  0  0  0  0  0  0  0  0  0  0  0
   11.9580    3.4811   21.7977 H   0  0  0  0  0  0  0  0  0  0  0  0
   10.4262    3.5012   23.3967 C   0  0  0  0  0  0  0  0  0  0  0  0
   10.6265    4.5828   23.4248 H   0  0  0  0  0  0  0  0  0  0  0  0
   10.6445    3.1284   24.4021 H   0  0  0  0  0  0  0  0  0  0  0  0
    8.9560    3.1899   23.0024 C   0  0  0  0  0  0  0  0  0  0  0  0
    8.3047    2.9970   23.8645 H   0  0  0  0  0  0  0  0  0  0  0  0
    8.5438    4.0531   22.4681 H   0  0  0  0  0  0  0  0  0  0  0  0
    5.5223    0.6536   20.2457 C   0  0  0  0  0  0  0  0  0  0  0  0
    5.0203    0.6270   21.2169 H   0  0  0  0  0  0  0  0  0  0  0  0
    4.9249    1.2890   19.1524 C   0  0  0  0  0  0  0  0  0  0  0  0
    3.9769    1.8044   19.2494 H   0  0  0  0  0  0  0  0  0  0  0  0
  1  2  1  0
  2  3  2  0
  3  4  1  0
  4  5  1  0
  4  6  2  0
  6  7  1  0
  7  8  1  6
  7  9  1  0
  9 10  1  0
  9 11  1  0
  9 12  1  0
 12 13  1  0
 12 14  1  0
 14 15  1  0
 14 16  1  0
 14 17  1  0
 17 18  1  1
 17 19  1  0
 19 20  1  0
 20 21  1  0
 20 22  1  0
 22 23  1  0
 22 24  1  0
 22 25  1  0
 25 26  1  0
 25 27  1  0
 25 28  1  0
 28 29  1  0
 28 30  1  0
 28 31  1  0
 31 32  1  0
 31 33  1  0
  6 34  1  0
 34 35  1  0
 34 36  2  0
 36 37  1  0
 36  2  1  0
 17  7  1  0
 31 20  1  0
M  END
>  <cnnaffinity>  (1) 
-4.8361

>  <filename>  (1) 
c1cncc([C@@H]2CNC[C@H]2OC2CCCC2)c1

$$$$
