
     RDKit          3D

 37 39  0  0  0  0  0  0  0  0999 V2000
    4.8019    1.3179   19.0534 C   0  0  0  0  0  0  0  0  0  0  0  0
    5.4027    1.2715   17.7913 C   0  0  0  0  0  0  0  0  0  0  0  0
    6.5359    0.6004   17.5390 N   0  0  0  0  0  0  0  0  0  0  0  0
    7.1269   -0.0156   18.5686 C   0  0  0  0  0  0  0  0  0  0  0  0
    6.6492    0.0146   19.8862 C   0  0  0  0  0  0  0  0  0  0  0  0
    7.4528   -0.6276   20.9774 C   0  0  0  0  0  0  0  0  0  0  0  0
    7.0834   -2.0619   20.9709 N   0  0  0  0  0  4  0  0  0  0  0  0
    7.6438   -2.9292   22.0465 C   0  0  0  0  0  0  0  0  0  0  0  0
    7.1888   -4.3713   21.8890 C   0  0  0  0  0  0  0  0  0  0  0  0
    7.3510   -4.9958   23.2798 C   0  0  0  0  0  0  0  0  0  0  0  0
    7.2664   -3.8438   24.1922 N   0  0  0  0  0  0  0  0  0  0  0  0
    6.9078   -3.9826   25.5122 C   0  0  0  0  0  0  0  0  0  0  0  0
    6.4308   -2.8850   26.3272 C   0  0  0  0  0  0  0  0  0  0  0  0
    6.0034   -3.0620   27.5815 N   0  0  0  0  0  0  0  0  0  0  0  0
    6.0699   -4.3200   28.0718 C   0  0  0  0  0  0  0  0  0  0  0  0
    6.6063   -5.3700   27.3143 C   0  0  0  0  0  0  0  0  0  0  0  0
    7.0087   -5.2237   26.0365 N   0  0  0  0  0  0  0  0  0  0  0  0
    6.6945   -6.3579   27.7598 H   0  0  0  0  0  0  0  0  0  0  0  0
    5.6884   -4.4772   29.0806 H   0  0  0  0  0  0  0  0  0  0  0  0
    6.3503   -1.8771   25.9289 H   0  0  0  0  0  0  0  0  0  0  0  0
    7.1956   -2.5700   23.4785 C   0  0  0  0  0  0  0  0  0  0  0  0
    7.8519   -1.8108   23.9201 H   0  0  0  0  0  0  0  0  0  0  0  0
    6.1703   -2.1600   23.4609 H   0  0  0  0  0  0  0  0  0  0  0  0
    8.3124   -5.5015   23.4275 H   0  0  0  0  0  0  0  0  0  0  0  0
    6.5703   -5.7365   23.4938 H   0  0  0  0  0  0  0  0  0  0  0  0
    7.7596   -4.9060   21.1257 H   0  0  0  0  0  0  0  0  0  0  0  0
    6.1291   -4.3981   21.6043 H   0  0  0  0  0  0  0  0  0  0  0  0
    8.7406   -2.8875   22.0357 H   0  0  0  0  0  0  0  0  0  0  0  0
    7.3318   -2.4320   20.0213 H   0  0  0  0  0  0  0  0  0  0  0  0
    6.0337   -2.0937   21.0327 H   0  0  0  0  0  0  0  0  0  0  0  0
    8.5301   -0.4980   20.8070 H   0  0  0  0  0  0  0  0  0  0  0  0
    7.2239   -0.1617   21.9432 H   0  0  0  0  0  0  0  0  0  0  0  0
    5.4328    0.6721   20.1184 C   0  0  0  0  0  0  0  0  0  0  0  0
    4.9864    0.6797   21.1175 H   0  0  0  0  0  0  0  0  0  0  0  0
    8.0522   -0.5419   18.3309 H   0  0  0  0  0  0  0  0  0  0  0  0
    4.9491    1.7805   16.9426 H   0  0  0  0  0  0  0  0  0  0  0  0
    3.8733    1.8630   19.1851 H   0  0  0  0  0  0  0  0  0  0  0  0
  1  2  2  0
  2  3  1  0
  3  4  2  0
  4  5  1  0
  5  6  1  0
  6  7  1  0
  7  8  1  0
  8  9  1  0
  9 10  1  0
 10 11  1  0
 11 12  1  0
 12 13  2  0
 13 14  1  0
 14 15  2  0
 15 16  1  0
 16 17  2  0
 16 18  1  0
 15 19  1  0
 13 20  1  0
 11 21  1  0
 21 22  1  0
 21 23  1  0
 10 24  1  0
 10 25  1  0
  9 26  1  0
  9 27  1  0
  8 28  1  0
  7 29  1  0
  7 30  1  0
  6 31  1  0
  6 32  1  0
  5 33  2  0
 33 34  1  0
  4 35  1  0
  2 36  1  0
  1 37  1  0
 33  1  1  0
 21  8  1  0
 17 12  1  0
M  CHG  1   7   1
M  END
>  <cnnaffinity>  (1) 
-4.81593

>  <filename>  (1) 
c1cncc(C[NH2+]C2CCN(c3cnccn3)C2)c1

$$$$
