
     RDKit          3D

 49 55  0  0  0  0  0  0  0  0999 V2000
    4.7744    1.3800   18.7472 C   0  0  0  0  0  0  0  0  0  0  0  0
    5.3724    1.2247   17.4945 C   0  0  0  0  0  0  0  0  0  0  0  0
    6.4673    0.4768   17.2886 N   0  0  0  0  0  0  0  0  0  0  0  0
    7.0027   -0.1336   18.3524 C   0  0  0  0  0  0  0  0  0  0  0  0
    6.4983   -0.0412   19.6605 C   0  0  0  0  0  0  0  0  0  0  0  0
    7.2342   -0.6524   20.8496 C   0  0  0  0  0  0  0  0  0  0  0  0
    8.2038    0.3047   21.4882 C   0  0  0  0  0  0  0  0  0  0  0  0
    7.8370    1.1031   22.4639 N   0  0  0  0  0  0  0  0  0  0  0  0
    8.9617    1.8191   22.7240 N   0  0  0  0  0  0  0  0  0  0  0  0
    8.8607    2.8875   23.6799 C   0  0  0  0  0  0  0  0  0  0  0  0
    9.0031    2.6157   25.0270 C   0  0  0  0  0  0  0  0  0  0  0  0
    8.7782    3.6456   25.9638 C   0  0  0  0  0  0  0  0  0  0  0  0
    8.4739    4.8916   25.6452 N   0  0  0  0  0  0  0  0  0  0  0  0
    8.3414    5.1774   24.3113 C   0  0  0  0  0  0  0  0  0  0  0  0
    8.0185    6.5042   23.9041 C   0  0  0  0  0  0  0  0  0  0  0  0
    7.8228    6.7934   22.5667 C   0  0  0  0  0  0  0  0  0  0  0  0
    7.9762    5.7604   21.6131 C   0  0  0  0  0  0  0  0  0  0  0  0
    8.2959    4.5185   21.9272 N   0  0  0  0  0  0  0  0  0  0  0  0
    8.4833    4.2075   23.2477 C   0  0  0  0  0  0  0  0  0  0  0  0
    7.8234    5.9625   20.5564 H   0  0  0  0  0  0  0  0  0  0  0  0
    7.5300    7.7816   22.2226 H   0  0  0  0  0  0  0  0  0  0  0  0
    7.9091    7.2399   24.6914 H   0  0  0  0  0  0  0  0  0  0  0  0
    8.8298    3.4378   27.0279 H   0  0  0  0  0  0  0  0  0  0  0  0
    9.2575    1.6185   25.3698 H   0  0  0  0  0  0  0  0  0  0  0  0
    9.9715    1.3793   21.9114 C   0  0  0  0  0  0  0  0  0  0  0  0
   11.4009    1.7629   21.9011 C   0  0  0  0  0  0  0  0  0  0  0  0
   12.1084    2.9258   22.6224 C   0  0  0  0  0  0  0  0  0  0  0  0
   13.0229    4.0544   22.3090 C   0  0  0  0  0  0  0  0  0  0  0  0
   11.7665    4.2667   23.1613 C   0  0  0  0  0  0  0  0  0  0  0  0
   10.8948    4.7148   22.6895 H   0  0  0  0  0  0  0  0  0  0  0  0
   11.8644    4.4150   24.2387 H   0  0  0  0  0  0  0  0  0  0  0  0
   13.9854    3.9952   22.8211 H   0  0  0  0  0  0  0  0  0  0  0  0
   13.0716    4.4617   21.3010 H   0  0  0  0  0  0  0  0  0  0  0  0
   12.3351    1.5535   23.1129 C   0  0  0  0  0  0  0  0  0  0  0  0
   12.3060    0.8175   24.4029 C   0  0  0  0  0  0  0  0  0  0  0  0
   13.4075    0.5583   23.3674 C   0  0  0  0  0  0  0  0  0  0  0  0
   14.4002    0.9596   23.5608 H   0  0  0  0  0  0  0  0  0  0  0  0
   13.3781   -0.3663   22.7903 H   0  0  0  0  0  0  0  0  0  0  0  0
   12.5810    1.4098   25.2709 H   0  0  0  0  0  0  0  0  0  0  0  0
   11.5126    0.0865   24.5579 H   0  0  0  0  0  0  0  0  0  0  0  0
   11.8456    1.4855   20.9433 H   0  0  0  0  0  0  0  0  0  0  0  0
    9.4984    0.4394   21.1028 N   0  0  0  0  0  0  0  0  0  0  0  0
    7.7923   -1.5491   20.5529 H   0  0  0  0  0  0  0  0  0  0  0  0
    6.5179   -0.9368   21.6301 H   0  0  0  0  0  0  0  0  0  0  0  0
    5.3507    0.7431   19.8497 C   0  0  0  0  0  0  0  0  0  0  0  0
    4.9225    0.8618   20.8470 H   0  0  0  0  0  0  0  0  0  0  0  0
    7.8928   -0.7350   18.1566 H   0  0  0  0  0  0  0  0  0  0  0  0
    4.9638    1.7207   16.6152 H   0  0  0  0  0  0  0  0  0  0  0  0
    3.8936    2.0059   18.8438 H   0  0  0  0  0  0  0  0  0  0  0  0
  1  2  2  0
  2  3  1  0
  3  4  2  0
  4  5  1  0
  5  6  1  0
  6  7  1  0
  7  8  2  0
  8  9  1  0
  9 10  1  0
 10 11  2  0
 11 12  1  0
 12 13  2  0
 13 14  1  0
 14 15  2  0
 15 16  1  0
 16 17  2  0
 17 18  1  0
 18 19  2  0
 17 20  1  0
 16 21  1  0
 15 22  1  0
 12 23  1  0
 11 24  1  0
  9 25  1  0
 25 26  1  0
 26 27  1  0
 27 28  1  0
 28 29  1  0
 29 30  1  0
 29 31  1  0
 28 32  1  0
 28 33  1  0
 27 34  1  0
 34 35  1  0
 35 36  1  0
 36 37  1  0
 36 38  1  0
 35 39  1  0
 35 40  1  0
 26 41  1  0
 25 42  2  0
  6 43  1  0
  6 44  1  0
  5 45  2  0
 45 46  1  0
  4 47  1  0
  2 48  1  0
  1 49  1  0
 45  1  1  0
 42  7  1  0
 19 10  1  0
 34 26  1  0
 19 14  1  0
 29 27  1  0
 36 34  1  0
M  END
>  <cnnaffinity>  (1) 
-6.19311

>  <filename>  (1) 
c1cncc(Cc2nc(C3C4(CC4)C34CC4)n(-c3ccnc4cccnc34)n2)c1

$$$$
