
     RDKit          3D

 32 35  0  0  0  0  0  0  0  0999 V2000
    4.8166    1.3035   19.1130 C   0  0  0  0  0  0  0  0  0  0  0  0
    5.4050    1.2874   17.8456 C   0  0  0  0  0  0  0  0  0  0  0  0
    6.5696    0.6654   17.5952 N   0  0  0  0  0  0  0  0  0  0  0  0
    7.1896    0.0536   18.6077 C   0  0  0  0  0  0  0  0  0  0  0  0
    6.6752    0.0079   19.9142 C   0  0  0  0  0  0  0  0  0  0  0  0
    7.3771   -0.6816   20.9396 N   0  0  0  0  0  0  0  0  0  0  0  0
    6.8448   -1.2008   22.0705 C   0  0  0  0  0  0  0  0  0  0  0  0
    7.8512   -1.8441   22.7637 C   0  0  0  0  0  0  0  0  0  0  0  0
    7.8156   -2.6157   24.0045 C   0  0  0  0  0  0  0  0  0  0  0  0
    8.5019   -3.7529   24.0344 N   0  0  0  0  0  0  0  0  0  0  0  0
    8.3697   -4.5432   25.1304 C   0  0  0  0  0  0  0  0  0  0  0  0
    7.6002   -4.2373   26.2325 C   0  0  0  0  0  0  0  0  0  0  0  0
    6.8946   -2.9977   26.2685 C   0  0  0  0  0  0  0  0  0  0  0  0
    6.0842   -2.5656   27.3736 C   0  0  0  0  0  0  0  0  0  0  0  0
    5.4596   -1.4102   27.4456 N   0  0  0  0  0  0  0  0  0  0  0  0
    5.6074   -0.5805   26.3744 C   0  0  0  0  0  0  0  0  0  0  0  0
    6.3441   -0.8762   25.2502 C   0  0  0  0  0  0  0  0  0  0  0  0
    7.0195   -2.1406   25.1390 C   0  0  0  0  0  0  0  0  0  0  0  0
    6.4193   -0.1461   24.4510 H   0  0  0  0  0  0  0  0  0  0  0  0
    5.0898    0.3723   26.4554 H   0  0  0  0  0  0  0  0  0  0  0  0
    5.9830   -3.2502   28.2111 H   0  0  0  0  0  0  0  0  0  0  0  0
    7.5561   -4.9253   27.0719 H   0  0  0  0  0  0  0  0  0  0  0  0
    8.9293   -5.4741   25.0861 H   0  0  0  0  0  0  0  0  0  0  0  0
    8.9846   -1.6436   21.9470 C   0  0  0  0  0  0  0  0  0  0  0  0
    8.6984   -0.9533   20.8595 N   0  0  0  0  0  0  0  0  0  0  0  0
    9.9906   -1.9877   22.1403 H   0  0  0  0  0  0  0  0  0  0  0  0
    5.7939   -1.1120   22.2665 H   0  0  0  0  0  0  0  0  0  0  0  0
    5.4490    0.6451   20.1709 C   0  0  0  0  0  0  0  0  0  0  0  0
    5.0109    0.6439   21.1709 H   0  0  0  0  0  0  0  0  0  0  0  0
    8.1325   -0.4299   18.3738 H   0  0  0  0  0  0  0  0  0  0  0  0
    4.9246    1.7778   17.0003 H   0  0  0  0  0  0  0  0  0  0  0  0
    3.8841    1.8346   19.2643 H   0  0  0  0  0  0  0  0  0  0  0  0
  1  2  2  0
  2  3  1  0
  3  4  2  0
  4  5  1  0
  5  6  1  0
  6  7  1  0
  7  8  2  0
  8  9  1  0
  9 10  2  0
 10 11  1  0
 11 12  2  0
 12 13  1  0
 13 14  2  0
 14 15  1  0
 15 16  2  0
 16 17  1  0
 17 18  2  0
 17 19  1  0
 16 20  1  0
 14 21  1  0
 12 22  1  0
 11 23  1  0
  8 24  1  0
 24 25  2  0
 24 26  1  0
  7 27  1  0
  5 28  2  0
 28 29  1  0
  4 30  1  0
  2 31  1  0
  1 32  1  0
 28  1  1  0
 25  6  1  0
 18  9  1  0
 18 13  1  0
M  END
>  <cnnaffinity>  (1) 
-5.54949

>  <filename>  (1) 
c1cncc(-n2cc(-c3nccc4cnccc34)cn2)c1

$$$$
