
     RDKit          3D

 53 57  0  0  0  0  0  0  0  0999 V2000
    4.8244    1.3052   19.0446 C   0  0  0  0  0  0  0  0  0  0  0  0
    5.4084    1.2965   17.7758 C   0  0  0  0  0  0  0  0  0  0  0  0
    6.5424    0.6393   17.4876 N   0  0  0  0  0  0  0  0  0  0  0  0
    7.1473   -0.0179   18.4855 C   0  0  0  0  0  0  0  0  0  0  0  0
    6.6690   -0.0553   19.8069 C   0  0  0  0  0  0  0  0  0  0  0  0
    7.4327   -0.7227   20.9507 C   0  0  0  0  0  0  0  0  0  0  0  0
    8.3023    0.2371   21.7195 C   0  0  0  0  0  0  0  0  0  0  0  0
    9.5431    0.5211   21.3619 N   0  0  0  0  0  0  0  0  0  0  0  0
    9.8787    1.5304   22.2101 N   0  0  0  0  0  0  0  0  0  0  0  0
   11.1658    2.1293   22.2276 C   0  0  0  0  0  0  0  0  0  0  0  0
   11.3580    3.5121   22.2950 C   0  0  0  0  0  0  0  0  0  0  0  0
   12.6429    4.0610   22.5182 C   0  0  0  0  0  0  0  0  0  0  0  0
   13.7532    3.2510   22.7327 C   0  0  0  0  0  0  0  0  0  0  0  0
   13.5783    1.8484   22.6624 C   0  0  0  0  0  0  0  0  0  0  0  0
   12.3126    1.3261   22.3226 C   0  0  0  0  0  0  0  0  0  0  0  0
   12.5036   -0.0318   22.2327 N   0  0  0  0  0  0  0  0  0  0  0  0
   13.8132   -0.2650   22.5278 C   0  0  0  0  0  0  0  0  0  0  0  0
   14.4915    0.8100   22.7980 N   0  0  0  0  0  0  0  0  0  0  0  0
   14.2136   -1.2701   22.5377 H   0  0  0  0  0  0  0  0  0  0  0  0
   11.8224   -0.6663   21.8451 H   0  0  0  0  0  0  0  0  0  0  0  0
   14.7325    3.6950   22.8830 H   0  0  0  0  0  0  0  0  0  0  0  0
   12.7685    5.1397   22.5377 H   0  0  0  0  0  0  0  0  0  0  0  0
   10.5064    4.1731   22.2197 H   0  0  0  0  0  0  0  0  0  0  0  0
    8.8479    1.7572   23.0683 C   0  0  0  0  0  0  0  0  0  0  0  0
    8.9264    2.7462   24.1919 C   0  0  0  0  0  0  0  0  0  0  0  0
    8.6027    4.0461   23.7138 O   0  0  0  0  0  0  0  0  0  0  0  0
    8.7590    5.1120   24.6383 C   0  0  0  0  0  0  0  0  0  0  0  0
   10.0598    5.8833   24.3721 C   0  0  0  0  0  0  0  0  0  0  0  0
   10.2070    7.0579   25.3509 C   0  0  0  0  0  0  0  0  0  0  0  0
    8.9913    7.9989   25.2629 C   0  0  0  0  0  0  0  0  0  0  0  0
    7.6716    7.2355   25.4780 C   0  0  0  0  0  0  0  0  0  0  0  0
    7.5509    6.0453   24.5116 C   0  0  0  0  0  0  0  0  0  0  0  0
    6.6334    5.4728   24.6884 H   0  0  0  0  0  0  0  0  0  0  0  0
    7.4978    6.4006   23.4724 H   0  0  0  0  0  0  0  0  0  0  0  0
    7.6382    6.8590   26.5120 H   0  0  0  0  0  0  0  0  0  0  0  0
    6.8102    7.9052   25.3712 H   0  0  0  0  0  0  0  0  0  0  0  0
    9.0821    8.8171   25.9867 H   0  0  0  0  0  0  0  0  0  0  0  0
    8.9739    8.4692   24.2688 H   0  0  0  0  0  0  0  0  0  0  0  0
   10.2849    6.6610   26.3739 H   0  0  0  0  0  0  0  0  0  0  0  0
   11.1409    7.6014   25.1696 H   0  0  0  0  0  0  0  0  0  0  0  0
   10.0251    6.2687   23.3401 H   0  0  0  0  0  0  0  0  0  0  0  0
   10.9194    5.2021   24.4156 H   0  0  0  0  0  0  0  0  0  0  0  0
    8.7906    4.7261   25.6750 H   0  0  0  0  0  0  0  0  0  0  0  0
    9.9479    2.7221   24.6093 H   0  0  0  0  0  0  0  0  0  0  0  0
    8.2296    2.4394   24.9850 H   0  0  0  0  0  0  0  0  0  0  0  0
    7.8486    0.9396   22.7898 N   0  0  0  0  0  0  0  0  0  0  0  0
    6.7224   -1.1619   21.6617 H   0  0  0  0  0  0  0  0  0  0  0  0
    8.0709   -1.5286   20.5746 H   0  0  0  0  0  0  0  0  0  0  0  0
    5.4710    0.6191   20.0738 C   0  0  0  0  0  0  0  0  0  0  0  0
    5.0763    0.6087   21.0899 H   0  0  0  0  0  0  0  0  0  0  0  0
    8.0668   -0.5452   18.2214 H   0  0  0  0  0  0  0  0  0  0  0  0
    4.9482    1.8372   16.9515 H   0  0  0  0  0  0  0  0  0  0  0  0
    3.9051    1.8552   19.2142 H   0  0  0  0  0  0  0  0  0  0  0  0
  1  2  2  0
  2  3  1  0
  3  4  2  0
  4  5  1  0
  5  6  1  0
  6  7  1  0
  7  8  2  0
  8  9  1  0
  9 10  1  0
 10 11  2  0
 11 12  1  0
 12 13  2  0
 13 14  1  0
 14 15  2  0
 15 16  1  0
 16 17  1  0
 17 18  2  0
 17 19  1  0
 16 20  1  0
 13 21  1  0
 12 22  1  0
 11 23  1  0
  9 24  1  0
 24 25  1  0
 25 26  1  0
 26 27  1  0
 27 28  1  0
 28 29  1  0
 29 30  1  0
 30 31  1  0
 31 32  1  0
 32 33  1  0
 32 34  1  0
 31 35  1  0
 31 36  1  0
 30 37  1  0
 30 38  1  0
 29 39  1  0
 29 40  1  0
 28 41  1  0
 28 42  1  0
 27 43  1  0
 25 44  1  0
 25 45  1  0
 24 46  2  0
  6 47  1  0
  6 48  1  0
  5 49  2  0
 49 50  1  0
  4 51  1  0
  2 52  1  0
  1 53  1  0
 49  1  1  0
 46  7  1  0
 15 10  1  0
 32 27  1  0
 18 14  1  0
M  END
>  <cnnaffinity>  (1) 
-6.70772

>  <filename>  (1) 
c1cncc(Cc2nc(COC3CCCCC3)n(-c3cccc4nc[nH]c34)n2)c1

$$$$
