
     RDKit          3D

 32 34  0  0  0  0  0  0  0  0999 V2000
    4.9324    1.7782   16.9967 H   0  0  0  0  0  0  0  0  0  0  0  0
    5.4060    1.2870   17.8425 C   0  0  0  0  0  0  0  0  0  0  0  0
    6.5708    0.6657   17.5957 N   0  0  0  0  0  0  0  0  0  0  0  0
    7.1702    0.0550   18.6215 C   0  0  0  0  0  0  0  0  0  0  0  0
    8.1187   -0.4251   18.3774 H   0  0  0  0  0  0  0  0  0  0  0  0
    6.6520    0.0129   19.9285 C   0  0  0  0  0  0  0  0  0  0  0  0
    7.3720   -0.6774   21.0022 C   0  0  0  0  0  0  0  0  0  0  0  0
    6.9076   -0.7947   22.2082 N   0  0  0  0  0  0  0  0  0  0  0  0
    7.7589   -1.5467   22.9359 N   0  0  0  0  0  0  0  0  0  0  0  0
    7.5434   -1.7165   24.3534 C   0  0  0  0  0  0  0  0  0  0  0  0
    8.3017   -2.4163   24.7180 H   0  0  0  0  0  0  0  0  0  0  0  0
    6.5578   -2.1709   24.5010 H   0  0  0  0  0  0  0  0  0  0  0  0
    7.6337   -0.4180   25.1306 C   0  0  0  0  0  0  0  0  0  0  0  0
    8.8608    0.0974   25.5496 C   0  0  0  0  0  0  0  0  0  0  0  0
    9.7917   -0.4289   25.3739 H   0  0  0  0  0  0  0  0  0  0  0  0
    8.8910    1.3348   26.1899 C   0  0  0  0  0  0  0  0  0  0  0  0
    9.8418    1.7603   26.4946 H   0  0  0  0  0  0  0  0  0  0  0  0
    7.8045    2.0717   26.4428 N   0  0  0  0  0  0  0  0  0  0  0  0
    6.6326    1.5692   26.0449 C   0  0  0  0  0  0  0  0  0  0  0  0
    5.7571    2.1816   26.2478 H   0  0  0  0  0  0  0  0  0  0  0  0
    6.4926    0.3423   25.3948 C   0  0  0  0  0  0  0  0  0  0  0  0
    5.5162    0.0074   25.0670 H   0  0  0  0  0  0  0  0  0  0  0  0
    8.9628   -1.9437   22.2391 C   0  0  0  0  0  0  0  0  0  0  0  0
    9.0542   -3.0448   22.2450 H   0  0  0  0  0  0  0  0  0  0  0  0
    9.8899   -1.5441   22.6898 H   0  0  0  0  0  0  0  0  0  0  0  0
    8.7040   -1.3593   20.8419 C   0  0  0  0  0  0  0  0  0  0  0  0
    8.6361   -2.1564   20.1186 H   0  0  0  0  0  0  0  0  0  0  0  0
    9.4890   -0.6893   20.4781 H   0  0  0  0  0  0  0  0  0  0  0  0
    5.4252    0.6572   20.1689 C   0  0  0  0  0  0  0  0  0  0  0  0
    4.9994    0.6358   21.1745 H   0  0  0  0  0  0  0  0  0  0  0  0
    4.8068    1.3077   19.1070 C   0  0  0  0  0  0  0  0  0  0  0  0
    3.8777    1.8409   19.2500 H   0  0  0  0  0  0  0  0  0  0  0  0
  1  2  1  0
  2  3  2  0
  3  4  1  0
  4  5  1  0
  4  6  2  0
  6  7  1  0
  7  8  2  0
  8  9  1  0
  9 10  1  0
 10 11  1  0
 10 12  1  0
 10 13  1  0
 13 14  2  0
 14 15  1  0
 14 16  1  0
 16 17  1  0
 16 18  2  0
 18 19  1  0
 19 20  1  0
 19 21  2  0
 21 22  1  0
  9 23  1  0
 23 24  1  0
 23 25  1  0
 23 26  1  0
 26 27  1  0
 26 28  1  0
  6 29  1  0
 29 30  1  0
 29 31  2  0
 31 32  1  0
 31  2  1  0
 26  7  1  0
 21 13  1  0
M  END
>  <cnnaffinity>  (1) 
-4.51246

>  <filename>  (1) 
c1cncc(C2=NN(Cc3ccncc3)CC2)c1

$$$$
