
     RDKit          3D

 27 29  0  0  0  0  0  0  0  0999 V2000
    4.9163    1.7828   16.9910 H   0  0  0  0  0  0  0  0  0  0  0  0
    5.3994    1.2960   17.8323 C   0  0  0  0  0  0  0  0  0  0  0  0
    6.5615    0.6766   17.5698 N   0  0  0  0  0  0  0  0  0  0  0  0
    7.1692    0.0726   18.5954 C   0  0  0  0  0  0  0  0  0  0  0  0
    8.1111   -0.4265   18.3716 H   0  0  0  0  0  0  0  0  0  0  0  0
    6.6545    0.0172   19.8987 C   0  0  0  0  0  0  0  0  0  0  0  0
    7.3777   -0.7012   20.9647 C   0  0  0  0  0  0  0  0  0  0  0  0
    8.7559   -0.5602   21.1245 C   0  0  0  0  0  0  0  0  0  0  0  0
    9.3204    0.0957   20.4723 H   0  0  0  0  0  0  0  0  0  0  0  0
    9.3689   -1.2521   22.1682 C   0  0  0  0  0  0  0  0  0  0  0  0
   10.4393   -1.1488   22.3082 H   0  0  0  0  0  0  0  0  0  0  0  0
    8.7310   -2.0605   23.0252 N   0  0  0  0  0  0  0  0  0  0  0  0
    7.4020   -2.1978   22.8644 C   0  0  0  0  0  0  0  0  0  0  0  0
    6.6801   -3.0730   23.7892 C   0  0  0  0  0  0  0  0  0  0  0  0
    7.2435   -3.8092   24.8516 C   0  0  0  0  0  0  0  0  0  0  0  0
    8.2794   -3.8514   25.1516 H   0  0  0  0  0  0  0  0  0  0  0  0
    6.3292   -4.5029   25.5020 N   0  0  0  0  0  0  0  0  0  0  0  0
    5.1848   -4.2204   24.8752 N   0  0  0  0  0  0  0  0  0  0  0  0
    4.3406   -4.6487   25.2195 H   0  0  0  0  0  0  0  0  0  0  0  0
    5.3271   -3.3713   23.8397 C   0  0  0  0  0  0  0  0  0  0  0  0
    4.4717   -3.0614   23.2516 H   0  0  0  0  0  0  0  0  0  0  0  0
    6.7034   -1.5390   21.8514 C   0  0  0  0  0  0  0  0  0  0  0  0
    5.6389   -1.6795   21.7345 H   0  0  0  0  0  0  0  0  0  0  0  0
    5.4291    0.6550   20.1486 C   0  0  0  0  0  0  0  0  0  0  0  0
    5.0122    0.6361   21.1597 H   0  0  0  0  0  0  0  0  0  0  0  0
    4.8017    1.3184   19.0989 C   0  0  0  0  0  0  0  0  0  0  0  0
    3.8687    1.8477   19.2548 H   0  0  0  0  0  0  0  0  0  0  0  0
  1  2  1  0
  2  3  2  0
  3  4  1  0
  4  5  1  0
  4  6  2  0
  6  7  1  0
  7  8  2  0
  8  9  1  0
  8 10  1  0
 10 11  1  0
 10 12  2  0
 12 13  1  0
 13 14  1  0
 14 15  1  0
 15 16  1  0
 15 17  2  0
 17 18  1  0
 18 19  1  0
 18 20  1  0
 20 21  1  0
 13 22  2  0
 22 23  1  0
  6 24  1  0
 24 25  1  0
 24 26  2  0
 26 27  1  0
 26  2  1  0
 22  7  1  0
 20 14  2  0
M  END
>  <cnnaffinity>  (1) 
-5.12905

>  <filename>  (1) 
c1cncc(-c2ccnc(-c3cn[nH]c3)c2)c1

$$$$
