
     RDKit          3D

 32 34  0  0  0  0  0  0  0  0999 V2000
    8.9108   -3.1406   22.2505 H   0  0  0  0  0  0  0  0  0  0  0  0
    8.4289   -2.2283   21.9300 C   0  0  0  0  0  0  0  0  0  0  0  0
    7.8347   -1.9904   20.8095 N   0  0  0  0  0  0  0  0  0  0  0  0
    7.3825   -0.6878   20.9398 C   0  0  0  0  0  0  0  0  0  0  0  0
    6.6459    0.0064   19.8920 C   0  0  0  0  0  0  0  0  0  0  0  0
    7.1624    0.0435   18.5872 C   0  0  0  0  0  0  0  0  0  0  0  0
    8.1150   -0.4323   18.3691 H   0  0  0  0  0  0  0  0  0  0  0  0
    6.5641    0.6753   17.5749 N   0  0  0  0  0  0  0  0  0  0  0  0
    5.4023    1.2934   17.8359 C   0  0  0  0  0  0  0  0  0  0  0  0
    4.9226    1.7838   16.9931 H   0  0  0  0  0  0  0  0  0  0  0  0
    4.7992    1.3129   19.0992 C   0  0  0  0  0  0  0  0  0  0  0  0
    3.8691    1.8455   19.2545 H   0  0  0  0  0  0  0  0  0  0  0  0
    5.4333    0.6618   20.1536 C   0  0  0  0  0  0  0  0  0  0  0  0
    4.9988    0.6353   21.1585 H   0  0  0  0  0  0  0  0  0  0  0  0
    7.7496   -0.2042   22.1621 C   0  0  0  0  0  0  0  0  0  0  0  0
    7.6745    1.1765   22.7104 C   0  0  0  0  0  0  0  0  0  0  0  0
    6.6953    1.5743   22.4106 H   0  0  0  0  0  0  0  0  0  0  0  0
    8.7276    2.1053   22.0601 C   0  0  0  0  0  0  0  0  0  0  0  0
    9.7257    1.6895   22.2374 H   0  0  0  0  0  0  0  0  0  0  0  0
    8.5861    2.1428   20.9736 H   0  0  0  0  0  0  0  0  0  0  0  0
    8.6701    3.5128   22.6663 C   0  0  0  0  0  0  0  0  0  0  0  0
    9.4659    4.1482   22.2662 H   0  0  0  0  0  0  0  0  0  0  0  0
    7.7252    3.9964   22.3913 H   0  0  0  0  0  0  0  0  0  0  0  0
    8.7651    3.5226   24.1296 N   0  0  0  0  0  0  0  0  0  0  0  0
    9.6644    3.1081   24.3616 H   0  0  0  0  0  0  0  0  0  0  0  0
    7.7406    2.6759   24.7433 C   0  0  0  0  0  0  0  0  0  0  0  0
    6.7654    3.1291   24.5283 H   0  0  0  0  0  0  0  0  0  0  0  0
    7.8608    2.7069   25.8309 H   0  0  0  0  0  0  0  0  0  0  0  0
    7.7637    1.2302   24.2405 C   0  0  0  0  0  0  0  0  0  0  0  0
    8.7000    0.7565   24.5534 H   0  0  0  0  0  0  0  0  0  0  0  0
    6.9476    0.6504   24.6827 H   0  0  0  0  0  0  0  0  0  0  0  0
    8.4483   -1.1956   22.7952 O   0  0  0  0  0  0  0  0  0  0  0  0
  1  2  1  0
  2  3  2  0
  3  4  1  0
  4  5  1  0
  5  6  2  0
  6  7  1  0
  6  8  1  0
  8  9  2  0
  9 10  1  0
  9 11  1  0
 11 12  1  0
 11 13  2  0
 13 14  1  0
  4 15  2  0
 15 16  1  0
 16 17  1  0
 16 18  1  0
 18 19  1  0
 18 20  1  0
 18 21  1  0
 21 22  1  0
 21 23  1  0
 21 24  1  0
 24 25  1  0
 24 26  1  0
 26 27  1  0
 26 28  1  0
 26 29  1  0
 29 30  1  0
 29 31  1  0
 15 32  1  0
 32  2  1  0
 13  5  1  0
 29 16  1  0
M  END
>  <cnnaffinity>  (1) 
-4.60465

>  <filename>  (1) 
c1cncc(-c2ncoc2C2CCNCC2)c1

$$$$
