
     RDKit          3D

 39 41  0  0  0  0  0  0  0  0999 V2000
    5.2139    1.7867   16.8363 H   0  0  0  0  0  0  0  0  0  0  0  0
    5.5780    1.2770   17.7275 C   0  0  0  0  0  0  0  0  0  0  0  0
    6.6991    0.5566   17.5690 N   0  0  0  0  0  0  0  0  0  0  0  0
    7.1645   -0.0927   18.6474 C   0  0  0  0  0  0  0  0  0  0  0  0
    8.0787   -0.6662   18.4977 H   0  0  0  0  0  0  0  0  0  0  0  0
    6.5576   -0.0851   19.9264 C   0  0  0  0  0  0  0  0  0  0  0  0
    7.1652   -0.8331   21.0644 C   0  0  0  0  0  0  0  0  0  0  0  0
    8.4968   -0.9789   21.4417 C   0  0  0  0  0  0  0  0  0  0  0  0
    9.5773   -0.3388   20.8057 N   0  0  0  0  0  0  0  0  0  0  0  0
    9.2601    0.5524   20.4322 H   0  0  0  0  0  0  0  0  0  0  0  0
   10.8468   -0.2277   21.5030 C   0  0  0  0  0  0  0  0  0  0  0  0
   11.6413   -0.1318   20.7555 H   0  0  0  0  0  0  0  0  0  0  0  0
   11.0319   -1.1862   22.0018 H   0  0  0  0  0  0  0  0  0  0  0  0
   10.9633    0.9124   22.5317 C   0  0  0  0  0  0  0  0  0  0  0  0
   10.2760    0.6872   23.3650 H   0  0  0  0  0  0  0  0  0  0  0  0
   10.5195    2.3019   21.9791 C   0  0  0  0  0  0  0  0  0  0  0  0
   10.7168    2.3932   20.9008 H   0  0  0  0  0  0  0  0  0  0  0  0
    9.4272    2.3685   22.0836 H   0  0  0  0  0  0  0  0  0  0  0  0
   11.1546    3.5170   22.7056 C   0  0  0  0  0  0  0  0  0  0  0  0
   10.4366    4.3500   22.7293 H   0  0  0  0  0  0  0  0  0  0  0  0
   12.0255    3.8821   22.1434 H   0  0  0  0  0  0  0  0  0  0  0  0
   11.5651    3.1599   24.1384 C   0  0  0  0  0  0  0  0  0  0  0  0
   11.9541    4.0467   24.6566 H   0  0  0  0  0  0  0  0  0  0  0  0
   10.6580    2.8523   24.6783 H   0  0  0  0  0  0  0  0  0  0  0  0
   12.5872    1.9986   24.1975 C   0  0  0  0  0  0  0  0  0  0  0  0
   12.5235    1.5354   25.1897 H   0  0  0  0  0  0  0  0  0  0  0  0
   13.6064    2.3819   24.0838 H   0  0  0  0  0  0  0  0  0  0  0  0
   12.3887    0.9178   23.1121 C   0  0  0  0  0  0  0  0  0  0  0  0
   13.1250    1.0522   22.3006 H   0  0  0  0  0  0  0  0  0  0  0  0
   12.5933   -0.0731   23.5418 H   0  0  0  0  0  0  0  0  0  0  0  0
    8.4732   -1.8933   22.5340 C   0  0  0  0  0  0  0  0  0  0  0  0
    9.3162   -2.2958   23.0924 H   0  0  0  0  0  0  0  0  0  0  0  0
    7.2283   -2.2465   22.8446 N   0  0  0  0  0  0  0  0  0  0  0  0
    6.4570   -1.5882   21.9609 N   0  0  0  0  0  0  0  0  0  0  0  0
    5.4519   -1.6682   22.0681 H   0  0  0  0  0  0  0  0  0  0  0  0
    5.3831    0.6798   20.0590 C   0  0  0  0  0  0  0  0  0  0  0  0
    4.8753    0.7561   21.0234 H   0  0  0  0  0  0  0  0  0  0  0  0
    4.8910    1.3703   18.9456 C   0  0  0  0  0  0  0  0  0  0  0  0
    4.0022    1.9911   19.0033 H   0  0  0  0  0  0  0  0  0  0  0  0
  1  2  1  0
  2  3  2  0
  3  4  1  0
  4  5  1  0
  4  6  2  0
  6  7  1  0
  7  8  2  0
  8  9  1  0
  9 10  1  0
  9 11  1  0
 11 12  1  0
 11 13  1  0
 11 14  1  0
 14 15  1  0
 14 16  1  0
 16 17  1  0
 16 18  1  0
 16 19  1  0
 19 20  1  0
 19 21  1  0
 19 22  1  0
 22 23  1  0
 22 24  1  0
 22 25  1  0
 25 26  1  0
 25 27  1  0
 25 28  1  0
 28 29  1  0
 28 30  1  0
  8 31  1  0
 31 32  1  0
 31 33  2  0
 33 34  1  0
 34 35  1  0
  6 36  1  0
 36 37  1  0
 36 38  2  0
 38 39  1  0
 38  2  1  0
 34  7  1  0
 28 14  1  0
M  END
>  <cnnaffinity>  (1) 
-5.10014

>  <filename>  (1) 
c1cncc(-c2[nH]ncc2NCC2CCCCC2)c1

$$$$
