
     RDKit          3D

 36 39  0  0  0  0  0  0  0  0999 V2000
    4.9393    1.7972   16.9972 H   0  0  0  0  0  0  0  0  0  0  0  0
    5.4066    1.2830   17.8340 C   0  0  0  0  0  0  0  0  0  0  0  0
    6.5653    0.6586   17.5738 N   0  0  0  0  0  0  0  0  0  0  0  0
    7.1804    0.0449   18.5948 C   0  0  0  0  0  0  0  0  0  0  0  0
    8.1281   -0.4280   18.3470 H   0  0  0  0  0  0  0  0  0  0  0  0
    6.6924   -0.0033   19.9384 C   0  0  0  0  0  0  0  0  0  0  0  0
    7.3879   -0.6151   20.9807 N   0  0  0  0  0  0  0  0  0  0  0  0
    8.6036   -1.3755   20.7896 C   0  0  0  0  0  0  0  0  0  0  0  0
    8.3757   -2.1864   20.1162 H   0  0  0  0  0  0  0  0  0  0  0  0
    9.4167   -0.7840   20.3502 H   0  0  0  0  0  0  0  0  0  0  0  0
    8.9019   -1.9236   22.1833 C   0  0  0  0  0  0  0  0  0  0  0  0
    9.7438   -1.4262   22.6785 H   0  0  0  0  0  0  0  0  0  0  0  0
    9.1008   -2.9973   22.1678 H   0  0  0  0  0  0  0  0  0  0  0  0
    7.7080   -1.7423   22.9219 O   0  0  0  0  0  0  0  0  0  0  0  0
    6.9140   -0.7334   22.3458 C   0  0  1  0  0  0  0  0  0  0  0  0
    5.8767   -1.0950   22.3594 H   0  0  0  0  0  0  0  0  0  0  0  0
    7.0150    0.5540   23.1157 C   0  0  0  0  0  0  0  0  0  0  0  0
    7.8675    1.5454   22.6902 C   0  0  0  0  0  0  0  0  0  0  0  0
    8.4974    1.4006   21.8159 H   0  0  0  0  0  0  0  0  0  0  0  0
    7.9795    2.7577   23.2931 N   0  0  0  0  0  0  0  0  0  0  0  0
    7.2229    3.0035   24.3389 C   0  0  0  0  0  0  0  0  0  0  0  0
    7.3346    3.9939   24.7878 H   0  0  0  0  0  0  0  0  0  0  0  0
    6.3117    2.0548   24.9089 C   0  0  0  0  0  0  0  0  0  0  0  0
    5.5143    2.3323   26.0600 C   0  0  0  0  0  0  0  0  0  0  0  0
    5.5970    3.3120   26.5290 H   0  0  0  0  0  0  0  0  0  0  0  0
    4.6859    1.3662   26.5810 C   0  0  0  0  0  0  0  0  0  0  0  0
    4.0879    1.5887   27.4610 H   0  0  0  0  0  0  0  0  0  0  0  0
    4.6477    0.0659   26.0111 C   0  0  0  0  0  0  0  0  0  0  0  0
    3.9691   -0.6802   26.4200 H   0  0  0  0  0  0  0  0  0  0  0  0
    5.4621   -0.2441   24.9421 C   0  0  0  0  0  0  0  0  0  0  0  0
    5.5346   -1.2712   24.5873 H   0  0  0  0  0  0  0  0  0  0  0  0
    6.2551    0.7586   24.3091 C   0  0  0  0  0  0  0  0  0  0  0  0
    5.4545    0.6402   20.1637 C   0  0  0  0  0  0  0  0  0  0  0  0
    5.0245    0.6478   21.1644 H   0  0  0  0  0  0  0  0  0  0  0  0
    4.8155    1.2920   19.1042 C   0  0  0  0  0  0  0  0  0  0  0  0
    3.8794    1.8272   19.2577 H   0  0  0  0  0  0  0  0  0  0  0  0
  1  2  1  0
  2  3  2  0
  3  4  1  0
  4  5  1  0
  4  6  2  0
  6  7  1  0
  7  8  1  0
  8  9  1  0
  8 10  1  0
  8 11  1  0
 11 12  1  0
 11 13  1  0
 11 14  1  0
 14 15  1  0
 15 16  1  6
 15 17  1  0
 17 18  2  0
 18 19  1  0
 18 20  1  0
 20 21  2  0
 21 22  1  0
 21 23  1  0
 23 24  2  0
 24 25  1  0
 24 26  1  0
 26 27  1  0
 26 28  2  0
 28 29  1  0
 28 30  1  0
 30 31  1  0
 30 32  2  0
  6 33  1  0
 33 34  1  0
 33 35  2  0
 35 36  1  0
 35  2  1  0
 15  7  1  0
 32 17  1  0
 32 23  1  0
M  END
>  <cnnaffinity>  (1) 
-4.91939

>  <filename>  (1) 
c1cncc(N2CCO[C@H]2c2cncc3ccccc23)c1

$$$$
