
     RDKit          3D

 32 35  0  0  0  0  0  0  0  0999 V2000
    4.8177    1.3027   19.1133 C   0  0  0  0  0  0  0  0  0  0  0  0
    5.4058    1.2868   17.8457 C   0  0  0  0  0  0  0  0  0  0  0  0
    6.5698    0.6638   17.5963 N   0  0  0  0  0  0  0  0  0  0  0  0
    7.1900    0.0525   18.6093 C   0  0  0  0  0  0  0  0  0  0  0  0
    6.6768    0.0066   19.9162 C   0  0  0  0  0  0  0  0  0  0  0  0
    7.3754   -0.6841   20.9441 N   0  0  0  0  0  0  0  0  0  0  0  0
    6.8366   -1.1918   22.0763 C   0  0  0  0  0  0  0  0  0  0  0  0
    7.8334   -1.8201   22.7961 C   0  0  0  0  0  0  0  0  0  0  0  0
    7.7886   -2.5905   24.0383 C   0  0  0  0  0  0  0  0  0  0  0  0
    8.4800   -3.7193   24.0574 N   0  0  0  0  0  0  0  0  0  0  0  0
    8.3670   -4.5326   25.1321 C   0  0  0  0  0  0  0  0  0  0  0  0
    7.6037   -4.2497   26.2370 C   0  0  0  0  0  0  0  0  0  0  0  0
    6.9052   -3.0283   26.2736 C   0  0  0  0  0  0  0  0  0  0  0  0
    6.1103   -2.6317   27.3699 C   0  0  0  0  0  0  0  0  0  0  0  0
    5.5061   -1.4039   27.3443 C   0  0  0  0  0  0  0  0  0  0  0  0
    5.6092   -0.5321   26.3129 N   0  0  0  0  0  0  0  0  0  0  0  0
    6.3372   -0.9006   25.2784 C   0  0  0  0  0  0  0  0  0  0  0  0
    7.0116   -2.1503   25.1681 C   0  0  0  0  0  0  0  0  0  0  0  0
    6.4153   -0.1749   24.4743 H   0  0  0  0  0  0  0  0  0  0  0  0
    4.9021   -1.0723   28.1850 H   0  0  0  0  0  0  0  0  0  0  0  0
    5.9884   -3.3061   28.2046 H   0  0  0  0  0  0  0  0  0  0  0  0
    7.5503   -4.9233   27.0814 H   0  0  0  0  0  0  0  0  0  0  0  0
    8.9301   -5.4599   25.0762 H   0  0  0  0  0  0  0  0  0  0  0  0
    8.9720   -1.6453   21.9703 C   0  0  0  0  0  0  0  0  0  0  0  0
    8.6950   -0.9651   20.8739 N   0  0  0  0  0  0  0  0  0  0  0  0
    9.9823   -1.9894   22.1433 H   0  0  0  0  0  0  0  0  0  0  0  0
    5.7832   -1.1059   22.2528 H   0  0  0  0  0  0  0  0  0  0  0  0
    5.4498    0.6447   20.1718 C   0  0  0  0  0  0  0  0  0  0  0  0
    5.0115    0.6454   21.1728 H   0  0  0  0  0  0  0  0  0  0  0  0
    8.1323   -0.4292   18.3727 H   0  0  0  0  0  0  0  0  0  0  0  0
    4.9266    1.7782   16.9999 H   0  0  0  0  0  0  0  0  0  0  0  0
    3.8853    1.8337   19.2640 H   0  0  0  0  0  0  0  0  0  0  0  0
  1  2  2  0
  2  3  1  0
  3  4  2  0
  4  5  1  0
  5  6  1  0
  6  7  1  0
  7  8  2  0
  8  9  1  0
  9 10  2  0
 10 11  1  0
 11 12  2  0
 12 13  1  0
 13 14  2  0
 14 15  1  0
 15 16  2  0
 16 17  1  0
 17 18  2  0
 17 19  1  0
 15 20  1  0
 14 21  1  0
 12 22  1  0
 11 23  1  0
  8 24  1  0
 24 25  2  0
 24 26  1  0
  7 27  1  0
  5 28  2  0
 28 29  1  0
  4 30  1  0
  2 31  1  0
  1 32  1  0
 28  1  1  0
 25  6  1  0
 18  9  1  0
 18 13  1  0
M  END
>  <cnnaffinity>  (1) 
-5.53906

>  <filename>  (1) 
c1cncc(-n2cc(-c3nccc4ccncc34)cn2)c1

$$$$
