
     RDKit          3D

 34 36  0  0  0  0  0  0  0  0999 V2000
   10.1747   -0.1292   22.6586 H   0  0  0  0  0  0  0  0  0  0  0  0
    9.2950   -0.6671   22.3151 C   0  0  0  0  0  0  0  0  0  0  0  0
    8.9537   -1.7479   23.0068 N   0  0  0  0  0  0  0  0  0  0  0  0
    7.8368   -2.3718   22.6136 C   0  0  0  0  0  0  0  0  0  0  0  0
    7.5730   -3.2682   23.1779 H   0  0  0  0  0  0  0  0  0  0  0  0
    7.0310   -1.9313   21.5716 C   0  0  0  0  0  0  0  0  0  0  0  0
    5.7250   -2.5799   21.1235 C   0  0  0  0  0  0  0  0  0  0  0  0
    5.0960   -1.6943   21.0602 H   0  0  0  0  0  0  0  0  0  0  0  0
    5.0155   -3.5332   22.1021 C   0  0  0  0  0  0  0  0  0  0  0  0
    3.9548   -3.5577   21.8203 H   0  0  0  0  0  0  0  0  0  0  0  0
    5.0380   -3.1296   23.1182 H   0  0  0  0  0  0  0  0  0  0  0  0
    5.5188   -4.9842   22.0703 C   0  0  0  0  0  0  0  0  0  0  0  0
    6.5090   -5.0544   22.5399 H   0  0  0  0  0  0  0  0  0  0  0  0
    4.8469   -5.6199   22.6583 H   0  0  0  0  0  0  0  0  0  0  0  0
    5.6135   -5.5515   20.7257 N   0  0  0  0  0  0  0  0  0  0  0  0
    4.6797   -5.7210   20.3668 H   0  0  0  0  0  0  0  0  0  0  0  0
    6.3439   -4.6782   19.8138 C   0  0  0  0  0  0  0  0  0  0  0  0
    7.3836   -4.6513   20.1629 H   0  0  0  0  0  0  0  0  0  0  0  0
    6.3661   -5.1577   18.8348 H   0  0  0  0  0  0  0  0  0  0  0  0
    5.7782   -3.2521   19.7337 C   0  0  0  0  0  0  0  0  0  0  0  0
    4.7651   -3.2980   19.3263 H   0  0  0  0  0  0  0  0  0  0  0  0
    6.3278   -2.6414   19.0153 H   0  0  0  0  0  0  0  0  0  0  0  0
    7.4769   -0.7306   20.9615 C   0  0  0  0  0  0  0  0  0  0  0  0
    6.6809   -0.0002   19.9433 C   0  0  0  0  0  0  0  0  0  0  0  0
    7.2373    0.0804   18.6637 C   0  0  0  0  0  0  0  0  0  0  0  0
    8.2098   -0.3725   18.4583 H   0  0  0  0  0  0  0  0  0  0  0  0
    6.6383    0.6759   17.6268 N   0  0  0  0  0  0  0  0  0  0  0  0
    5.4606    1.2778   17.8525 C   0  0  0  0  0  0  0  0  0  0  0  0
    4.9970    1.7662   16.9979 H   0  0  0  0  0  0  0  0  0  0  0  0
    4.8409    1.3003   19.1036 C   0  0  0  0  0  0  0  0  0  0  0  0
    3.8973    1.8166   19.2244 H   0  0  0  0  0  0  0  0  0  0  0  0
    5.4576    0.6500   20.1709 C   0  0  0  0  0  0  0  0  0  0  0  0
    5.0090    0.6774   21.1669 H   0  0  0  0  0  0  0  0  0  0  0  0
    8.6428   -0.1596   21.2655 N   0  0  0  0  0  0  0  0  0  0  0  0
  1  2  1  0
  2  3  2  0
  3  4  1  0
  4  5  1  0
  4  6  2  0
  6  7  1  0
  7  8  1  0
  7  9  1  0
  9 10  1  0
  9 11  1  0
  9 12  1  0
 12 13  1  0
 12 14  1  0
 12 15  1  0
 15 16  1  0
 15 17  1  0
 17 18  1  0
 17 19  1  0
 17 20  1  0
 20 21  1  0
 20 22  1  0
  6 23  1  0
 23 24  1  0
 24 25  2  0
 25 26  1  0
 25 27  1  0
 27 28  2  0
 28 29  1  0
 28 30  1  0
 30 31  1  0
 30 32  2  0
 32 33  1  0
 23 34  2  0
 34  2  1  0
 20  7  1  0
 32 24  1  0
M  END
>  <cnnaffinity>  (1) 
-4.77741

>  <filename>  (1) 
c1cncc(-c2ncncc2C2CCNCC2)c1

$$$$
