
     RDKit          3D

 36 37  0  0  0  0  0  0  0  0999 V2000
    7.2641   -2.0332   22.6279 H   0  0  0  0  0  0  0  0  0  0  0  0
    6.7443   -1.5247   21.8177 C   0  0  0  0  0  0  0  0  0  0  0  0
    5.6744   -1.7006   21.7333 H   0  0  0  0  0  0  0  0  0  0  0  0
    7.3917   -0.7232   20.9613 C   0  0  0  0  0  0  0  0  0  0  0  0
    6.6506   -0.0064   19.8809 C   0  0  0  0  0  0  0  0  0  0  0  0
    7.1614    0.0583   18.5685 C   0  0  0  0  0  0  0  0  0  0  0  0
    8.1141   -0.4222   18.3454 H   0  0  0  0  0  0  0  0  0  0  0  0
    6.5585    0.6759   17.5450 N   0  0  0  0  0  0  0  0  0  0  0  0
    5.4033    1.3020   17.8107 C   0  0  0  0  0  0  0  0  0  0  0  0
    4.9353    1.8195   16.9779 H   0  0  0  0  0  0  0  0  0  0  0  0
    4.7971    1.3109   19.0724 C   0  0  0  0  0  0  0  0  0  0  0  0
    3.8673    1.8492   19.2175 H   0  0  0  0  0  0  0  0  0  0  0  0
    5.4250    0.6414   20.1209 C   0  0  0  0  0  0  0  0  0  0  0  0
    4.9960    0.6668   21.1261 H   0  0  0  0  0  0  0  0  0  0  0  0
    8.9141   -0.5454   21.0505 C   0  0  0  0  0  0  0  0  0  0  0  0
    9.2702   -0.9991   21.9979 H   0  0  0  0  0  0  0  0  0  0  0  0
    9.3931   -1.1255   20.2486 H   0  0  0  0  0  0  0  0  0  0  0  0
    9.3562    0.8438   20.9015 N   0  0  0  0  0  0  0  0  0  0  0  0
   10.3726    0.8580   20.8530 H   0  0  0  0  0  0  0  0  0  0  0  0
    8.9609    1.7407   21.9882 C   0  0  0  0  0  0  0  0  0  0  0  0
    7.8976    1.5866   22.2070 H   0  0  0  0  0  0  0  0  0  0  0  0
    9.0220    2.7739   21.6175 H   0  0  0  0  0  0  0  0  0  0  0  0
    9.7955    1.5855   23.2756 C   0  0  0  0  0  0  0  0  0  0  0  0
    9.6707    0.5582   23.6448 H   0  0  0  0  0  0  0  0  0  0  0  0
    9.3783    2.2416   24.0500 H   0  0  0  0  0  0  0  0  0  0  0  0
   11.2656    1.8933   23.0664 C   0  0  0  0  0  0  0  0  0  0  0  0
   12.2138    0.8669   22.9087 C   0  0  0  0  0  0  0  0  0  0  0  0
   11.8840   -0.1707   22.8762 H   0  0  0  0  0  0  0  0  0  0  0  0
   13.5691    1.1656   22.7544 C   0  0  0  0  0  0  0  0  0  0  0  0
   14.3047    0.3708   22.6486 H   0  0  0  0  0  0  0  0  0  0  0  0
   13.9776    2.4999   22.7059 C   0  0  0  0  0  0  0  0  0  0  0  0
   15.0195    2.7234   22.4947 H   0  0  0  0  0  0  0  0  0  0  0  0
   13.0422    3.5346   22.7774 C   0  0  0  0  0  0  0  0  0  0  0  0
   13.3649    4.5699   22.6982 H   0  0  0  0  0  0  0  0  0  0  0  0
   11.6885    3.2278   22.9321 C   0  0  0  0  0  0  0  0  0  0  0  0
   10.9444    4.0222   22.9177 H   0  0  0  0  0  0  0  0  0  0  0  0
  1  2  1  0
  2  3  1  0
  2  4  2  3
  4  5  1  0
  5  6  2  0
  6  7  1  0
  6  8  1  0
  8  9  2  0
  9 10  1  0
  9 11  1  0
 11 12  1  0
 11 13  2  0
 13 14  1  0
  4 15  1  0
 15 16  1  0
 15 17  1  0
 15 18  1  0
 18 19  1  0
 18 20  1  0
 20 21  1  0
 20 22  1  0
 20 23  1  0
 23 24  1  0
 23 25  1  0
 23 26  1  0
 26 27  2  0
 27 28  1  0
 27 29  1  0
 29 30  1  0
 29 31  2  0
 31 32  1  0
 31 33  1  0
 33 34  1  0
 33 35  2  0
 35 36  1  0
 13  5  1  0
 35 26  1  0
M  END
>  <cnnaffinity>  (1) 
-4.49023

>  <filename>  (1) 
C=C(CNCCc1ccccc1)c1cccnc1

$$$$
