
     RDKit          3D

 32 34  0  0  0  0  0  0  0  0999 V2000
    7.2108   -2.5707   20.1655 H   0  0  0  0  0  0  0  0  0  0  0  0
    7.5009   -1.9869   21.0277 C   0  0  0  0  0  0  0  0  0  0  0  0
    8.0365   -2.5041   21.8188 H   0  0  0  0  0  0  0  0  0  0  0  0
    7.1590   -0.6999   21.1397 C   0  0  0  0  0  0  0  0  0  0  0  0
    6.4970    0.0096   20.0040 C   0  0  0  0  0  0  0  0  0  0  0  0
    7.0911    0.0022   18.7288 C   0  0  0  0  0  0  0  0  0  0  0  0
    8.0438   -0.5096   18.5853 H   0  0  0  0  0  0  0  0  0  0  0  0
    6.5916    0.6201   17.6503 N   0  0  0  0  0  0  0  0  0  0  0  0
    5.4400    1.2905   17.8095 C   0  0  0  0  0  0  0  0  0  0  0  0
    5.0513    1.7905   16.9229 H   0  0  0  0  0  0  0  0  0  0  0  0
    4.7537    1.3594   19.0260 C   0  0  0  0  0  0  0  0  0  0  0  0
    3.8293    1.9220   19.0826 H   0  0  0  0  0  0  0  0  0  0  0  0
    5.2917    0.7157   20.1426 C   0  0  0  0  0  0  0  0  0  0  0  0
    4.7866    0.7550   21.1090 H   0  0  0  0  0  0  0  0  0  0  0  0
    7.3682    0.0403   22.4584 C   0  0  0  0  0  0  0  0  0  0  0  0
    7.9969   -0.5905   23.1003 H   0  0  0  0  0  0  0  0  0  0  0  0
    6.3892    0.0963   22.9568 H   0  0  0  0  0  0  0  0  0  0  0  0
    7.9554    1.4357   22.3797 C   0  0  0  0  0  0  0  0  0  0  0  0
    7.1628    2.5582   22.6295 C   0  0  0  0  0  0  0  0  0  0  0  0
    6.0930    2.4179   22.7610 H   0  0  0  0  0  0  0  0  0  0  0  0
    7.6967    3.8593   22.7259 C   0  0  0  0  0  0  0  0  0  0  0  0
    7.0180    4.6973   22.8969 H   0  0  0  0  0  0  0  0  0  0  0  0
    9.0613    4.0723   22.5677 C   0  0  0  0  0  0  0  0  0  0  0  0
    9.4982    5.0648   22.6258 H   0  0  0  0  0  0  0  0  0  0  0  0
    9.8648    2.9571   22.2604 C   0  0  0  0  0  0  0  0  0  0  0  0
    9.3398    1.6426   22.1504 C   0  0  0  0  0  0  0  0  0  0  0  0
   10.4537    0.7952   21.8123 C   0  0  0  0  0  0  0  0  0  0  0  0
   10.4028   -0.2689   21.6200 H   0  0  0  0  0  0  0  0  0  0  0  0
   11.5619    1.5866   21.7141 C   0  0  0  0  0  0  0  0  0  0  0  0
   12.5830    1.3259   21.4674 H   0  0  0  0  0  0  0  0  0  0  0  0
   11.2153    2.8924   22.0104 N   0  0  0  0  0  0  0  0  0  0  0  0
   11.7977    3.7029   21.8826 H   0  0  0  0  0  0  0  0  0  0  0  0
  1  2  1  0
  2  3  1  0
  2  4  2  3
  4  5  1  0
  5  6  2  0
  6  7  1  0
  6  8  1  0
  8  9  2  0
  9 10  1  0
  9 11  1  0
 11 12  1  0
 11 13  2  0
 13 14  1  0
  4 15  1  0
 15 16  1  0
 15 17  1  0
 15 18  1  0
 18 19  2  0
 19 20  1  0
 19 21  1  0
 21 22  1  0
 21 23  2  0
 23 24  1  0
 23 25  1  0
 25 26  2  0
 26 27  1  0
 27 28  1  0
 27 29  2  0
 29 30  1  0
 29 31  1  0
 31 32  1  0
 13  5  1  0
 26 18  1  0
 31 25  1  0
M  END
>  <cnnaffinity>  (1) 
-5.08078

>  <filename>  (1) 
C=C(Cc1cccc2[nH]ccc12)c1cccnc1

$$$$
