
     RDKit          3D

 26 27  0  0  0  0  0  0  0  0999 V2000
    7.2791   -1.9344   22.7033 H   0  0  0  0  0  0  0  0  0  0  0  0
    6.7540   -1.4265   21.9067 C   0  0  0  0  0  0  0  0  0  0  0  0
    5.6783   -1.5259   21.8403 H   0  0  0  0  0  0  0  0  0  0  0  0
    7.4088   -0.7293   20.9865 C   0  0  0  0  0  0  0  0  0  0  0  0
    6.7088    0.0263   19.9181 C   0  0  0  0  0  0  0  0  0  0  0  0
    7.2068    0.0678   18.6017 C   0  0  0  0  0  0  0  0  0  0  0  0
    8.1370   -0.4313   18.3389 H   0  0  0  0  0  0  0  0  0  0  0  0
    6.5854    0.6685   17.5774 N   0  0  0  0  0  0  0  0  0  0  0  0
    5.4214    1.2848   17.8324 C   0  0  0  0  0  0  0  0  0  0  0  0
    4.9454    1.7841   16.9893 H   0  0  0  0  0  0  0  0  0  0  0  0
    4.8292    1.3148   19.1009 C   0  0  0  0  0  0  0  0  0  0  0  0
    3.8828    1.8277   19.2423 H   0  0  0  0  0  0  0  0  0  0  0  0
    5.4791    0.6734   20.1554 C   0  0  0  0  0  0  0  0  0  0  0  0
    5.0428    0.6633   21.1549 H   0  0  0  0  0  0  0  0  0  0  0  0
    8.8194   -0.6689   20.9623 N   0  0  0  0  0  0  0  0  0  0  0  0
    9.2079    0.2223   20.7081 H   0  0  0  0  0  0  0  0  0  0  0  0
    9.6714   -1.6883   21.3346 C   0  0  0  0  0  0  0  0  0  0  0  0
    9.2972   -2.8444   21.4179 O   0  0  0  0  0  0  0  0  0  0  0  0
   11.0800   -1.2584   21.6219 C   0  0  0  0  0  0  0  0  0  0  0  0
   11.9770   -2.2519   21.8597 O   0  0  0  0  0  0  0  0  0  0  0  0
   13.1762   -1.6951   22.0827 C   0  0  0  0  0  0  0  0  0  0  0  0
   13.9840   -2.3989   22.2041 H   0  0  0  0  0  0  0  0  0  0  0  0
   13.0942   -0.3427   22.0445 C   0  0  0  0  0  0  0  0  0  0  0  0
   13.9245    0.3385   22.1864 H   0  0  0  0  0  0  0  0  0  0  0  0
   11.7264   -0.0482   21.7239 C   0  0  0  0  0  0  0  0  0  0  0  0
   11.3128    0.9413   21.5982 H   0  0  0  0  0  0  0  0  0  0  0  0
  1  2  1  0
  2  3  1  0
  2  4  2  3
  4  5  1  0
  5  6  2  0
  6  7  1  0
  6  8  1  0
  8  9  2  0
  9 10  1  0
  9 11  1  0
 11 12  1  0
 11 13  2  0
 13 14  1  0
  4 15  1  0
 15 16  1  0
 15 17  1  0
 17 18  2  0
 17 19  1  0
 19 20  1  0
 20 21  1  0
 21 22  1  0
 21 23  2  0
 23 24  1  0
 23 25  1  0
 25 26  1  0
 13  5  1  0
 25 19  2  0
M  END
>  <cnnaffinity>  (1) 
-4.88459

>  <filename>  (1) 
C=C(NC(=O)c1ccco1)c1cccnc1

$$$$
