
     RDKit          3D

 31 32  0  0  0  0  0  0  0  0999 V2000
    6.3513    1.0830   23.2156 H   0  0  0  0  0  0  0  0  0  0  0  0
    7.4021    1.1339   22.9359 C   0  0  0  0  0  0  0  0  0  0  0  0
    8.0192    1.8299   23.5012 H   0  0  0  0  0  0  0  0  0  0  0  0
    7.8969    0.3517   21.9761 C   0  0  0  0  0  0  0  0  0  0  0  0
    6.9669   -0.5725   21.1752 C   0  0  0  0  0  0  0  0  0  0  0  0
    7.4883   -1.4981   20.9056 H   0  0  0  0  0  0  0  0  0  0  0  0
    6.1448   -0.8701   21.8376 H   0  0  0  0  0  0  0  0  0  0  0  0
    6.3749    0.0658   19.9245 C   0  0  0  0  0  0  0  0  0  0  0  0
    6.9918    0.0110   18.6621 C   0  0  0  0  0  0  0  0  0  0  0  0
    7.8910   -0.5959   18.5113 H   0  0  0  0  0  0  0  0  0  0  0  0
    6.5415    0.6348   17.5641 N   0  0  0  0  0  0  0  0  0  0  0  0
    5.4090    1.3452   17.6809 C   0  0  0  0  0  0  0  0  0  0  0  0
    5.0628    1.8537   16.7815 H   0  0  0  0  0  0  0  0  0  0  0  0
    4.6793    1.4302   18.8704 C   0  0  0  0  0  0  0  0  0  0  0  0
    3.7598    2.0011   18.8984 H   0  0  0  0  0  0  0  0  0  0  0  0
    5.1702    0.7769   20.0036 C   0  0  0  0  0  0  0  0  0  0  0  0
    4.6132    0.8051   20.9428 H   0  0  0  0  0  0  0  0  0  0  0  0
    9.3630    0.3601   21.5704 C   0  0  0  0  0  0  0  0  0  0  0  0
    9.4331    0.8640   20.5915 H   0  0  0  0  0  0  0  0  0  0  0  0
   10.3775    1.0347   22.5184 C   0  0  0  0  0  0  0  0  0  0  0  0
   10.2852    2.1281   22.5725 H   0  0  0  0  0  0  0  0  0  0  0  0
   10.2527    0.6266   23.5368 H   0  0  0  0  0  0  0  0  0  0  0  0
   11.7257    0.5836   21.9425 C   0  0  0  0  0  0  0  0  0  0  0  0
   12.5695    0.7515   22.6207 H   0  0  0  0  0  0  0  0  0  0  0  0
   11.9445    1.1540   21.0293 H   0  0  0  0  0  0  0  0  0  0  0  0
   11.5051   -0.9086   21.6118 C   0  0  0  0  0  0  0  0  0  0  0  0
   12.0747   -1.2327   20.7346 H   0  0  0  0  0  0  0  0  0  0  0  0
   11.8402   -1.5237   22.4559 H   0  0  0  0  0  0  0  0  0  0  0  0
    9.9744   -1.0565   21.4134 C   0  0  0  0  0  0  0  0  0  0  0  0
    9.5657   -1.6941   22.2063 H   0  0  0  0  0  0  0  0  0  0  0  0
    9.6974   -1.5095   20.4524 H   0  0  0  0  0  0  0  0  0  0  0  0
  1  2  1  0
  2  3  1  0
  2  4  2  3
  4  5  1  0
  5  6  1  0
  5  7  1  0
  5  8  1  0
  8  9  2  0
  9 10  1  0
  9 11  1  0
 11 12  2  0
 12 13  1  0
 12 14  1  0
 14 15  1  0
 14 16  2  0
 16 17  1  0
  4 18  1  0
 18 19  1  0
 18 20  1  0
 20 21  1  0
 20 22  1  0
 20 23  1  0
 23 24  1  0
 23 25  1  0
 23 26  1  0
 26 27  1  0
 26 28  1  0
 26 29  1  0
 29 30  1  0
 29 31  1  0
 16  8  1  0
 29 18  1  0
M  END
>  <cnnaffinity>  (1) 
-4.63123

>  <filename>  (1) 
C=C(Cc1cccnc1)C1CCCC1

$$$$
