
     RDKit          3D

 32 33  0  0  0  0  0  0  0  0999 V2000
   10.3249    1.1224   21.7304 H   0  0  0  0  0  0  0  0  0  0  0  0
    9.6493    0.3774   21.3082 C   0  0  0  0  0  0  0  0  0  0  0  0
   10.0681   -0.3110   20.5733 H   0  0  0  0  0  0  0  0  0  0  0  0
    8.3696    0.3091   21.6767 C   0  0  0  0  0  0  0  0  0  0  0  0
    7.7792    1.3060   22.6275 C   0  0  0  0  0  0  0  0  0  0  0  0
    6.9623    0.8876   23.6889 C   0  0  0  0  0  0  0  0  0  0  0  0
    6.7696   -0.1756   23.8184 H   0  0  0  0  0  0  0  0  0  0  0  0
    6.4502    1.8195   24.5976 C   0  0  0  0  0  0  0  0  0  0  0  0
    5.8336    1.4792   25.4220 H   0  0  0  0  0  0  0  0  0  0  0  0
    6.7233    3.1792   24.4449 C   0  0  0  0  0  0  0  0  0  0  0  0
    6.3349    3.9347   25.1233 H   0  0  0  0  0  0  0  0  0  0  0  0
    7.5184    3.5911   23.3763 C   0  0  0  0  0  0  0  0  0  0  0  0
    7.6978    4.9727   23.3287 O   0  0  0  0  0  0  0  0  0  0  0  0
    8.4754    5.5511   22.3929 C   0  0  0  0  0  0  0  0  0  0  0  0
    9.7509    5.1386   22.4761 F   0  0  0  0  0  0  0  0  0  0  0  0
    8.0431    5.3312   21.1418 F   0  0  0  0  0  0  0  0  0  0  0  0
    8.4446    6.8598   22.6133 F   0  0  0  0  0  0  0  0  0  0  0  0
    8.0575    2.6807   22.4661 C   0  0  0  0  0  0  0  0  0  0  0  0
    8.6732    3.0226   21.6386 H   0  0  0  0  0  0  0  0  0  0  0  0
    7.4118   -0.6905   21.0203 C   0  0  0  0  0  0  0  0  0  0  0  0
    7.9917   -1.5367   20.6284 H   0  0  0  0  0  0  0  0  0  0  0  0
    6.7126   -1.1076   21.7608 H   0  0  0  0  0  0  0  0  0  0  0  0
    6.6344   -0.0157   19.8986 C   0  0  0  0  0  0  0  0  0  0  0  0
    7.1483    0.0630   18.5905 C   0  0  0  0  0  0  0  0  0  0  0  0
    8.0979   -0.4100   18.3540 H   0  0  0  0  0  0  0  0  0  0  0  0
    6.5546    0.6869   17.5653 N   0  0  0  0  0  0  0  0  0  0  0  0
    5.3933    1.3031   17.8259 C   0  0  0  0  0  0  0  0  0  0  0  0
    4.9220    1.7996   16.9790 H   0  0  0  0  0  0  0  0  0  0  0  0
    4.7986    1.3189   19.0932 C   0  0  0  0  0  0  0  0  0  0  0  0
    3.8673    1.8521   19.2390 H   0  0  0  0  0  0  0  0  0  0  0  0
    5.4304    0.6515   20.1479 C   0  0  0  0  0  0  0  0  0  0  0  0
    5.0188    0.6541   21.1622 H   0  0  0  0  0  0  0  0  0  0  0  0
  1  2  1  0
  2  3  1  0
  2  4  2  3
  4  5  1  0
  5  6  2  0
  6  7  1  0
  6  8  1  0
  8  9  1  0
  8 10  2  0
 10 11  1  0
 10 12  1  0
 12 13  1  0
 13 14  1  0
 14 15  1  0
 14 16  1  0
 14 17  1  0
 12 18  2  0
 18 19  1  0
  4 20  1  0
 20 21  1  0
 20 22  1  0
 20 23  1  0
 23 24  2  0
 24 25  1  0
 24 26  1  0
 26 27  2  0
 27 28  1  0
 27 29  1  0
 29 30  1  0
 29 31  2  0
 31 32  1  0
 18  5  1  0
 31 23  1  0
M  END
>  <cnnaffinity>  (1) 
-4.58302

>  <filename>  (1) 
C=C(Cc1cccnc1)c1cccc(OC(F)(F)F)c1

$$$$
