
     RDKit          3D

 37 38  0  0  0  0  0  0  0  0999 V2000
    7.9551   -0.8056   23.0427 H   0  0  0  0  0  0  0  0  0  0  0  0
    7.4364   -0.2900   22.2379 C   0  0  0  0  0  0  0  0  0  0  0  0
    6.9254    0.6367   22.4630 H   0  0  0  0  0  0  0  0  0  0  0  0
    7.4027   -0.7360   20.9801 C   0  0  0  0  0  0  0  0  0  0  0  0
    8.0759   -1.8282   20.5213 O   0  0  0  0  0  0  0  0  0  0  0  0
    8.7079   -2.7396   21.4270 C   0  0  0  0  0  0  0  0  0  0  0  0
    9.3846   -2.2159   22.1124 H   0  0  0  0  0  0  0  0  0  0  0  0
    9.3200   -3.3485   20.7716 H   0  0  0  0  0  0  0  0  0  0  0  0
    7.7320   -3.6429   22.1873 C   0  0  0  0  0  0  0  0  0  0  0  0
    7.0134   -3.0087   22.7331 H   0  0  0  0  0  0  0  0  0  0  0  0
    7.1506   -4.1938   21.4406 H   0  0  0  0  0  0  0  0  0  0  0  0
    8.4303   -4.6046   23.0533 N   0  0  0  0  0  0  0  0  0  0  0  0
    8.7702   -4.0553   24.3801 C   0  0  0  0  0  0  0  0  0  0  0  0
    9.2430   -3.0780   24.2429 H   0  0  0  0  0  0  0  0  0  0  0  0
    9.5367   -4.6974   24.8341 H   0  0  0  0  0  0  0  0  0  0  0  0
    7.5759   -3.9367   25.3496 C   0  0  0  0  0  0  0  0  0  0  0  0
    6.8988   -3.1528   24.9860 H   0  0  0  0  0  0  0  0  0  0  0  0
    7.9251   -3.6024   26.3339 H   0  0  0  0  0  0  0  0  0  0  0  0
    6.8110   -5.2646   25.4615 C   0  0  0  0  0  0  0  0  0  0  0  0
    7.4413   -5.9982   25.9855 H   0  0  0  0  0  0  0  0  0  0  0  0
    5.9066   -5.1432   26.0666 H   0  0  0  0  0  0  0  0  0  0  0  0
    6.4599   -5.7953   24.0634 C   0  0  0  0  0  0  0  0  0  0  0  0
    5.9013   -6.7351   24.1115 H   0  0  0  0  0  0  0  0  0  0  0  0
    5.7570   -5.1175   23.5653 H   0  0  0  0  0  0  0  0  0  0  0  0
    7.7316   -5.8934   23.1980 C   0  0  0  0  0  0  0  0  0  0  0  0
    7.5006   -6.2839   22.2004 H   0  0  0  0  0  0  0  0  0  0  0  0
    8.4367   -6.6125   23.6397 H   0  0  0  0  0  0  0  0  0  0  0  0
    6.6582   -0.0299   19.8999 C   0  0  0  0  0  0  0  0  0  0  0  0
    7.1705    0.0363   18.5930 C   0  0  0  0  0  0  0  0  0  0  0  0
    8.1231   -0.4365   18.3651 H   0  0  0  0  0  0  0  0  0  0  0  0
    6.5733    0.6748   17.5814 N   0  0  0  0  0  0  0  0  0  0  0  0
    5.4071    1.2889   17.8408 C   0  0  0  0  0  0  0  0  0  0  0  0
    4.9251    1.7820   16.9983 H   0  0  0  0  0  0  0  0  0  0  0  0
    4.8123    1.3020   19.1059 C   0  0  0  0  0  0  0  0  0  0  0  0
    3.8823    1.8388   19.2581 H   0  0  0  0  0  0  0  0  0  0  0  0
    5.4470    0.6414   20.1554 C   0  0  0  0  0  0  0  0  0  0  0  0
    5.0090    0.6250   21.1561 H   0  0  0  0  0  0  0  0  0  0  0  0
  1  2  1  0
  2  3  1  0
  2  4  2  3
  4  5  1  0
  5  6  1  0
  6  7  1  0
  6  8  1  0
  6  9  1  0
  9 10  1  0
  9 11  1  0
  9 12  1  0
 12 13  1  0
 13 14  1  0
 13 15  1  0
 13 16  1  0
 16 17  1  0
 16 18  1  0
 16 19  1  0
 19 20  1  0
 19 21  1  0
 19 22  1  0
 22 23  1  0
 22 24  1  0
 22 25  1  0
 25 26  1  0
 25 27  1  0
  4 28  1  0
 28 29  2  0
 29 30  1  0
 29 31  1  0
 31 32  2  0
 32 33  1  0
 32 34  1  0
 34 35  1  0
 34 36  2  0
 36 37  1  0
 25 12  1  0
 36 28  1  0
M  END
>  <cnnaffinity>  (1) 
-4.28049

>  <filename>  (1) 
C=C(OCCN1CCCCC1)c1cccnc1

$$$$
