
     RDKit          3D

 31 32  0  0  0  0  0  0  0  0999 V2000
    7.3377   -0.0396   23.1539 H   0  0  0  0  0  0  0  0  0  0  0  0
    6.9927    0.4962   22.2730 C   0  0  0  0  0  0  0  0  0  0  0  0
    6.6300    1.5141   22.4329 H   0  0  0  0  0  0  0  0  0  0  0  0
    6.9725   -0.1011   21.0759 C   0  0  0  0  0  0  0  0  0  0  0  0
    6.4491    0.6289   19.8649 C   0  0  0  0  0  0  0  0  0  0  0  0
    7.1154    0.6487   18.6195 C   0  0  0  0  0  0  0  0  0  0  0  0
    8.1133    0.2315   18.5085 H   0  0  0  0  0  0  0  0  0  0  0  0
    6.6206    1.1826   17.4951 N   0  0  0  0  0  0  0  0  0  0  0  0
    5.4250    1.7860   17.5798 C   0  0  0  0  0  0  0  0  0  0  0  0
    5.0446    2.2263   16.6586 H   0  0  0  0  0  0  0  0  0  0  0  0
    4.6910    1.8703   18.7659 C   0  0  0  0  0  0  0  0  0  0  0  0
    3.7462    2.4016   18.7730 H   0  0  0  0  0  0  0  0  0  0  0  0
    5.2085    1.2852   19.9223 C   0  0  0  0  0  0  0  0  0  0  0  0
    4.6543    1.3049   20.8606 H   0  0  0  0  0  0  0  0  0  0  0  0
    7.3158   -1.6494   20.9076 C   0  0  0  0  0  0  0  0  0  0  0  0
    6.5936   -1.9185   20.0486 H   0  0  0  0  0  0  0  0  0  0  0  0
    6.7071   -2.1336   21.7498 H   0  0  0  0  0  0  0  0  0  0  0  0
    8.7801   -2.3599   20.8555 C   0  0  0  0  0  0  0  0  0  0  0  0
    8.9059   -2.1121   20.7555 C   0  0  0  0  0  0  0  0  0  0  0  0
    9.4100   -1.4962   19.8499 H   0  0  0  0  0  0  0  0  0  0  0  0
   10.8873   -1.4543   21.3423 C   0  0  0  0  0  0  0  0  0  0  0  0
   11.4076   -0.6954   20.7501 H   0  0  0  0  0  0  0  0  0  0  0  0
   11.2421   -2.1047   22.4334 C   0  0  0  0  0  0  0  0  0  0  0  0
   12.2767   -2.1143   22.7673 H   0  0  0  0  0  0  0  0  0  0  0  0
   10.2019   -2.9824   23.0105 C   0  0  0  0  0  0  0  0  0  0  0  0
   10.3104   -3.8019   24.2507 C   0  0  0  0  0  0  0  0  0  0  0  0
   11.5729   -4.2121   24.4565 F   0  0  0  0  0  0  0  0  0  0  0  0
    9.5383   -4.9109   24.2235 F   0  0  0  0  0  0  0  0  0  0  0  0
    9.9260   -3.1134   25.3409 F   0  0  0  0  0  0  0  0  0  0  0  0
    9.0525   -3.0053   22.2120 C   0  0  0  0  0  0  0  0  0  0  0  0
    8.3633   -3.8558   22.3185 H   0  0  0  0  0  0  0  0  0  0  0  0
  1  2  1  0
  2  3  1  0
  2  4  2  3
  4  5  1  0
  5  6  2  0
  6  7  1  0
  6  8  1  0
  8  9  2  0
  9 10  1  0
  9 11  1  0
 11 12  1  0
 11 13  2  0
 13 14  1  0
  4 15  1  0
 15 16  1  0
 15 17  1  0
 15 18  1  0
 18 19  2  0
 19 20  1  0
 19 21  1  0
 21 22  1  0
 21 23  2  0
 23 24  1  0
 23 25  1  0
 25 26  1  0
 26 27  1  0
 26 28  1  0
 26 29  1  0
 25 30  2  0
 30 31  1  0
 13  5  1  0
 30 18  1  0
M  END
>  <cnnaffinity>  (1) 
-5.14746

>  <filename>  (1) 
C=C(Cc1cccc(C(F)(F)F)c1)c1cccnc1

$$$$
