
     RDKit          3D

 29 30  0  0  0  0  0  0  0  0999 V2000
   10.0250   -1.4302   20.8220 H   0  0  0  0  0  0  0  0  0  0  0  0
    9.9027   -0.4228   21.2023 C   0  0  0  0  0  0  0  0  0  0  0  0
   10.8068    0.1375   21.4208 H   0  0  0  0  0  0  0  0  0  0  0  0
    8.6764    0.0700   21.3876 C   0  0  0  0  0  0  0  0  0  0  0  0
    8.5241    1.3820   21.8545 N   0  0  0  0  0  0  0  0  0  0  0  0
    9.2588    2.0119   21.5853 H   0  0  0  0  0  0  0  0  0  0  0  0
    7.4459    1.9603   22.4986 C   0  0  0  0  0  0  0  0  0  0  0  0
    6.7875    1.2925   23.5333 C   0  0  0  0  0  0  0  0  0  0  0  0
    7.1635    0.3306   23.8596 H   0  0  0  0  0  0  0  0  0  0  0  0
    5.6948    1.9131   24.1259 C   0  0  0  0  0  0  0  0  0  0  0  0
    5.1625    1.4314   24.9438 H   0  0  0  0  0  0  0  0  0  0  0  0
    5.2241    3.1085   23.7451 N   0  0  0  0  0  0  0  0  0  0  0  0
    5.8795    3.7452   22.7646 C   0  0  0  0  0  0  0  0  0  0  0  0
    5.4757    4.7145   22.4702 H   0  0  0  0  0  0  0  0  0  0  0  0
    7.0142    3.2419   22.1386 C   0  0  0  0  0  0  0  0  0  0  0  0
    7.5370    3.8290   21.3973 H   0  0  0  0  0  0  0  0  0  0  0  0
    7.4091   -0.6988   21.0036 C   0  0  0  0  0  0  0  0  0  0  0  0
    7.7266   -1.7078   20.7182 H   0  0  0  0  0  0  0  0  0  0  0  0
    6.7758   -0.8123   21.8879 H   0  0  0  0  0  0  0  0  0  0  0  0
    6.6179   -0.0195   19.8881 C   0  0  0  0  0  0  0  0  0  0  0  0
    7.1302    0.0541   18.5789 C   0  0  0  0  0  0  0  0  0  0  0  0
    8.0821   -0.4177   18.3373 H   0  0  0  0  0  0  0  0  0  0  0  0
    6.5337    0.6848   17.5577 N   0  0  0  0  0  0  0  0  0  0  0  0
    5.3751    1.3097   17.8138 C   0  0  0  0  0  0  0  0  0  0  0  0
    4.9218    1.8266   16.9683 H   0  0  0  0  0  0  0  0  0  0  0  0
    4.7696    1.3201   19.0732 C   0  0  0  0  0  0  0  0  0  0  0  0
    3.8404    1.8642   19.2079 H   0  0  0  0  0  0  0  0  0  0  0  0
    5.4064    0.6460   20.1238 C   0  0  0  0  0  0  0  0  0  0  0  0
    4.9964    0.6563   21.1366 H   0  0  0  0  0  0  0  0  0  0  0  0
  1  2  1  0
  2  3  1  0
  2  4  2  3
  4  5  1  0
  5  6  1  0
  5  7  1  0
  7  8  2  0
  8  9  1  0
  8 10  1  0
 10 11  1  0
 10 12  2  0
 12 13  1  0
 13 14  1  0
 13 15  2  0
 15 16  1  0
  4 17  1  0
 17 18  1  0
 17 19  1  0
 17 20  1  0
 20 21  2  0
 21 22  1  0
 21 23  1  0
 23 24  2  0
 24 25  1  0
 24 26  1  0
 26 27  1  0
 26 28  2  0
 28 29  1  0
 15  7  1  0
 28 20  1  0
M  END
>  <cnnaffinity>  (1) 
-4.26728

>  <filename>  (1) 
C=C(Cc1cccnc1)Nc1ccncc1

$$$$
