
     RDKit          3D

 51 55  0  0  0  0  0  0  0  0999 V2000
   11.0186   -0.7135   23.6321 C   0  0  0  0  0  0  0  0  0  0  0  0
   11.7218    0.4139   23.7328 C   0  0  0  0  0  0  0  0  0  0  0  0
   11.9632    1.1048   25.0441 C   0  0  0  0  0  0  0  0  0  0  0  0
   11.8243    2.1865   24.9479 H   0  0  0  0  0  0  0  0  0  0  0  0
   12.9953    0.9395   25.3724 H   0  0  0  0  0  0  0  0  0  0  0  0
   11.2778    0.7491   25.8213 H   0  0  0  0  0  0  0  0  0  0  0  0
   12.2675    1.0929   22.4724 C   0  0  2  0  0  0  0  0  0  0  0  0
   13.4500    1.8201   22.7448 O   0  0  0  0  0  0  0  0  0  0  0  0
   13.2278    3.2267   22.6981 C   0  0  0  0  0  0  0  0  0  0  0  0
   11.7236    3.4483   22.5251 C   0  0  0  0  0  0  0  0  0  0  0  0
   11.3149    2.1566   21.8210 C   0  0  2  0  0  0  0  0  0  0  0  0
    9.8859    1.7129   21.8097 C   0  0  0  0  0  0  0  0  0  0  0  0
    9.4687    0.7713   20.9804 N   0  0  0  0  0  0  0  0  0  0  0  0
    8.3112    0.3430   21.5538 C   0  0  0  0  0  0  0  0  0  0  0  0
    7.4254   -0.6921   20.9294 C   0  0  0  0  0  0  0  0  0  0  0  0
    6.6271   -0.0770   19.7991 C   0  0  0  0  0  0  0  0  0  0  0  0
    5.4443    0.6146   20.0759 C   0  0  0  0  0  0  0  0  0  0  0  0
    4.8144    1.3077   19.0412 C   0  0  0  0  0  0  0  0  0  0  0  0
    5.4077    1.2981   17.7733 C   0  0  0  0  0  0  0  0  0  0  0  0
    6.5427    0.6417   17.4860 N   0  0  0  0  0  0  0  0  0  0  0  0
    7.1266   -0.0260   18.4884 C   0  0  0  0  0  0  0  0  0  0  0  0
    8.0562   -0.5468   18.2554 H   0  0  0  0  0  0  0  0  0  0  0  0
    4.9483    1.8356   16.9470 H   0  0  0  0  0  0  0  0  0  0  0  0
    3.8904    1.8511   19.2066 H   0  0  0  0  0  0  0  0  0  0  0  0
    5.0374    0.6092   21.0904 H   0  0  0  0  0  0  0  0  0  0  0  0
    8.0439   -1.5184   20.5703 H   0  0  0  0  0  0  0  0  0  0  0  0
    6.7548   -1.0654   21.7089 H   0  0  0  0  0  0  0  0  0  0  0  0
    7.9825    0.9590   22.6650 N   0  0  0  0  0  0  0  0  0  0  0  0
    8.9609    1.9007   22.7933 N   0  0  0  0  0  0  0  0  0  0  0  0
    8.8529    2.8723   23.8292 C   0  0  0  0  0  0  0  0  0  0  0  0
    8.8494    2.5203   25.1785 C   0  0  0  0  0  0  0  0  0  0  0  0
    8.7152    3.5135   26.1776 C   0  0  0  0  0  0  0  0  0  0  0  0
    8.5948    4.8642   25.8508 C   0  0  0  0  0  0  0  0  0  0  0  0
    8.5732    5.2284   24.4914 C   0  0  0  0  0  0  0  0  0  0  0  0
    8.6748    4.2297   23.5117 C   0  0  0  0  0  0  0  0  0  0  0  0
    8.5343    4.8977   22.3208 N   0  0  0  0  0  0  0  0  0  0  0  0
    8.3581    6.2165   22.6186 C   0  0  0  0  0  0  0  0  0  0  0  0
    8.3888    6.4695   23.8941 N   0  0  0  0  0  0  0  0  0  0  0  0
    8.1720    6.9521   21.8416 H   0  0  0  0  0  0  0  0  0  0  0  0
    8.4529    4.4613   21.4225 H   0  0  0  0  0  0  0  0  0  0  0  0
    8.4665    5.6396   26.5974 H   0  0  0  0  0  0  0  0  0  0  0  0
    8.6435    3.2144   27.2202 H   0  0  0  0  0  0  0  0  0  0  0  0
    8.9202    1.4714   25.4556 H   0  0  0  0  0  0  0  0  0  0  0  0
   11.6067    2.2208   20.7691 H   0  0  0  0  0  0  0  0  0  0  0  0
   11.2442    3.5591   23.5020 H   0  0  0  0  0  0  0  0  0  0  0  0
   11.5131    4.3510   21.9471 H   0  0  0  0  0  0  0  0  0  0  0  0
   13.8021    3.6358   21.8597 H   0  0  0  0  0  0  0  0  0  0  0  0
   13.6221    3.6937   23.6085 H   0  0  0  0  0  0  0  0  0  0  0  0
   12.5011    0.2969   21.7533 H   0  0  0  0  0  0  0  0  0  0  0  0
   10.8426   -1.2055   22.6761 H   0  0  0  0  0  0  0  0  0  0  0  0
   10.5803   -1.1759   24.5117 H   0  0  0  0  0  0  0  0  0  0  0  0
  1  2  2  3
  2  3  1  0
  3  4  1  0
  3  5  1  0
  3  6  1  0
  2  7  1  0
  7  8  1  0
  8  9  1  0
  9 10  1  0
 10 11  1  0
 11 12  1  0
 12 13  2  0
 13 14  1  0
 14 15  1  0
 15 16  1  0
 16 17  2  0
 17 18  1  0
 18 19  2  0
 19 20  1  0
 20 21  2  0
 21 22  1  0
 19 23  1  0
 18 24  1  0
 17 25  1  0
 15 26  1  0
 15 27  1  0
 14 28  2  0
 28 29  1  0
 29 30  1  0
 30 31  2  0
 31 32  1  0
 32 33  2  0
 33 34  1  0
 34 35  2  0
 35 36  1  0
 36 37  1  0
 37 38  2  0
 37 39  1  0
 36 40  1  0
 33 41  1  0
 32 42  1  0
 31 43  1  0
 11 44  1  6
 10 45  1  0
 10 46  1  0
  9 47  1  0
  9 48  1  0
  7 49  1  6
  1 50  1  0
  1 51  1  0
 11  7  1  0
 29 12  1  0
 35 30  1  0
 21 16  1  0
 38 34  1  0
M  END
>  <cnnaffinity>  (1) 
-6.09338

>  <filename>  (1) 
C=C(C)[C@@H]1OCC[C@@H]1c1nc(Cc2cccnc2)nn1-c1cccc2nc[nH]c12

$$$$
