
     RDKit          3D

 31 33  0  0  0  0  0  0  0  0999 V2000
    7.1119   -2.0913   22.6148 H   0  0  0  0  0  0  0  0  0  0  0  0
    6.6604   -1.5537   21.7849 C   0  0  0  0  0  0  0  0  0  0  0  0
    5.5927   -1.6654   21.6322 H   0  0  0  0  0  0  0  0  0  0  0  0
    7.3922   -0.7703   20.9857 C   0  0  0  0  0  0  0  0  0  0  0  0
    6.7100   -0.0135   19.8837 C   0  0  0  0  0  0  0  0  0  0  0  0
    7.2336    0.0344   18.5795 C   0  0  0  0  0  0  0  0  0  0  0  0
    8.1557   -0.4998   18.3535 H   0  0  0  0  0  0  0  0  0  0  0  0
    6.6443    0.6608   17.5506 N   0  0  0  0  0  0  0  0  0  0  0  0
    5.4880    1.2960   17.8017 C   0  0  0  0  0  0  0  0  0  0  0  0
    5.0261    1.8092   16.9594 H   0  0  0  0  0  0  0  0  0  0  0  0
    4.8681    1.3143   19.0588 C   0  0  0  0  0  0  0  0  0  0  0  0
    3.9264    1.8411   19.1991 H   0  0  0  0  0  0  0  0  0  0  0  0
    5.4848    0.6386   20.1127 C   0  0  0  0  0  0  0  0  0  0  0  0
    5.0346    0.6129   21.1090 H   0  0  0  0  0  0  0  0  0  0  0  0
    8.8650   -0.6674   21.2310 C   0  0  0  0  0  0  0  0  0  0  0  0
    9.6037   -1.8304   21.3816 C   0  0  0  0  0  0  0  0  0  0  0  0
    9.0816   -2.7748   21.2820 H   0  0  0  0  0  0  0  0  0  0  0  0
   10.9920   -1.7997   21.6514 C   0  0  0  0  0  0  0  0  0  0  0  0
   11.5211   -2.7193   21.8795 H   0  0  0  0  0  0  0  0  0  0  0  0
   11.6622   -0.6018   21.7219 C   0  0  0  0  0  0  0  0  0  0  0  0
   12.7327   -0.5811   21.9195 H   0  0  0  0  0  0  0  0  0  0  0  0
   10.9442    0.6282   21.6223 C   0  0  0  0  0  0  0  0  0  0  0  0
   11.5941    1.8914   21.8003 C   0  0  0  0  0  0  0  0  0  0  0  0
   12.6800    1.9316   21.8353 H   0  0  0  0  0  0  0  0  0  0  0  0
   10.8636    3.0407   21.9696 C   0  0  0  0  0  0  0  0  0  0  0  0
   11.3585    3.9910   22.1814 H   0  0  0  0  0  0  0  0  0  0  0  0
    9.4445    2.9966   21.8903 C   0  0  0  0  0  0  0  0  0  0  0  0
    8.8717    3.9081   22.0363 H   0  0  0  0  0  0  0  0  0  0  0  0
    8.7899    1.8163   21.6333 C   0  0  0  0  0  0  0  0  0  0  0  0
    7.7032    1.7797   21.6298 H   0  0  0  0  0  0  0  0  0  0  0  0
    9.5181    0.5980   21.4556 C   0  0  0  0  0  0  0  0  0  0  0  0
  1  2  1  0
  2  3  1  0
  2  4  2  3
  4  5  1  0
  5  6  2  0
  6  7  1  0
  6  8  1  0
  8  9  2  0
  9 10  1  0
  9 11  1  0
 11 12  1  0
 11 13  2  0
 13 14  1  0
  4 15  1  0
 15 16  2  0
 16 17  1  0
 16 18  1  0
 18 19  1  0
 18 20  2  0
 20 21  1  0
 20 22  1  0
 22 23  2  0
 23 24  1  0
 23 25  1  0
 25 26  1  0
 25 27  2  0
 27 28  1  0
 27 29  1  0
 29 30  1  0
 29 31  2  0
 13  5  1  0
 31 15  1  0
 31 22  1  0
M  END
>  <cnnaffinity>  (1) 
-5.23116

>  <filename>  (1) 
C=C(c1cccnc1)c1cccc2ccccc12

$$$$
