
     RDKit          3D

 45 48  0  0  0  0  0  0  0  0999 V2000
   12.2954    0.1803   23.1951 C   0  0  0  0  0  0  0  0  0  0  0  0
   12.0587    1.4775   23.0303 C   0  0  0  0  0  0  0  0  0  0  0  0
   12.4884    2.5042   24.0319 C   0  0  0  0  0  0  0  0  0  0  0  0
   12.2362    2.1833   25.0478 H   0  0  0  0  0  0  0  0  0  0  0  0
   13.5651    2.6991   23.9653 H   0  0  0  0  0  0  0  0  0  0  0  0
   11.9802    3.4582   23.8772 H   0  0  0  0  0  0  0  0  0  0  0  0
   11.2927    1.9711   21.8150 C   0  0  0  0  0  0  0  0  0  0  0  0
    9.8772    1.5083   21.8595 C   0  0  0  0  0  0  0  0  0  0  0  0
    9.4141    0.5818   21.0481 N   0  0  0  0  0  0  0  0  0  0  0  0
    8.2187    0.2590   21.6013 C   0  0  0  0  0  0  0  0  0  0  0  0
    7.3082   -0.7344   20.9567 C   0  0  0  0  0  0  0  0  0  0  0  0
    6.5477   -0.0906   19.8117 C   0  0  0  0  0  0  0  0  0  0  0  0
    5.3691    0.6180   20.0599 C   0  0  0  0  0  0  0  0  0  0  0  0
    4.7689    1.3260   19.0154 C   0  0  0  0  0  0  0  0  0  0  0  0
    5.3877    1.3093   17.7601 C   0  0  0  0  0  0  0  0  0  0  0  0
    6.5245    0.6433   17.5004 N   0  0  0  0  0  0  0  0  0  0  0  0
    7.0817   -0.0296   18.5143 C   0  0  0  0  0  0  0  0  0  0  0  0
    8.0225   -0.5397   18.3051 H   0  0  0  0  0  0  0  0  0  0  0  0
    4.9559    1.8521   16.9212 H   0  0  0  0  0  0  0  0  0  0  0  0
    3.8549    1.8937   19.1635 H   0  0  0  0  0  0  0  0  0  0  0  0
    4.9483    0.6163   21.0669 H   0  0  0  0  0  0  0  0  0  0  0  0
    7.9243   -1.5640   20.5971 H   0  0  0  0  0  0  0  0  0  0  0  0
    6.6184   -1.1062   21.7206 H   0  0  0  0  0  0  0  0  0  0  0  0
    7.9135    0.9158   22.6939 N   0  0  0  0  0  0  0  0  0  0  0  0
    8.9661    1.7745   22.8459 N   0  0  0  0  0  0  0  0  0  0  0  0
    8.9607    2.7062   23.9470 C   0  0  0  0  0  0  0  0  0  0  0  0
    8.8141    2.2130   25.2305 C   0  0  0  0  0  0  0  0  0  0  0  0
    8.8234    3.0712   26.3540 C   0  0  0  0  0  0  0  0  0  0  0  0
    8.9903    4.4312   26.1916 C   0  0  0  0  0  0  0  0  0  0  0  0
    9.1248    4.9777   24.8876 C   0  0  0  0  0  0  0  0  0  0  0  0
    9.2949    6.3756   24.6643 C   0  0  0  0  0  0  0  0  0  0  0  0
    9.2554    6.8656   23.3847 C   0  0  0  0  0  0  0  0  0  0  0  0
    9.0409    6.1000   22.2883 N   0  0  0  0  0  0  0  0  0  0  0  0
    8.9139    4.7914   22.4669 C   0  0  0  0  0  0  0  0  0  0  0  0
    9.0259    4.1324   23.7344 C   0  0  0  0  0  0  0  0  0  0  0  0
    8.6785    4.2041   21.5788 H   0  0  0  0  0  0  0  0  0  0  0  0
    9.3801    7.9317   23.2002 H   0  0  0  0  0  0  0  0  0  0  0  0
    9.4378    7.0413   25.5092 H   0  0  0  0  0  0  0  0  0  0  0  0
    8.9693    5.1203   27.0292 H   0  0  0  0  0  0  0  0  0  0  0  0
    8.6692    2.6298   27.3368 H   0  0  0  0  0  0  0  0  0  0  0  0
    8.6311    1.1525   25.3678 H   0  0  0  0  0  0  0  0  0  0  0  0
   11.7315    1.5718   20.8960 H   0  0  0  0  0  0  0  0  0  0  0  0
   11.3284    3.0598   21.7654 H   0  0  0  0  0  0  0  0  0  0  0  0
   12.8558   -0.1882   24.0516 H   0  0  0  0  0  0  0  0  0  0  0  0
   11.9175   -0.5557   22.4918 H   0  0  0  0  0  0  0  0  0  0  0  0
  1  2  2  3
  2  3  1  0
  3  4  1  0
  3  5  1  0
  3  6  1  0
  2  7  1  0
  7  8  1  0
  8  9  2  0
  9 10  1  0
 10 11  1  0
 11 12  1  0
 12 13  2  0
 13 14  1  0
 14 15  2  0
 15 16  1  0
 16 17  2  0
 17 18  1  0
 15 19  1  0
 14 20  1  0
 13 21  1  0
 11 22  1  0
 11 23  1  0
 10 24  2  0
 24 25  1  0
 25 26  1  0
 26 27  2  0
 27 28  1  0
 28 29  2  0
 29 30  1  0
 30 31  2  0
 31 32  1  0
 32 33  2  0
 33 34  1  0
 34 35  2  0
 34 36  1  0
 32 37  1  0
 31 38  1  0
 29 39  1  0
 28 40  1  0
 27 41  1  0
  7 42  1  0
  7 43  1  0
  1 44  1  0
  1 45  1  0
 25  8  1  0
 35 26  1  0
 17 12  1  0
 35 30  1  0
M  END
>  <cnnaffinity>  (1) 
-5.65389

>  <filename>  (1) 
C=C(C)Cc1nc(Cc2cccnc2)nn1-c1cccc2ccncc12

$$$$
