
     RDKit          3D

 49 52  0  0  0  0  0  0  0  0999 V2000
    9.1493   -4.0026   25.8681 C   0  0  0  0  0  0  0  0  0  0  0  0
    7.9479   -4.1474   25.3035 C   0  0  0  0  0  0  0  0  0  0  0  0
    6.9835   -5.2415   25.4854 C   0  0  0  0  0  0  0  0  0  0  0  0
    6.8542   -6.2354   26.4769 C   0  0  0  0  0  0  0  0  0  0  0  0
    5.7921   -7.1319   26.3876 C   0  0  0  0  0  0  0  0  0  0  0  0
    4.8740   -7.0669   25.3091 C   0  0  0  0  0  0  0  0  0  0  0  0
    4.9894   -6.0707   24.3395 C   0  0  0  0  0  0  0  0  0  0  0  0
    6.0389   -5.1587   24.4528 C   0  0  0  0  0  0  0  0  0  0  0  0
    6.3340   -3.9465   23.6552 C   0  0  0  0  0  0  0  0  0  0  0  0
    5.7715   -3.5487   22.6598 O   0  0  0  0  0  0  0  0  0  0  0  0
    7.4262   -3.3173   24.2889 N   0  0  0  0  0  0  0  0  0  0  0  0
    7.6088   -1.8473   24.2600 C   0  0  0  0  0  0  0  0  0  0  0  0
    7.7665   -1.2722   22.8837 C   0  0  0  0  0  0  0  0  0  0  0  0
    6.9423   -0.4330   22.2904 N   0  0  0  0  0  0  0  0  0  0  0  0
    7.3873   -0.4218   21.0113 C   0  0  0  0  0  0  0  0  0  0  0  0
    6.6477    0.2007   19.9219 C   0  0  0  0  0  0  0  0  0  0  0  0
    5.3968    0.8178   20.0908 C   0  0  0  0  0  0  0  0  0  0  0  0
    4.7961    1.3805   18.9671 C   0  0  0  0  0  0  0  0  0  0  0  0
    5.4514    1.2938   17.7318 C   0  0  0  0  0  0  0  0  0  0  0  0
    6.6203    0.6605   17.5560 N   0  0  0  0  0  0  0  0  0  0  0  0
    7.1938    0.1221   18.6344 C   0  0  0  0  0  0  0  0  0  0  0  0
    8.1298   -0.4102   18.4757 H   0  0  0  0  0  0  0  0  0  0  0  0
    5.0192    1.7493   16.8438 H   0  0  0  0  0  0  0  0  0  0  0  0
    3.8440    1.8958   19.0312 H   0  0  0  0  0  0  0  0  0  0  0  0
    4.9111    0.8444   21.0699 H   0  0  0  0  0  0  0  0  0  0  0  0
    8.4924   -1.1266   20.8169 N   0  0  0  0  0  0  0  0  0  0  0  0
    8.7371   -1.6639   22.0321 N   0  0  0  0  0  0  0  0  0  0  0  0
    9.9374   -2.4702   22.2350 C   0  0  0  0  0  0  0  0  0  0  0  0
   11.2438   -1.7017   22.5206 C   0  0  0  0  0  0  0  0  0  0  0  0
   11.8695   -1.0891   21.2610 C   0  0  0  0  0  0  0  0  0  0  0  0
   11.1205   -0.5538   20.6627 H   0  0  0  0  0  0  0  0  0  0  0  0
   12.3515   -1.8582   20.6413 H   0  0  0  0  0  0  0  0  0  0  0  0
   12.6410   -0.3773   21.5734 H   0  0  0  0  0  0  0  0  0  0  0  0
   11.0468   -0.6397   23.6212 C   0  0  0  0  0  0  0  0  0  0  0  0
   12.2271    0.0765   23.9392 O   0  0  0  0  0  0  0  0  0  0  0  0
   12.9602   -0.5499   24.0029 H   0  0  0  0  0  0  0  0  0  0  0  0
   10.6392   -1.1066   24.5363 H   0  0  0  0  0  0  0  0  0  0  0  0
   10.3168    0.1049   23.2842 H   0  0  0  0  0  0  0  0  0  0  0  0
   11.9483   -2.4697   22.8758 H   0  0  0  0  0  0  0  0  0  0  0  0
    9.7181   -3.1843   23.0342 H   0  0  0  0  0  0  0  0  0  0  0  0
   10.0328   -3.0050   21.2941 H   0  0  0  0  0  0  0  0  0  0  0  0
    8.4958   -1.6064   24.8535 H   0  0  0  0  0  0  0  0  0  0  0  0
    6.7665   -1.3293   24.7286 H   0  0  0  0  0  0  0  0  0  0  0  0
    4.2782   -6.0006   23.5145 H   0  0  0  0  0  0  0  0  0  0  0  0
    4.0708   -7.7944   25.2440 H   0  0  0  0  0  0  0  0  0  0  0  0
    5.6885   -7.9088   27.1460 H   0  0  0  0  0  0  0  0  0  0  0  0
    7.5520   -6.2972   27.3076 H   0  0  0  0  0  0  0  0  0  0  0  0
    9.5301   -4.7518   26.5556 H   0  0  0  0  0  0  0  0  0  0  0  0
    9.8095   -3.1700   25.6303 H   0  0  0  0  0  0  0  0  0  0  0  0
  1  2  2  3
  2  3  1  0
  3  4  2  0
  4  5  1  0
  5  6  2  0
  6  7  1  0
  7  8  2  0
  8  9  1  0
  9 10  2  0
  9 11  1  0
 11 12  1  0
 12 13  1  0
 13 14  2  0
 14 15  1  0
 15 16  1  0
 16 17  2  0
 17 18  1  0
 18 19  2  0
 19 20  1  0
 20 21  2  0
 21 22  1  0
 19 23  1  0
 18 24  1  0
 17 25  1  0
 15 26  2  0
 26 27  1  0
 27 28  1  0
 28 29  1  0
 29 30  1  0
 30 31  1  0
 30 32  1  0
 30 33  1  0
 29 34  1  0
 34 35  1  0
 35 36  1  0
 34 37  1  0
 34 38  1  0
 29 39  1  0
 28 40  1  0
 28 41  1  0
 12 42  1  0
 12 43  1  0
  7 44  1  0
  6 45  1  0
  5 46  1  0
  4 47  1  0
  1 48  1  0
  1 49  1  0
 11  2  1  0
 27 13  1  0
  8  3  1  0
 21 16  1  0
M  END
>  <cnnaffinity>  (1) 
-6.17583

>  <filename>  (1) 
C=C1c2ccccc2C(=O)N1Cc1nc(-c2cccnc2)nn1CC(C)CO

$$$$
