
     RDKit          3D

 45 48  0  0  0  0  0  0  0  0999 V2000
    8.4707    6.6238   23.5551 C   0  0  0  0  0  0  0  0  0  0  0  0
    8.9688    5.4162   23.8069 C   0  0  0  0  0  0  0  0  0  0  0  0
    8.1490    4.1544   23.8073 C   0  0  2  0  0  0  0  0  0  0  0  0
    7.2836    3.8605   25.0658 C   0  0  0  0  0  0  0  0  0  0  0  0
    8.1515    2.6250   25.3815 C   0  0  0  0  0  0  0  0  0  0  0  0
    8.9723    2.8571   24.0935 C   0  0  1  0  0  0  0  0  0  0  0  0
    8.9243    1.8239   23.0264 C   0  0  0  0  0  0  0  0  0  0  0  0
    7.8721    1.1002   22.6818 N   0  0  0  0  0  0  0  0  0  0  0  0
    8.3361    0.3433   21.6546 C   0  0  0  0  0  0  0  0  0  0  0  0
    7.4746   -0.6447   20.9173 C   0  0  0  0  0  0  0  0  0  0  0  0
    6.6658   -0.0361   19.7695 C   0  0  0  0  0  0  0  0  0  0  0  0
    5.4611    0.6344   20.0304 C   0  0  0  0  0  0  0  0  0  0  0  0
    4.8232    1.3126   18.9893 C   0  0  0  0  0  0  0  0  0  0  0  0
    5.4042    1.2909   17.7191 C   0  0  0  0  0  0  0  0  0  0  0  0
    6.5261    0.6145   17.4304 N   0  0  0  0  0  0  0  0  0  0  0  0
    7.1255   -0.0308   18.4389 C   0  0  0  0  0  0  0  0  0  0  0  0
    8.0298   -0.5788   18.1728 H   0  0  0  0  0  0  0  0  0  0  0  0
    4.9488    1.8364   16.8952 H   0  0  0  0  0  0  0  0  0  0  0  0
    3.9059    1.8677   19.1519 H   0  0  0  0  0  0  0  0  0  0  0  0
    5.0380    0.6269   21.0377 H   0  0  0  0  0  0  0  0  0  0  0  0
    8.1260   -1.4547   20.5677 H   0  0  0  0  0  0  0  0  0  0  0  0
    6.8025   -1.0688   21.6702 H   0  0  0  0  0  0  0  0  0  0  0  0
    9.6059    0.5343   21.3554 N   0  0  0  0  0  0  0  0  0  0  0  0
    9.9783    1.5046   22.2258 N   0  0  0  0  0  0  0  0  0  0  0  0
   11.3126    2.0077   22.3137 C   0  0  0  0  0  0  0  0  0  0  0  0
   12.3699    1.1395   22.6093 C   0  0  0  0  0  0  0  0  0  0  0  0
   13.6515    1.6688   22.7957 C   0  0  0  0  0  0  0  0  0  0  0  0
   13.8836    3.0426   22.6428 C   0  0  0  0  0  0  0  0  0  0  0  0
   12.8249    3.9013   22.3317 C   0  0  0  0  0  0  0  0  0  0  0  0
   13.1341    5.2925   22.1272 C   0  0  0  0  0  0  0  0  0  0  0  0
   13.5133    6.3754   21.9555 N   0  0  0  0  0  0  0  0  0  0  0  0
   11.5311    3.3852   22.2018 C   0  0  0  0  0  0  0  0  0  0  0  0
   10.6811    4.0381   22.0650 H   0  0  0  0  0  0  0  0  0  0  0  0
   14.8878    3.4513   22.6790 H   0  0  0  0  0  0  0  0  0  0  0  0
   14.4684    1.0106   23.0712 H   0  0  0  0  0  0  0  0  0  0  0  0
   12.1690    0.0703   22.6704 H   0  0  0  0  0  0  0  0  0  0  0  0
   10.0170    3.0914   24.3121 H   0  0  0  0  0  0  0  0  0  0  0  0
    7.6315    1.6638   25.4145 H   0  0  0  0  0  0  0  0  0  0  0  0
    8.7443    2.7264   26.2956 H   0  0  0  0  0  0  0  0  0  0  0  0
    6.2400    3.6211   24.8318 H   0  0  0  0  0  0  0  0  0  0  0  0
    7.2900    4.6582   25.8178 H   0  0  0  0  0  0  0  0  0  0  0  0
    7.5503    4.1077   22.8863 H   0  0  0  0  0  0  0  0  0  0  0  0
   10.0352    5.3157   24.0479 H   0  0  0  0  0  0  0  0  0  0  0  0
    7.4190    6.7615   23.3020 H   0  0  0  0  0  0  0  0  0  0  0  0
    9.0835    7.5237   23.5828 H   0  0  0  0  0  0  0  0  0  0  0  0
  1  2  2  3
  2  3  1  0
  3  4  1  0
  4  5  1  0
  5  6  1  0
  6  7  1  0
  7  8  2  0
  8  9  1  0
  9 10  1  0
 10 11  1  0
 11 12  2  0
 12 13  1  0
 13 14  2  0
 14 15  1  0
 15 16  2  0
 16 17  1  0
 14 18  1  0
 13 19  1  0
 12 20  1  0
 10 21  1  0
 10 22  1  0
  9 23  2  0
 23 24  1  0
 24 25  1  0
 25 26  2  0
 26 27  1  0
 27 28  2  0
 28 29  1  0
 29 30  1  0
 30 31  3  0
 29 32  2  0
 32 33  1  0
 28 34  1  0
 27 35  1  0
 26 36  1  0
  6 37  1  1
  5 38  1  0
  5 39  1  0
  4 40  1  0
  4 41  1  0
  3 42  1  6
  2 43  1  0
  1 44  1  0
  1 45  1  0
  6  3  1  0
 24  7  1  0
 32 25  1  0
 16 11  1  0
M  END
>  <cnnaffinity>  (1) 
-6.35923

>  <filename>  (1) 
C=C[C@@H]1CC[C@H]1c1nc(Cc2cccnc2)nn1-c1cccc(C#N)c1

$$$$
