
     RDKit          3D

 45 49  0  0  0  0  0  0  0  0999 V2000
   12.8820    3.3431   23.3423 C   0  0  0  0  0  0  0  0  0  0  0  0
   12.8145    3.1560   23.6591 C   0  0  0  0  0  0  0  0  0  0  0  0
   12.0081    1.7750   23.2454 C   0  0  2  0  0  0  0  0  0  0  0  0
   12.5142    0.7187   22.3436 C   0  0  0  0  0  0  0  0  0  0  0  0
   11.3101    1.6662   21.9754 C   0  0  1  0  0  0  0  0  0  0  0  0
    9.8999    1.3286   21.9763 C   0  0  0  0  0  0  0  0  0  0  0  0
    9.3081    0.5274   21.1049 N   0  0  0  0  0  0  0  0  0  0  0  0
    8.0601    0.3970   21.6158 C   0  0  0  0  0  0  0  0  0  0  0  0
    7.0381   -0.5126   21.0016 C   0  0  0  0  0  0  0  0  0  0  0  0
    6.3710    0.0702   19.7681 C   0  0  0  0  0  0  0  0  0  0  0  0
    5.1866    0.8067   19.8694 C   0  0  0  0  0  0  0  0  0  0  0  0
    4.6748    1.4197   18.7237 C   0  0  0  0  0  0  0  0  0  0  0  0
    5.3684    1.2726   17.5186 C   0  0  0  0  0  0  0  0  0  0  0  0
    6.4977    0.5583   17.3941 N   0  0  0  0  0  0  0  0  0  0  0  0
    6.9773   -0.0192   18.5017 C   0  0  0  0  0  0  0  0  0  0  0  0
    7.9087   -0.5783   18.3969 H   0  0  0  0  0  0  0  0  0  0  0  0
    5.0042    1.7467   16.6098 H   0  0  0  0  0  0  0  0  0  0  0  0
    3.7688    2.0149   18.7559 H   0  0  0  0  0  0  0  0  0  0  0  0
    4.6846    0.9008   20.8351 H   0  0  0  0  0  0  0  0  0  0  0  0
    6.3002   -0.7403   21.7780 H   0  0  0  0  0  0  0  0  0  0  0  0
    7.5563   -1.4443   20.7487 H   0  0  0  0  0  0  0  0  0  0  0  0
    7.8289    1.0856   22.7105 N   0  0  0  0  0  0  0  0  0  0  0  0
    9.0057    1.7345   22.9256 N   0  0  0  0  0  0  0  0  0  0  0  0
    9.1186    2.6335   24.0483 C   0  0  0  0  0  0  0  0  0  0  0  0
    8.7480    2.1484   25.2987 C   0  0  0  0  0  0  0  0  0  0  0  0
    8.6610    3.0284   26.3994 C   0  0  0  0  0  0  0  0  0  0  0  0
    8.8566    4.3344   26.3165 N   0  0  0  0  0  0  0  0  0  0  0  0
    9.1672    4.8375   25.0801 C   0  0  0  0  0  0  0  0  0  0  0  0
    9.1908    6.2600   24.9144 C   0  0  0  0  0  0  0  0  0  0  0  0
    9.4143    6.7937   23.6631 C   0  0  0  0  0  0  0  0  0  0  0  0
    9.6545    5.9216   22.5666 C   0  0  0  0  0  0  0  0  0  0  0  0
    9.6848    4.5991   22.6665 N   0  0  0  0  0  0  0  0  0  0  0  0
    9.3879    4.0386   23.8875 C   0  0  0  0  0  0  0  0  0  0  0  0
    9.7578    6.3640   21.5721 H   0  0  0  0  0  0  0  0  0  0  0  0
    9.4058    7.8642   23.4823 H   0  0  0  0  0  0  0  0  0  0  0  0
    9.0038    6.8545   25.8048 H   0  0  0  0  0  0  0  0  0  0  0  0
    8.4002    2.6334   27.3808 H   0  0  0  0  0  0  0  0  0  0  0  0
    8.5037    1.0989   25.4173 H   0  0  0  0  0  0  0  0  0  0  0  0
   11.5435    2.3942   21.2011 H   0  0  0  0  0  0  0  0  0  0  0  0
   12.3160   -0.3182   22.5968 H   0  0  0  0  0  0  0  0  0  0  0  0
   13.4358    0.8648   21.7973 H   0  0  0  0  0  0  0  0  0  0  0  0
   11.4983    1.2990   24.0952 H   0  0  0  0  0  0  0  0  0  0  0  0
   11.9327    3.9597   23.6389 H   0  0  0  0  0  0  0  0  0  0  0  0
   12.9560    3.7778   21.7752 H   0  0  0  0  0  0  0  0  0  0  0  0
   13.9508    2.8430   23.4128 H   0  0  0  0  0  0  0  0  0  0  0  0
  1  2  2  3
  2  3  1  0
  3  4  1  0
  4  5  1  0
  5  6  1  0
  6  7  2  0
  7  8  1  0
  8  9  1  0
  9 10  1  0
 10 11  2  0
 11 12  1  0
 12 13  2  0
 13 14  1  0
 14 15  2  0
 15 16  1  0
 13 17  1  0
 12 18  1  0
 11 19  1  0
  9 20  1  0
  9 21  1  0
  8 22  2  0
 22 23  1  0
 23 24  1  0
 24 25  2  0
 25 26  1  0
 26 27  2  0
 27 28  1  0
 28 29  2  0
 29 30  1  0
 30 31  2  0
 31 32  1  0
 32 33  2  0
 31 34  1  0
 30 35  1  0
 29 36  1  0
 26 37  1  0
 25 38  1  0
  5 39  1  6
  4 40  1  0
  4 41  1  0
  3 42  1  1
  2 43  1  0
  1 44  1  0
  1 45  1  0
  5  3  1  0
 23  6  1  0
 33 24  1  0
 15 10  1  0
 33 28  1  0
M  END
>  <cnnaffinity>  (1) 
-5.76607

>  <filename>  (1) 
C=C[C@@H]1C[C@H]1c1nc(Cc2cccnc2)nn1-c1ccnc2cccnc12

$$$$
