
     RDKit          3D

 47 51  0  0  0  0  0  0  0  0999 V2000
    8.2669    6.6165   23.6326 C   0  0  0  0  0  0  0  0  0  0  0  0
    8.8435    5.4327   23.8310 C   0  0  0  0  0  0  0  0  0  0  0  0
    8.0821    4.1346   23.8342 C   0  0  2  0  0  0  0  0  0  0  0  0
    7.2570    3.7986   25.1070 C   0  0  0  0  0  0  0  0  0  0  0  0
    8.1737    2.5938   25.3963 C   0  0  0  0  0  0  0  0  0  0  0  0
    8.9512    2.8553   24.0812 C   0  0  1  0  0  0  0  0  0  0  0  0
    8.9035    1.8229   23.0065 C   0  0  0  0  0  0  0  0  0  0  0  0
    7.8652    1.0627   22.7046 N   0  0  0  0  0  0  0  0  0  0  0  0
    8.3250    0.2762   21.6994 C   0  0  0  0  0  0  0  0  0  0  0  0
    7.4388   -0.6900   20.9594 C   0  0  0  0  0  0  0  0  0  0  0  0
    6.6638   -0.0381   19.8148 C   0  0  0  0  0  0  0  0  0  0  0  0
    5.4589    0.6307   20.0742 C   0  0  0  0  0  0  0  0  0  0  0  0
    4.8153    1.3096   19.0371 C   0  0  0  0  0  0  0  0  0  0  0  0
    5.4036    1.2954   17.7698 C   0  0  0  0  0  0  0  0  0  0  0  0
    6.5400    0.6391   17.4878 N   0  0  0  0  0  0  0  0  0  0  0  0
    7.1428   -0.0085   18.4931 C   0  0  0  0  0  0  0  0  0  0  0  0
    8.0612   -0.5397   18.2346 H   0  0  0  0  0  0  0  0  0  0  0  0
    4.9474    1.8341   16.9415 H   0  0  0  0  0  0  0  0  0  0  0  0
    3.8913    1.8573   19.1973 H   0  0  0  0  0  0  0  0  0  0  0  0
    5.0432    0.6191   21.0832 H   0  0  0  0  0  0  0  0  0  0  0  0
    6.7332   -1.1143   21.6839 H   0  0  0  0  0  0  0  0  0  0  0  0
    8.0663   -1.5089   20.5927 H   0  0  0  0  0  0  0  0  0  0  0  0
    9.5936    0.4722   21.3774 N   0  0  0  0  0  0  0  0  0  0  0  0
    9.9503    1.5078   22.1877 N   0  0  0  0  0  0  0  0  0  0  0  0
   11.2421    2.0939   22.1999 C   0  0  0  0  0  0  0  0  0  0  0  0
   11.4410    3.4779   22.2583 C   0  0  0  0  0  0  0  0  0  0  0  0
   12.7211    4.0235   22.4956 C   0  0  0  0  0  0  0  0  0  0  0  0
   13.8263    3.2044   22.6946 C   0  0  0  0  0  0  0  0  0  0  0  0
   13.6465    1.8032   22.6322 C   0  0  0  0  0  0  0  0  0  0  0  0
   12.3805    1.2810   22.3110 C   0  0  0  0  0  0  0  0  0  0  0  0
   12.5643   -0.0790   22.2365 N   0  0  0  0  0  0  0  0  0  0  0  0
   13.8733   -0.3119   22.5274 C   0  0  0  0  0  0  0  0  0  0  0  0
   14.5580    0.7669   22.7785 N   0  0  0  0  0  0  0  0  0  0  0  0
   14.2769   -1.3147   22.5346 H   0  0  0  0  0  0  0  0  0  0  0  0
   11.8731   -0.7127   21.8670 H   0  0  0  0  0  0  0  0  0  0  0  0
   14.8087    3.6381   22.8276 H   0  0  0  0  0  0  0  0  0  0  0  0
   12.8455    5.1021   22.5314 H   0  0  0  0  0  0  0  0  0  0  0  0
   10.5951    4.1489   22.1654 H   0  0  0  0  0  0  0  0  0  0  0  0
    9.9969    3.0990   24.2868 H   0  0  0  0  0  0  0  0  0  0  0  0
    7.6803    1.6192   25.4597 H   0  0  0  0  0  0  0  0  0  0  0  0
    8.7987    2.7171   26.2871 H   0  0  0  0  0  0  0  0  0  0  0  0
    6.2232    3.5176   24.8804 H   0  0  0  0  0  0  0  0  0  0  0  0
    7.2416    4.5884   25.8662 H   0  0  0  0  0  0  0  0  0  0  0  0
    7.4669    4.0723   22.9251 H   0  0  0  0  0  0  0  0  0  0  0  0
    9.9214    5.3882   24.0215 H   0  0  0  0  0  0  0  0  0  0  0  0
    7.2009    6.6973   23.4248 H   0  0  0  0  0  0  0  0  0  0  0  0
    8.8251    7.5494   23.6535 H   0  0  0  0  0  0  0  0  0  0  0  0
  1  2  2  3
  2  3  1  0
  3  4  1  0
  4  5  1  0
  5  6  1  0
  6  7  1  0
  7  8  2  0
  8  9  1  0
  9 10  1  0
 10 11  1  0
 11 12  2  0
 12 13  1  0
 13 14  2  0
 14 15  1  0
 15 16  2  0
 16 17  1  0
 14 18  1  0
 13 19  1  0
 12 20  1  0
 10 21  1  0
 10 22  1  0
  9 23  2  0
 23 24  1  0
 24 25  1  0
 25 26  2  0
 26 27  1  0
 27 28  2  0
 28 29  1  0
 29 30  2  0
 30 31  1  0
 31 32  1  0
 32 33  2  0
 32 34  1  0
 31 35  1  0
 28 36  1  0
 27 37  1  0
 26 38  1  0
  6 39  1  1
  5 40  1  0
  5 41  1  0
  4 42  1  0
  4 43  1  0
  3 44  1  6
  2 45  1  0
  1 46  1  0
  1 47  1  0
  6  3  1  0
 24  7  1  0
 30 25  1  0
 16 11  1  0
 33 29  1  0
M  END
>  <cnnaffinity>  (1) 
-6.89681

>  <filename>  (1) 
C=C[C@@H]1CC[C@H]1c1nc(Cc2cccnc2)nn1-c1cccc2nc[nH]c12

$$$$
