
     RDKit          3D

 45 49  0  0  0  0  0  0  0  0999 V2000
   12.6534    0.1551   25.0028 C   0  0  0  0  0  0  0  0  0  0  0  0
   11.7269    0.9595   24.4933 C   0  0  0  0  0  0  0  0  0  0  0  0
   12.1038    1.8037   23.3275 C   0  0  1  0  0  0  0  0  0  0  0  0
   12.3851    1.0612   22.0484 C   0  0  0  0  0  0  0  0  0  0  0  0
   11.2648    2.0607   22.0998 C   0  0  1  0  0  0  0  0  0  0  0  0
    9.8852    1.5402   22.0087 C   0  0  0  0  0  0  0  0  0  0  0  0
    9.4688    0.5806   21.2065 N   0  0  0  0  0  0  0  0  0  0  0  0
    8.2045    0.3488   21.6357 C   0  0  0  0  0  0  0  0  0  0  0  0
    7.3496   -0.6871   20.9729 C   0  0  0  0  0  0  0  0  0  0  0  0
    6.5852   -0.0642   19.8232 C   0  0  0  0  0  0  0  0  0  0  0  0
    5.3980    0.6275   20.0829 C   0  0  0  0  0  0  0  0  0  0  0  0
    4.7779    1.3144   19.0394 C   0  0  0  0  0  0  0  0  0  0  0  0
    5.3841    1.3057   17.7795 C   0  0  0  0  0  0  0  0  0  0  0  0
    6.5296    0.6582   17.5114 N   0  0  0  0  0  0  0  0  0  0  0  0
    7.1088    0.0004   18.5220 C   0  0  0  0  0  0  0  0  0  0  0  0
    8.0556   -0.4937   18.2959 H   0  0  0  0  0  0  0  0  0  0  0  0
    4.9356    1.8473   16.9494 H   0  0  0  0  0  0  0  0  0  0  0  0
    3.8604    1.8714   19.1968 H   0  0  0  0  0  0  0  0  0  0  0  0
    4.9929    0.6420   21.0968 H   0  0  0  0  0  0  0  0  0  0  0  0
    6.6610   -1.1050   21.7150 H   0  0  0  0  0  0  0  0  0  0  0  0
    8.0105   -1.4884   20.6280 H   0  0  0  0  0  0  0  0  0  0  0  0
    7.7948    1.1158   22.6230 N   0  0  0  0  0  0  0  0  0  0  0  0
    8.8797    1.9029   22.8583 N   0  0  0  0  0  0  0  0  0  0  0  0
    8.9468    2.8578   23.9111 C   0  0  0  0  0  0  0  0  0  0  0  0
    9.5094    4.1088   23.6878 C   0  0  0  0  0  0  0  0  0  0  0  0
    9.4893    5.0721   24.7234 C   0  0  0  0  0  0  0  0  0  0  0  0
    8.9635    4.8815   25.9203 N   0  0  0  0  0  0  0  0  0  0  0  0
    8.4451    3.6351   26.1687 C   0  0  0  0  0  0  0  0  0  0  0  0
    7.8645    3.3721   27.4471 C   0  0  0  0  0  0  0  0  0  0  0  0
    7.4722    2.0926   27.7748 C   0  0  0  0  0  0  0  0  0  0  0  0
    7.6241    1.0544   26.8142 C   0  0  0  0  0  0  0  0  0  0  0  0
    8.1005    1.2478   25.5966 N   0  0  0  0  0  0  0  0  0  0  0  0
    8.4575    2.5259   25.2319 C   0  0  0  0  0  0  0  0  0  0  0  0
    7.3364    0.0374   27.0662 H   0  0  0  0  0  0  0  0  0  0  0  0
    7.0621    1.8541   28.7528 H   0  0  0  0  0  0  0  0  0  0  0  0
    7.7914    4.2118   28.1351 H   0  0  0  0  0  0  0  0  0  0  0  0
    9.9307    6.0507   24.5391 H   0  0  0  0  0  0  0  0  0  0  0  0
    9.9110    4.3877   22.7184 H   0  0  0  0  0  0  0  0  0  0  0  0
   11.4140    3.0142   21.6000 H   0  0  0  0  0  0  0  0  0  0  0  0
   13.3338    1.2485   21.5824 H   0  0  0  0  0  0  0  0  0  0  0  0
   12.0453    0.0251   21.9870 H   0  0  0  0  0  0  0  0  0  0  0  0
   12.8003    2.6057   23.5723 H   0  0  0  0  0  0  0  0  0  0  0  0
   10.7060    0.9531   24.8891 H   0  0  0  0  0  0  0  0  0  0  0  0
   13.6793    0.1801   24.6405 H   0  0  0  0  0  0  0  0  0  0  0  0
   12.3916   -0.6256   25.6964 H   0  0  0  0  0  0  0  0  0  0  0  0
  1  2  2  3
  2  3  1  0
  3  4  1  0
  4  5  1  0
  5  6  1  0
  6  7  2  0
  7  8  1  0
  8  9  1  0
  9 10  1  0
 10 11  2  0
 11 12  1  0
 12 13  2  0
 13 14  1  0
 14 15  2  0
 15 16  1  0
 13 17  1  0
 12 18  1  0
 11 19  1  0
  9 20  1  0
  9 21  1  0
  8 22  2  0
 22 23  1  0
 23 24  1  0
 24 25  2  0
 25 26  1  0
 26 27  2  0
 27 28  1  0
 28 29  2  0
 29 30  1  0
 30 31  2  0
 31 32  1  0
 32 33  2  0
 31 34  1  0
 30 35  1  0
 29 36  1  0
 26 37  1  0
 25 38  1  0
  5 39  1  6
  4 40  1  0
  4 41  1  0
  3 42  1  1
  2 43  1  0
  1 44  1  0
  1 45  1  0
  5  3  1  0
 23  6  1  0
 33 24  1  0
 15 10  1  0
 33 28  1  0
M  END
>  <cnnaffinity>  (1) 
-5.95268

>  <filename>  (1) 
C=C[C@H]1C[C@H]1c1nc(Cc2cccnc2)nn1-c1ccnc2cccnc12

$$$$
