
     RDKit          3D

 43 45  0  0  0  0  0  0  0  0999 V2000
   13.0118   -1.0301   22.2958 C   0  0  0  0  0  0  0  0  0  0  0  0
   12.1393   -0.2754   22.9588 C   0  0  0  0  0  0  0  0  0  0  0  0
   12.2461    1.2268   23.0951 C   0  0  0  0  0  0  0  0  0  0  0  0
   11.4299    1.9499   21.9992 C   0  0  0  0  0  0  0  0  0  0  0  0
   10.0076    1.5777   21.9951 N   0  0  0  0  0  0  0  0  0  0  0  0
    9.5611    0.6275   21.1292 N   0  0  0  0  0  0  0  0  0  0  0  0
    8.3740    0.3099   21.6123 C   0  0  0  0  0  0  0  0  0  0  0  0
    7.4592   -0.6676   20.9303 C   0  0  0  0  0  0  0  0  0  0  0  0
    6.6572   -0.0478   19.7937 C   0  0  0  0  0  0  0  0  0  0  0  0
    5.4558    0.6180   20.0646 C   0  0  0  0  0  0  0  0  0  0  0  0
    4.8123    1.3023   19.0324 C   0  0  0  0  0  0  0  0  0  0  0  0
    5.3924    1.3068   17.7606 C   0  0  0  0  0  0  0  0  0  0  0  0
    6.5252    0.6483   17.4703 N   0  0  0  0  0  0  0  0  0  0  0  0
    7.1286   -0.0065   18.4697 C   0  0  0  0  0  0  0  0  0  0  0  0
    8.0510   -0.5232   18.2042 H   0  0  0  0  0  0  0  0  0  0  0  0
    4.9283    1.8584   16.9424 H   0  0  0  0  0  0  0  0  0  0  0  0
    3.8885    1.8432   19.2044 H   0  0  0  0  0  0  0  0  0  0  0  0
    5.0376    0.6069   21.0741 H   0  0  0  0  0  0  0  0  0  0  0  0
    6.7750   -1.0598   21.6898 H   0  0  0  0  0  0  0  0  0  0  0  0
    8.0585   -1.5040   20.5619 H   0  0  0  0  0  0  0  0  0  0  0  0
    8.0387    0.9571   22.7525 N   0  0  0  0  0  0  0  0  0  0  0  0
    9.0558    1.7847   22.9434 C   0  0  0  0  0  0  0  0  0  0  0  0
    9.1179    2.7681   24.0445 C   0  0  0  0  0  0  0  0  0  0  0  0
    9.4411    4.1194   23.8357 C   0  0  0  0  0  0  0  0  0  0  0  0
    9.7221    4.5267   22.5767 F   0  0  0  0  0  0  0  0  0  0  0  0
    9.4824    5.0829   24.8540 C   0  0  0  0  0  0  0  0  0  0  0  0
    9.8539    6.5146   24.5392 C   0  0  0  0  0  0  0  0  0  0  0  0
    9.0025    7.0547   24.1098 H   0  0  0  0  0  0  0  0  0  0  0  0
   10.6631    6.5513   23.8030 H   0  0  0  0  0  0  0  0  0  0  0  0
   10.1771    7.0511   25.4360 H   0  0  0  0  0  0  0  0  0  0  0  0
    9.1558    4.6497   26.1478 C   0  0  0  0  0  0  0  0  0  0  0  0
    8.7892    3.3166   26.3875 C   0  0  0  0  0  0  0  0  0  0  0  0
    8.7779    2.3805   25.3531 C   0  0  0  0  0  0  0  0  0  0  0  0
    8.4950    1.3421   25.5451 H   0  0  0  0  0  0  0  0  0  0  0  0
    8.4992    3.0126   27.3876 H   0  0  0  0  0  0  0  0  0  0  0  0
    9.1891    5.3554   26.9817 H   0  0  0  0  0  0  0  0  0  0  0  0
   11.8110    1.6612   21.0155 H   0  0  0  0  0  0  0  0  0  0  0  0
   11.5071    3.0372   22.0880 H   0  0  0  0  0  0  0  0  0  0  0  0
   11.9221    1.5778   24.0841 H   0  0  0  0  0  0  0  0  0  0  0  0
   13.2984    1.5172   22.9935 H   0  0  0  0  0  0  0  0  0  0  0  0
   11.2413   -0.7511   23.3650 H   0  0  0  0  0  0  0  0  0  0  0  0
   13.9221   -0.6269   21.8491 H   0  0  0  0  0  0  0  0  0  0  0  0
   12.8503   -2.0995   22.1838 H   0  0  0  0  0  0  0  0  0  0  0  0
  1  2  2  3
  2  3  1  0
  3  4  1  0
  4  5  1  0
  5  6  1  0
  6  7  2  0
  7  8  1  0
  8  9  1  0
  9 10  2  0
 10 11  1  0
 11 12  2  0
 12 13  1  0
 13 14  2  0
 14 15  1  0
 12 16  1  0
 11 17  1  0
 10 18  1  0
  8 19  1  0
  8 20  1  0
  7 21  1  0
 21 22  2  0
 22 23  1  0
 23 24  2  0
 24 25  1  0
 24 26  1  0
 26 27  1  0
 27 28  1  0
 27 29  1  0
 27 30  1  0
 26 31  2  0
 31 32  1  0
 32 33  2  0
 33 34  1  0
 32 35  1  0
 31 36  1  0
  4 37  1  0
  4 38  1  0
  3 39  1  0
  3 40  1  0
  2 41  1  0
  1 42  1  0
  1 43  1  0
 22  5  1  0
 33 23  1  0
 14  9  1  0
M  END
>  <cnnaffinity>  (1) 
-5.26321

>  <filename>  (1) 
C=CCCn1nc(Cc2cccnc2)nc1-c1cccc(C)c1F

$$$$
