
     RDKit          3D

 28 29  0  0  0  0  0  0  0  0999 V2000
   10.7259    2.2795   24.3012 H   0  0  0  0  0  0  0  0  0  0  0  0
   10.6645    1.5524   23.4951 C   0  0  0  0  0  0  0  0  0  0  0  0
   10.2580    1.9251   22.5533 H   0  0  0  0  0  0  0  0  0  0  0  0
   11.0292    0.2785   23.6358 C   0  0  0  0  0  0  0  0  0  0  0  0
   11.3822   -0.0748   24.6087 H   0  0  0  0  0  0  0  0  0  0  0  0
   10.9049   -0.7492   22.5133 C   0  0  0  0  0  0  0  0  0  0  0  0
   11.3499   -0.3410   21.5945 H   0  0  0  0  0  0  0  0  0  0  0  0
   11.4805   -1.6544   22.7550 H   0  0  0  0  0  0  0  0  0  0  0  0
    9.4554   -1.0992   22.2200 C   0  0  0  0  0  0  0  0  0  0  0  0
    8.7229   -0.4319   21.1952 C   0  0  0  0  0  0  0  0  0  0  0  0
    9.2274    0.3146   20.5834 H   0  0  0  0  0  0  0  0  0  0  0  0
    7.3885   -0.6733   20.9574 C   0  0  0  0  0  0  0  0  0  0  0  0
    6.6641    0.0373   19.8858 C   0  0  0  0  0  0  0  0  0  0  0  0
    7.1765    0.0960   18.5714 C   0  0  0  0  0  0  0  0  0  0  0  0
    8.1177   -0.4073   18.3372 H   0  0  0  0  0  0  0  0  0  0  0  0
    6.5564    0.6951   17.5492 N   0  0  0  0  0  0  0  0  0  0  0  0
    5.3898    1.3068   17.8153 C   0  0  0  0  0  0  0  0  0  0  0  0
    4.9107    1.8022   16.9735 H   0  0  0  0  0  0  0  0  0  0  0  0
    4.8004    1.3229   19.0833 C   0  0  0  0  0  0  0  0  0  0  0  0
    3.8673    1.8470   19.2369 H   0  0  0  0  0  0  0  0  0  0  0  0
    5.4372    0.6652   20.1328 C   0  0  0  0  0  0  0  0  0  0  0  0
    5.0131    0.6101   21.1344 H   0  0  0  0  0  0  0  0  0  0  0  0
    6.6958   -1.7001   21.7604 C   0  0  0  0  0  0  0  0  0  0  0  0
    5.5781   -2.1785   21.6442 O   0  0  0  0  0  0  0  0  0  0  0  0
    7.4722   -2.2469   22.7793 N   0  0  0  0  0  0  0  0  0  0  0  0
    6.8870   -2.9107   23.2604 H   0  0  0  0  0  0  0  0  0  0  0  0
    8.7934   -1.9992   23.0033 C   0  0  0  0  0  0  0  0  0  0  0  0
    9.2733   -2.5206   23.8286 H   0  0  0  0  0  0  0  0  0  0  0  0
  1  2  1  0
  2  3  1  0
  2  4  2  3
  4  5  1  0
  4  6  1  0
  6  7  1  0
  6  8  1  0
  6  9  1  0
  9 10  1  0
 10 11  1  0
 10 12  2  0
 12 13  1  0
 13 14  2  0
 14 15  1  0
 14 16  1  0
 16 17  2  0
 17 18  1  0
 17 19  1  0
 19 20  1  0
 19 21  2  0
 21 22  1  0
 12 23  1  0
 23 24  2  0
 23 25  1  0
 25 26  1  0
 25 27  1  0
 27 28  1  0
 27  9  2  0
 21 13  1  0
M  END
>  <cnnaffinity>  (1) 
-5.1473

>  <filename>  (1) 
C=CCc1c[nH]c(=O)c(-c2cccnc2)c1

$$$$
