
     RDKit          3D

 23 23  0  0  0  0  0  0  0  0999 V2000
    9.9624    1.7368   21.5320 H   0  0  0  0  0  0  0  0  0  0  0  0
    9.5908    0.8735   21.1505 N   0  0  0  0  0  0  0  0  0  0  0  0
    8.4834    0.6476   21.7063 C   0  0  0  0  0  0  0  0  0  0  0  0
    7.5602   -0.8042   21.1947 S   0  0  0  0  0  0  0  0  0  0  0  0
    6.6441   -0.0085   19.8868 C   0  0  0  0  0  0  0  0  0  0  0  0
    7.1538    0.0391   18.5763 C   0  0  0  0  0  0  0  0  0  0  0  0
    8.1158   -0.4165   18.3490 H   0  0  0  0  0  0  0  0  0  0  0  0
    6.5410    0.6594   17.5616 N   0  0  0  0  0  0  0  0  0  0  0  0
    5.3872    1.2908   17.8234 C   0  0  0  0  0  0  0  0  0  0  0  0
    4.9344    1.8125   16.9794 H   0  0  0  0  0  0  0  0  0  0  0  0
    4.7924    1.3010   19.0897 C   0  0  0  0  0  0  0  0  0  0  0  0
    3.8683    1.8451   19.2324 H   0  0  0  0  0  0  0  0  0  0  0  0
    5.4281    0.6349   20.1436 C   0  0  0  0  0  0  0  0  0  0  0  0
    5.0226    0.6178   21.1598 H   0  0  0  0  0  0  0  0  0  0  0  0
    7.9251    1.5593   22.6022 N   0  0  0  0  0  0  0  0  0  0  0  0
    8.3467    2.4713   22.5967 H   0  0  0  0  0  0  0  0  0  0  0  0
    6.9056    1.2778   23.4819 C   0  0  0  0  0  0  0  0  0  0  0  0
    6.5445    0.1394   23.6885 O   0  0  0  0  0  0  0  0  0  0  0  0
    6.2860    2.4728   24.1420 C   0  0  0  0  0  0  0  0  0  0  0  0
    6.6935    3.4442   23.8722 H   0  0  0  0  0  0  0  0  0  0  0  0
    5.2680    2.3594   25.0035 C   0  0  0  0  0  0  0  0  0  0  0  0
    4.7926    3.2039   25.4995 H   0  0  0  0  0  0  0  0  0  0  0  0
    4.8580    1.3818   25.2560 H   0  0  0  0  0  0  0  0  0  0  0  0
  1  2  1  0
  2  3  2  3
  3  4  1  0
  4  5  1  0
  5  6  2  0
  6  7  1  0
  6  8  1  0
  8  9  2  0
  9 10  1  0
  9 11  1  0
 11 12  1  0
 11 13  2  0
 13 14  1  0
  3 15  1  0
 15 16  1  0
 15 17  1  0
 17 18  2  0
 17 19  1  0
 19 20  1  0
 19 21  2  3
 21 22  1  0
 21 23  1  0
 13  5  1  0
M  END
>  <cnnaffinity>  (1) 
-3.98566

>  <filename>  (1) 
C=CC(=O)NC(=N)Sc1cccnc1

$$$$
