
     RDKit          3D

 30 31  0  0  0  0  0  0  0  0999 V2000
   11.8716    3.5423   21.3708 H   0  0  0  0  0  0  0  0  0  0  0  0
   11.2546    2.6564   21.2348 C   0  0  0  0  0  0  0  0  0  0  0  0
   10.2261    2.8455   20.9332 H   0  0  0  0  0  0  0  0  0  0  0  0
   11.7416    1.4445   21.4779 C   0  0  0  0  0  0  0  0  0  0  0  0
   12.7762    1.3335   21.7922 H   0  0  0  0  0  0  0  0  0  0  0  0
   11.0446    0.1262   21.4979 C   0  0  0  0  0  0  0  0  0  0  0  0
   11.6372   -0.8527   21.9106 O   0  0  0  0  0  0  0  0  0  0  0  0
    9.7380    0.1110   21.0638 N   0  0  0  0  0  0  0  0  0  0  0  0
    9.3959    0.9692   20.6763 H   0  0  0  0  0  0  0  0  0  0  0  0
    8.7598   -0.8317   21.4045 C   0  0  0  0  0  0  0  0  0  0  0  0
    7.4990   -0.8526   20.9409 C   0  0  0  0  0  0  0  0  0  0  0  0
    6.8651   -0.0316   19.8955 C   0  0  0  0  0  0  0  0  0  0  0  0
    7.3935    0.0832   18.5906 C   0  0  0  0  0  0  0  0  0  0  0  0
    8.3481   -0.3895   18.3592 H   0  0  0  0  0  0  0  0  0  0  0  0
    6.7804    0.7065   17.5745 N   0  0  0  0  0  0  0  0  0  0  0  0
    5.5988    1.2850   17.8347 C   0  0  0  0  0  0  0  0  0  0  0  0
    5.1110    1.7836   17.0000 H   0  0  0  0  0  0  0  0  0  0  0  0
    4.9906    1.2567   19.0939 C   0  0  0  0  0  0  0  0  0  0  0  0
    4.0431    1.7532   19.2437 H   0  0  0  0  0  0  0  0  0  0  0  0
    5.6215    0.5822   20.1340 C   0  0  0  0  0  0  0  0  0  0  0  0
    5.1792    0.5263   21.1310 H   0  0  0  0  0  0  0  0  0  0  0  0
    6.7033   -1.9240   21.6361 C   0  0  0  0  0  0  0  0  0  0  0  0
    5.7370   -1.5336   21.9573 H   0  0  0  0  0  0  0  0  0  0  0  0
    6.4652   -2.7322   20.9335 H   0  0  0  0  0  0  0  0  0  0  0  0
    7.5994   -2.3926   22.7961 C   0  0  0  0  0  0  0  0  0  0  0  0
    7.5497   -3.4727   22.9433 H   0  0  0  0  0  0  0  0  0  0  0  0
    7.2691   -1.9335   23.7328 H   0  0  0  0  0  0  0  0  0  0  0  0
    9.0197   -1.8880   22.4402 C   0  0  0  0  0  0  0  0  0  0  0  0
    9.5615   -1.4594   23.2899 H   0  0  0  0  0  0  0  0  0  0  0  0
    9.6854   -2.6621   22.0392 H   0  0  0  0  0  0  0  0  0  0  0  0
  1  2  1  0
  2  3  1  0
  2  4  2  3
  4  5  1  0
  4  6  1  0
  6  7  2  0
  6  8  1  0
  8  9  1  0
  8 10  1  0
 10 11  2  0
 11 12  1  0
 12 13  2  0
 13 14  1  0
 13 15  1  0
 15 16  2  0
 16 17  1  0
 16 18  1  0
 18 19  1  0
 18 20  2  0
 20 21  1  0
 11 22  1  0
 22 23  1  0
 22 24  1  0
 22 25  1  0
 25 26  1  0
 25 27  1  0
 25 28  1  0
 28 29  1  0
 28 30  1  0
 28 10  1  0
 20 12  1  0
M  END
>  <cnnaffinity>  (1) 
-4.89308

>  <filename>  (1) 
C=CC(=O)NC1=C(c2cccnc2)CCC1

$$$$
