
     RDKit          3D

 24 25  0  0  0  0  0  0  0  0999 V2000
   10.9719   -3.0866   25.0161 H   0  0  0  0  0  0  0  0  0  0  0  0
   10.4262   -2.3927   24.3883 C   0  0  0  0  0  0  0  0  0  0  0  0
   10.8257   -1.3882   24.2378 H   0  0  0  0  0  0  0  0  0  0  0  0
    9.3016   -2.8113   23.8136 C   0  0  0  0  0  0  0  0  0  0  0  0
    8.9290   -3.8088   24.0599 H   0  0  0  0  0  0  0  0  0  0  0  0
    8.5200   -2.0405   22.8338 C   0  0  0  0  0  0  0  0  0  0  0  0
    9.1413   -1.0268   22.0025 C   0  0  0  0  0  0  0  0  0  0  0  0
   10.1792   -0.7575   22.1260 H   0  0  0  0  0  0  0  0  0  0  0  0
    8.5481   -0.4296   21.0140 N   0  0  0  0  0  0  0  0  0  0  0  0
    7.2262   -0.7245   20.8086 N   0  0  0  0  0  0  0  0  0  0  0  0
    6.6031    0.0456   19.7868 C   0  0  0  0  0  0  0  0  0  0  0  0
    7.1974    0.1668   18.5193 C   0  0  0  0  0  0  0  0  0  0  0  0
    8.1721   -0.2779   18.3376 H   0  0  0  0  0  0  0  0  0  0  0  0
    6.6162    0.7939   17.4944 N   0  0  0  0  0  0  0  0  0  0  0  0
    5.4238    1.3799   17.7169 C   0  0  0  0  0  0  0  0  0  0  0  0
    4.9718    1.8875   16.8671 H   0  0  0  0  0  0  0  0  0  0  0  0
    4.7856    1.3664   18.9609 C   0  0  0  0  0  0  0  0  0  0  0  0
    3.8482    1.8995   19.0903 H   0  0  0  0  0  0  0  0  0  0  0  0
    5.3812    0.6834   20.0244 C   0  0  0  0  0  0  0  0  0  0  0  0
    4.9262    0.6403   21.0124 H   0  0  0  0  0  0  0  0  0  0  0  0
    6.4876   -1.7625   21.4905 C   0  0  0  0  0  0  0  0  0  0  0  0
    5.3903   -2.1438   21.1365 O   0  0  0  0  0  0  0  0  0  0  0  0
    7.2120   -2.3272   22.6060 C   0  0  0  0  0  0  0  0  0  0  0  0
    6.6310   -3.0112   23.2091 H   0  0  0  0  0  0  0  0  0  0  0  0
  1  2  1  0
  2  3  1  0
  2  4  2  3
  4  5  1  0
  4  6  1  0
  6  7  1  0
  7  8  1  0
  7  9  2  0
  9 10  1  0
 10 11  1  0
 11 12  2  0
 12 13  1  0
 12 14  1  0
 14 15  2  0
 15 16  1  0
 15 17  1  0
 17 18  1  0
 17 19  2  0
 19 20  1  0
 10 21  1  0
 21 22  2  0
 21 23  1  0
 23 24  1  0
 23  6  2  0
 19 11  1  0
M  END
>  <cnnaffinity>  (1) 
-4.5178

>  <filename>  (1) 
C=Cc1cnn(-c2cccnc2)c(=O)c1

$$$$
