
     RDKit          3D

 43 45  0  0  0  0  0  0  0  0999 V2000
    5.4988   -3.9769   26.4753 C   0  0  0  0  0  0  0  0  0  0  0  0
    6.5058   -3.2390   26.0152 C   0  0  0  0  0  0  0  0  0  0  0  0
    6.7309   -2.9777   24.5283 C   0  0  0  0  0  0  0  0  0  0  0  0
    7.7760   -1.8559   24.2920 C   0  0  0  0  0  0  0  0  0  0  0  0
    7.8390   -1.4411   22.8580 C   0  0  0  0  0  0  0  0  0  0  0  0
    6.9023   -0.7529   22.2335 N   0  0  0  0  0  0  0  0  0  0  0  0
    7.3550   -0.6978   20.9575 C   0  0  0  0  0  0  0  0  0  0  0  0
    6.6449    0.0009   19.9011 C   0  0  0  0  0  0  0  0  0  0  0  0
    5.4327    0.6530   20.1560 C   0  0  0  0  0  0  0  0  0  0  0  0
    4.8083    1.3043   19.0999 C   0  0  0  0  0  0  0  0  0  0  0  0
    5.4208    1.2795   17.8408 C   0  0  0  0  0  0  0  0  0  0  0  0
    6.5822    0.6568   17.5880 N   0  0  0  0  0  0  0  0  0  0  0  0
    7.1841    0.0379   18.6070 C   0  0  0  0  0  0  0  0  0  0  0  0
    8.1368   -0.4437   18.3813 H   0  0  0  0  0  0  0  0  0  0  0  0
    4.9586    1.7860   16.9980 H   0  0  0  0  0  0  0  0  0  0  0  0
    3.8746    1.8385   19.2402 H   0  0  0  0  0  0  0  0  0  0  0  0
    5.0044    0.6455   21.1614 H   0  0  0  0  0  0  0  0  0  0  0  0
    8.5000   -1.3216   20.7531 N   0  0  0  0  0  0  0  0  0  0  0  0
    8.7993   -1.7946   21.9789 N   0  0  0  0  0  0  0  0  0  0  0  0
   10.0473   -2.5043   22.1886 C   0  0  0  0  0  0  0  0  0  0  0  0
   11.1847   -1.6221   22.6846 C   0  0  0  0  0  0  0  0  0  0  0  0
   11.3675   -0.8111   21.9754 H   0  0  0  0  0  0  0  0  0  0  0  0
   12.0838   -2.2380   22.7483 H   0  0  0  0  0  0  0  0  0  0  0  0
   10.9943   -1.1722   23.6672 H   0  0  0  0  0  0  0  0  0  0  0  0
   10.2849   -2.8889   21.1987 H   0  0  0  0  0  0  0  0  0  0  0  0
    9.8597   -3.3545   22.8549 H   0  0  0  0  0  0  0  0  0  0  0  0
    8.7614   -2.1985   24.6330 H   0  0  0  0  0  0  0  0  0  0  0  0
    7.5191   -0.9684   24.8773 H   0  0  0  0  0  0  0  0  0  0  0  0
    7.1324   -4.2396   23.7602 C   0  0  0  0  0  0  0  0  0  0  0  0
    8.1529   -5.0688   24.2434 C   0  0  0  0  0  0  0  0  0  0  0  0
    8.4889   -6.2519   23.5850 C   0  0  0  0  0  0  0  0  0  0  0  0
    7.7788   -6.6429   22.4447 C   0  0  0  0  0  0  0  0  0  0  0  0
    6.8294   -5.7780   21.8903 C   0  0  0  0  0  0  0  0  0  0  0  0
    6.5137   -4.5845   22.5481 C   0  0  0  0  0  0  0  0  0  0  0  0
    5.7471   -3.9224   22.1539 H   0  0  0  0  0  0  0  0  0  0  0  0
    6.3457   -6.0183   20.9475 H   0  0  0  0  0  0  0  0  0  0  0  0
    7.9278   -7.6367   22.0268 H   0  0  0  0  0  0  0  0  0  0  0  0
    9.3087   -6.8488   23.9716 H   0  0  0  0  0  0  0  0  0  0  0  0
    8.6282   -4.8111   25.1881 H   0  0  0  0  0  0  0  0  0  0  0  0
    5.7692   -2.6423   24.1059 H   0  0  0  0  0  0  0  0  0  0  0  0
    7.2267   -2.8103   26.7205 H   0  0  0  0  0  0  0  0  0  0  0  0
    5.3347   -4.1753   27.5330 H   0  0  0  0  0  0  0  0  0  0  0  0
    4.7836   -4.4291   25.7904 H   0  0  0  0  0  0  0  0  0  0  0  0
  1  2  2  3
  2  3  1  0
  3  4  1  0
  4  5  1  0
  5  6  2  0
  6  7  1  0
  7  8  1  0
  8  9  2  0
  9 10  1  0
 10 11  2  0
 11 12  1  0
 12 13  2  0
 13 14  1  0
 11 15  1  0
 10 16  1  0
  9 17  1  0
  7 18  2  0
 18 19  1  0
 19 20  1  0
 20 21  1  0
 21 22  1  0
 21 23  1  0
 21 24  1  0
 20 25  1  0
 20 26  1  0
  4 27  1  0
  4 28  1  0
  3 29  1  0
 29 30  2  0
 30 31  1  0
 31 32  2  0
 32 33  1  0
 33 34  2  0
 34 35  1  0
 33 36  1  0
 32 37  1  0
 31 38  1  0
 30 39  1  0
  3 40  1  0
  2 41  1  0
  1 42  1  0
  1 43  1  0
 19  5  1  0
 34 29  1  0
 13  8  1  0
M  END
>  <cnnaffinity>  (1) 
-6.03428

>  <filename>  (1) 
C=CC(Cc1nc(-c2cccnc2)nn1CC)c1ccccc1

$$$$
