
     RDKit          3D

 30 32  0  0  0  0  0  0  0  0999 V2000
   10.7146    2.1316   25.3949 H   0  0  0  0  0  0  0  0  0  0  0  0
    9.9271    1.4464   25.6990 C   0  0  0  0  0  0  0  0  0  0  0  0
    8.9036    1.8152   25.6419 H   0  0  0  0  0  0  0  0  0  0  0  0
   10.1843    0.2108   26.1075 C   0  0  0  0  0  0  0  0  0  0  0  0
   11.2183   -0.1355   26.1905 H   0  0  0  0  0  0  0  0  0  0  0  0
    9.1151   -0.8121   26.4281 C   0  0  0  0  0  0  0  0  0  0  0  0
    9.5507   -1.7365   26.8186 H   0  0  0  0  0  0  0  0  0  0  0  0
    8.4110   -0.4509   27.1828 H   0  0  0  0  0  0  0  0  0  0  0  0
    8.2125   -1.1618   25.3449 O   0  0  0  0  0  0  0  0  0  0  0  0
    8.7850   -1.3899   24.1306 N   0  0  0  0  0  0  0  0  0  0  0  0
    9.9705   -2.0499   23.8623 C   0  0  0  0  0  0  0  0  0  0  0  0
   10.6563   -2.2867   24.6580 H   0  0  0  0  0  0  0  0  0  0  0  0
   10.0786   -2.1718   22.5135 C   0  0  0  0  0  0  0  0  0  0  0  0
   10.8166   -2.5895   21.8554 H   0  0  0  0  0  0  0  0  0  0  0  0
    8.9526   -1.5765   21.9788 N   0  0  0  0  0  0  0  0  0  0  0  0
    8.5176   -1.3026   20.7321 N   0  0  0  0  0  0  0  0  0  0  0  0
    7.3652   -0.6426   20.9558 C   0  0  0  0  0  0  0  0  0  0  0  0
    6.6067   -0.0493   19.8353 C   0  0  0  0  0  0  0  0  0  0  0  0
    7.1439   -0.0166   18.5307 C   0  0  0  0  0  0  0  0  0  0  0  0
    8.0887   -0.5125   18.3134 H   0  0  0  0  0  0  0  0  0  0  0  0
    6.5761    0.6360   17.5104 N   0  0  0  0  0  0  0  0  0  0  0  0
    5.4309    1.2895   17.7568 C   0  0  0  0  0  0  0  0  0  0  0  0
    5.0123    1.8454   16.9221 H   0  0  0  0  0  0  0  0  0  0  0  0
    4.7918    1.2880   19.0007 C   0  0  0  0  0  0  0  0  0  0  0  0
    3.8774    1.8517   19.1411 H   0  0  0  0  0  0  0  0  0  0  0  0
    5.3819    0.6037   20.0576 C   0  0  0  0  0  0  0  0  0  0  0  0
    4.9177    0.6239   21.0463 H   0  0  0  0  0  0  0  0  0  0  0  0
    7.0564   -0.5070   22.3317 C   0  0  0  0  0  0  0  0  0  0  0  0
    6.1859   -0.0647   22.7805 H   0  0  0  0  0  0  0  0  0  0  0  0
    8.1454   -1.1078   22.9574 C   0  0  0  0  0  0  0  0  0  0  0  0
  1  2  1  0
  2  3  1  0
  2  4  2  3
  4  5  1  0
  4  6  1  0
  6  7  1  0
  6  8  1  0
  6  9  1  0
  9 10  1  0
 10 11  1  0
 11 12  1  0
 11 13  2  0
 13 14  1  0
 13 15  1  0
 15 16  1  0
 16 17  2  0
 17 18  1  0
 18 19  2  0
 19 20  1  0
 19 21  1  0
 21 22  2  0
 22 23  1  0
 22 24  1  0
 24 25  1  0
 24 26  2  0
 26 27  1  0
 17 28  1  0
 28 29  1  0
 28 30  2  0
 30 10  1  0
 30 15  1  0
 26 18  1  0
M  END
>  <cnnaffinity>  (1) 
-4.94675

>  <filename>  (1) 
C=CCOn1ccn2nc(-c3cccnc3)cc12

$$$$
