
     RDKit          3D

 43 45  0  0  0  0  0  0  0  0999 V2000
   11.4048   -0.5780   23.2471 C   0  0  0  0  0  0  0  0  0  0  0  0
   11.2587   -1.5050   22.3037 C   0  0  0  0  0  0  0  0  0  0  0  0
   10.0510   -2.4069   22.1097 C   0  0  0  0  0  0  0  0  0  0  0  0
    8.7815   -1.7045   21.9841 N   0  0  0  0  0  0  0  0  0  0  0  0
    8.4695   -1.2037   20.7678 N   0  0  0  0  0  0  0  0  0  0  0  0
    7.3152   -0.6021   20.9820 C   0  0  0  0  0  0  0  0  0  0  0  0
    6.5861    0.0645   19.9104 C   0  0  0  0  0  0  0  0  0  0  0  0
    5.3611    0.7125   20.1135 C   0  0  0  0  0  0  0  0  0  0  0  0
    4.7744    1.3464   19.0195 C   0  0  0  0  0  0  0  0  0  0  0  0
    5.4251    1.2986   17.7807 C   0  0  0  0  0  0  0  0  0  0  0  0
    6.5806    0.6527   17.5736 N   0  0  0  0  0  0  0  0  0  0  0  0
    7.1457    0.0501   18.6238 C   0  0  0  0  0  0  0  0  0  0  0  0
    8.0838   -0.4685   18.4317 H   0  0  0  0  0  0  0  0  0  0  0  0
    4.9971    1.8009   16.9155 H   0  0  0  0  0  0  0  0  0  0  0  0
    3.8406    1.8859   19.1158 H   0  0  0  0  0  0  0  0  0  0  0  0
    4.8898    0.7202   21.0992 H   0  0  0  0  0  0  0  0  0  0  0  0
    6.8727   -0.6801   22.2573 N   0  0  0  0  0  0  0  0  0  0  0  0
    7.8106   -1.3787   22.8702 C   0  0  0  0  0  0  0  0  0  0  0  0
    7.7178   -1.8264   24.2952 C   0  0  0  0  0  0  0  0  0  0  0  0
    6.7514   -3.0297   24.4817 C   0  0  2  0  0  0  0  0  0  0  0  0
    6.4851   -3.3055   25.9729 C   0  0  0  0  0  0  0  0  0  0  0  0
    6.0350   -2.4359   26.4651 H   0  0  0  0  0  0  0  0  0  0  0  0
    5.8013   -4.1502   26.1111 H   0  0  0  0  0  0  0  0  0  0  0  0
    7.4038   -3.5439   26.5190 H   0  0  0  0  0  0  0  0  0  0  0  0
    7.2591   -4.2654   23.7453 C   0  0  0  0  0  0  0  0  0  0  0  0
    8.3172   -5.0236   24.2689 C   0  0  0  0  0  0  0  0  0  0  0  0
    8.6403   -6.2620   23.7157 C   0  0  0  0  0  0  0  0  0  0  0  0
    7.9515   -6.7458   22.5986 C   0  0  0  0  0  0  0  0  0  0  0  0
    6.9815   -5.9444   21.9887 C   0  0  0  0  0  0  0  0  0  0  0  0
    6.6514   -4.7028   22.5499 C   0  0  0  0  0  0  0  0  0  0  0  0
    5.8748   -4.0880   22.0899 H   0  0  0  0  0  0  0  0  0  0  0  0
    6.4512   -6.2865   21.1027 H   0  0  0  0  0  0  0  0  0  0  0  0
    8.1802   -7.7460   22.2366 H   0  0  0  0  0  0  0  0  0  0  0  0
    9.4088   -6.8661   24.1875 H   0  0  0  0  0  0  0  0  0  0  0  0
    8.8599   -4.6846   25.1545 H   0  0  0  0  0  0  0  0  0  0  0  0
    5.7920   -2.7343   24.0343 H   0  0  0  0  0  0  0  0  0  0  0  0
    8.7107   -2.0777   24.6915 H   0  0  0  0  0  0  0  0  0  0  0  0
    7.3248   -0.9804   24.8698 H   0  0  0  0  0  0  0  0  0  0  0  0
    9.9514   -3.1741   22.8906 H   0  0  0  0  0  0  0  0  0  0  0  0
   10.1381   -2.9130   21.1518 H   0  0  0  0  0  0  0  0  0  0  0  0
   12.0477   -1.6418   21.5615 H   0  0  0  0  0  0  0  0  0  0  0  0
   10.6443   -0.3768   24.0037 H   0  0  0  0  0  0  0  0  0  0  0  0
   12.3134    0.0160   23.3220 H   0  0  0  0  0  0  0  0  0  0  0  0
  1  2  2  3
  2  3  1  0
  3  4  1  0
  4  5  1  0
  5  6  2  0
  6  7  1  0
  7  8  2  0
  8  9  1  0
  9 10  2  0
 10 11  1  0
 11 12  2  0
 12 13  1  0
 10 14  1  0
  9 15  1  0
  8 16  1  0
  6 17  1  0
 17 18  2  0
 18 19  1  0
 19 20  1  0
 20 21  1  0
 21 22  1  0
 21 23  1  0
 21 24  1  0
 20 25  1  0
 25 26  2  0
 26 27  1  0
 27 28  2  0
 28 29  1  0
 29 30  2  0
 30 31  1  0
 29 32  1  0
 28 33  1  0
 27 34  1  0
 26 35  1  0
 20 36  1  6
 19 37  1  0
 19 38  1  0
  3 39  1  0
  3 40  1  0
  2 41  1  0
  1 42  1  0
  1 43  1  0
 18  4  1  0
 30 25  1  0
 12  7  1  0
M  END
>  <cnnaffinity>  (1) 
-6.14925

>  <filename>  (1) 
C=CCn1nc(-c2cccnc2)nc1C[C@H](C)c1ccccc1

$$$$
