
     RDKit          3D

 39 42  0  0  0  0  0  0  0  0999 V2000
   10.5511   -0.7110   24.7812 C   0  0  0  0  0  0  0  0  0  0  0  0
   11.0084   -0.3209   23.5987 C   0  0  0  0  0  0  0  0  0  0  0  0
   11.1056   -1.1795   22.3616 C   0  0  0  0  0  0  0  0  0  0  0  0
   10.0078   -2.2303   22.1213 C   0  0  0  0  0  0  0  0  0  0  0  0
    8.6809   -1.6609   21.8657 N   0  0  0  0  0  0  0  0  0  0  0  0
    8.4086   -1.1689   20.6340 N   0  0  0  0  0  0  0  0  0  0  0  0
    7.2163   -0.6125   20.7849 C   0  0  0  0  0  0  0  0  0  0  0  0
    6.5101    0.0722   19.7031 C   0  0  0  0  0  0  0  0  0  0  0  0
    5.2976    0.7576   19.8935 C   0  0  0  0  0  0  0  0  0  0  0  0
    4.7487    1.4247   18.8009 C   0  0  0  0  0  0  0  0  0  0  0  0
    5.4149    1.3757   17.5699 C   0  0  0  0  0  0  0  0  0  0  0  0
    6.5613    0.7073   17.3754 N   0  0  0  0  0  0  0  0  0  0  0  0
    7.0911    0.0764   18.4264 C   0  0  0  0  0  0  0  0  0  0  0  0
    8.0297   -0.4465   18.2519 H   0  0  0  0  0  0  0  0  0  0  0  0
    5.0132    1.8987   16.7052 H   0  0  0  0  0  0  0  0  0  0  0  0
    3.8354    2.0019   18.8937 H   0  0  0  0  0  0  0  0  0  0  0  0
    4.8163    0.7817   20.8753 H   0  0  0  0  0  0  0  0  0  0  0  0
    6.7225   -0.6926   22.0399 N   0  0  0  0  0  0  0  0  0  0  0  0
    7.6443   -1.3730   22.6930 C   0  0  0  0  0  0  0  0  0  0  0  0
    7.6106   -1.7375   24.1135 C   0  0  0  0  0  0  0  0  0  0  0  0
    7.8877   -3.0796   24.4910 C   0  0  0  0  0  0  0  0  0  0  0  0
    7.9764   -4.2467   23.7667 N   0  0  0  0  0  0  0  0  0  0  0  0
    8.2083   -5.2310   24.5736 N   0  0  0  0  0  0  0  0  0  0  0  0
    8.2887   -4.7409   25.8316 N   0  0  0  0  0  0  0  0  0  0  0  0
    8.0864   -3.4007   25.8489 C   0  0  0  0  0  0  0  0  0  0  0  0
    8.0522   -2.4412   26.8706 C   0  0  0  0  0  0  0  0  0  0  0  0
    7.7128   -1.1579   26.4725 C   0  0  0  0  0  0  0  0  0  0  0  0
    7.6980   -0.1870   27.3989 F   0  0  0  0  0  0  0  0  0  0  0  0
    7.4188   -0.8072   25.1422 C   0  0  0  0  0  0  0  0  0  0  0  0
    7.1137    0.2118   24.9336 H   0  0  0  0  0  0  0  0  0  0  0  0
    8.2878   -2.6629   27.8970 H   0  0  0  0  0  0  0  0  0  0  0  0
    8.4601   -5.3538   26.6157 H   0  0  0  0  0  0  0  0  0  0  0  0
   10.2456   -2.7480   21.1919 H   0  0  0  0  0  0  0  0  0  0  0  0
    9.9219   -2.9564   22.9378 H   0  0  0  0  0  0  0  0  0  0  0  0
   12.0695   -1.7095   22.3531 H   0  0  0  0  0  0  0  0  0  0  0  0
   11.1076   -0.5313   21.4792 H   0  0  0  0  0  0  0  0  0  0  0  0
   11.3375    0.7094   23.4794 H   0  0  0  0  0  0  0  0  0  0  0  0
   10.3497   -0.0147   25.5925 H   0  0  0  0  0  0  0  0  0  0  0  0
   10.2708   -1.7423   24.9918 H   0  0  0  0  0  0  0  0  0  0  0  0
  1  2  2  3
  2  3  1  0
  3  4  1  0
  4  5  1  0
  5  6  1  0
  6  7  2  0
  7  8  1  0
  8  9  2  0
  9 10  1  0
 10 11  2  0
 11 12  1  0
 12 13  2  0
 13 14  1  0
 11 15  1  0
 10 16  1  0
  9 17  1  0
  7 18  1  0
 18 19  2  0
 19 20  1  0
 20 21  2  0
 21 22  1  0
 22 23  2  0
 23 24  1  0
 24 25  1  0
 25 26  2  0
 26 27  1  0
 27 28  1  0
 27 29  2  0
 29 30  1  0
 26 31  1  0
 24 32  1  0
  4 33  1  0
  4 34  1  0
  3 35  1  0
  3 36  1  0
  2 37  1  0
  1 38  1  0
  1 39  1  0
 19  5  1  0
 29 20  1  0
 13  8  1  0
 25 21  1  0
M  END
>  <cnnaffinity>  (1) 
-6.09548

>  <filename>  (1) 
C=CCCn1nc(-c2cccnc2)nc1-c1cc(F)cc2[nH]nnc12

$$$$
