
     RDKit          3D

 43 45  0  0  0  0  0  0  0  0999 V2000
   11.7030   -0.6396   22.3155 C   0  0  0  0  0  0  0  0  0  0  0  0
   10.9213   -1.5469   22.8947 C   0  0  0  0  0  0  0  0  0  0  0  0
   10.0011   -2.4548   22.1087 C   0  0  0  0  0  0  0  0  0  0  0  0
    8.6789   -1.8619   21.8886 N   0  0  0  0  0  0  0  0  0  0  0  0
    8.3579   -1.3812   20.6642 N   0  0  0  0  0  0  0  0  0  0  0  0
    7.2681   -0.6691   20.8938 C   0  0  0  0  0  0  0  0  0  0  0  0
    6.5580    0.0525   19.8386 C   0  0  0  0  0  0  0  0  0  0  0  0
    5.3473    0.7330   20.0556 C   0  0  0  0  0  0  0  0  0  0  0  0
    4.7598    1.3842   18.9738 C   0  0  0  0  0  0  0  0  0  0  0  0
    5.4008    1.3424   17.7302 C   0  0  0  0  0  0  0  0  0  0  0  0
    6.5560    0.6953   17.5136 N   0  0  0  0  0  0  0  0  0  0  0  0
    7.1169    0.0691   18.5514 C   0  0  0  0  0  0  0  0  0  0  0  0
    8.0561   -0.4471   18.3523 H   0  0  0  0  0  0  0  0  0  0  0  0
    4.9650    1.8484   16.8719 H   0  0  0  0  0  0  0  0  0  0  0  0
    3.8286    1.9312   19.0801 H   0  0  0  0  0  0  0  0  0  0  0  0
    4.8854    0.7565   21.0451 H   0  0  0  0  0  0  0  0  0  0  0  0
    6.8793   -0.6554   22.1898 N   0  0  0  0  0  0  0  0  0  0  0  0
    7.7706   -1.4215   22.7926 C   0  0  0  0  0  0  0  0  0  0  0  0
    7.6827   -1.8489   24.2285 C   0  0  0  0  0  0  0  0  0  0  0  0
    6.6817   -3.0171   24.4377 C   0  0  1  0  0  0  0  0  0  0  0  0
    7.1306   -4.2771   23.6823 C   0  0  0  0  0  0  0  0  0  0  0  0
    7.2578   -4.0723   22.6156 H   0  0  0  0  0  0  0  0  0  0  0  0
    8.0866   -4.6539   24.0658 H   0  0  0  0  0  0  0  0  0  0  0  0
    6.3977   -5.0807   23.8022 H   0  0  0  0  0  0  0  0  0  0  0  0
    6.4061   -3.3231   25.9061 C   0  0  0  0  0  0  0  0  0  0  0  0
    7.3239   -4.0345   26.6958 C   0  0  0  0  0  0  0  0  0  0  0  0
    6.9725   -4.4972   27.9662 C   0  0  0  0  0  0  0  0  0  0  0  0
    5.6974   -4.2298   28.4821 C   0  0  0  0  0  0  0  0  0  0  0  0
    4.7995   -3.4490   27.7412 C   0  0  0  0  0  0  0  0  0  0  0  0
    5.1676   -2.9793   26.4757 C   0  0  0  0  0  0  0  0  0  0  0  0
    4.4834   -2.3418   25.9139 H   0  0  0  0  0  0  0  0  0  0  0  0
    3.8087   -3.2286   28.1367 H   0  0  0  0  0  0  0  0  0  0  0  0
    5.3974   -4.6362   29.4439 H   0  0  0  0  0  0  0  0  0  0  0  0
    7.6883   -5.0945   28.5261 H   0  0  0  0  0  0  0  0  0  0  0  0
    8.3146   -4.2656   26.3087 H   0  0  0  0  0  0  0  0  0  0  0  0
    5.7219   -2.6937   24.0106 H   0  0  0  0  0  0  0  0  0  0  0  0
    8.6662   -2.1366   24.6144 H   0  0  0  0  0  0  0  0  0  0  0  0
    7.3623   -0.9752   24.8018 H   0  0  0  0  0  0  0  0  0  0  0  0
   10.3948   -2.6327   21.1072 H   0  0  0  0  0  0  0  0  0  0  0  0
    9.8808   -3.4246   22.6035 H   0  0  0  0  0  0  0  0  0  0  0  0
   10.8652   -1.6330   23.9813 H   0  0  0  0  0  0  0  0  0  0  0  0
   12.2943    0.0771   22.8830 H   0  0  0  0  0  0  0  0  0  0  0  0
   11.7720   -0.5958   21.2291 H   0  0  0  0  0  0  0  0  0  0  0  0
  1  2  2  3
  2  3  1  0
  3  4  1  0
  4  5  1  0
  5  6  2  0
  6  7  1  0
  7  8  2  0
  8  9  1  0
  9 10  2  0
 10 11  1  0
 11 12  2  0
 12 13  1  0
 10 14  1  0
  9 15  1  0
  8 16  1  0
  6 17  1  0
 17 18  2  0
 18 19  1  0
 19 20  1  0
 20 21  1  0
 21 22  1  0
 21 23  1  0
 21 24  1  0
 20 25  1  0
 25 26  2  0
 26 27  1  0
 27 28  2  0
 28 29  1  0
 29 30  2  0
 30 31  1  0
 29 32  1  0
 28 33  1  0
 27 34  1  0
 26 35  1  0
 20 36  1  6
 19 37  1  0
 19 38  1  0
  3 39  1  0
  3 40  1  0
  2 41  1  0
  1 42  1  0
  1 43  1  0
 18  4  1  0
 30 25  1  0
 12  7  1  0
M  END
>  <cnnaffinity>  (1) 
-6.01007

>  <filename>  (1) 
C=CCn1nc(-c2cccnc2)nc1C[C@@H](C)c1ccccc1

$$$$
