
     RDKit          3D

 40 43  0  0  0  0  0  0  0  0999 V2000
   12.5236    3.8328   20.9662 C   0  0  0  0  0  0  0  0  0  0  0  0
   11.7412    2.7588   20.9899 C   0  0  0  0  0  0  0  0  0  0  0  0
   11.4879    1.7888   22.1174 C   0  0  0  0  0  0  0  0  0  0  0  0
   10.0729    1.3998   22.1746 N   0  0  0  0  0  0  0  0  0  0  0  0
    9.6302    0.4342   21.3306 N   0  0  0  0  0  0  0  0  0  0  0  0
    8.3706    0.2699   21.6912 C   0  0  0  0  0  0  0  0  0  0  0  0
    7.4476   -0.6773   20.9695 C   0  0  0  0  0  0  0  0  0  0  0  0
    6.6697   -0.0287   19.8284 C   0  0  0  0  0  0  0  0  0  0  0  0
    5.4625    0.6327   20.0892 C   0  0  0  0  0  0  0  0  0  0  0  0
    4.8164    1.3065   19.0515 C   0  0  0  0  0  0  0  0  0  0  0  0
    5.3997    1.3041   17.7829 C   0  0  0  0  0  0  0  0  0  0  0  0
    6.5424    0.6583   17.5033 N   0  0  0  0  0  0  0  0  0  0  0  0
    7.1500    0.0136   18.5077 C   0  0  0  0  0  0  0  0  0  0  0  0
    8.0762   -0.5000   18.2437 H   0  0  0  0  0  0  0  0  0  0  0  0
    4.9316    1.8396   16.9563 H   0  0  0  0  0  0  0  0  0  0  0  0
    3.8863    1.8377   19.2142 H   0  0  0  0  0  0  0  0  0  0  0  0
    5.0379    0.6220   21.0947 H   0  0  0  0  0  0  0  0  0  0  0  0
    6.7384   -1.0777   21.7021 H   0  0  0  0  0  0  0  0  0  0  0  0
    8.0447   -1.5174   20.6013 H   0  0  0  0  0  0  0  0  0  0  0  0
    7.9797    1.0425   22.7308 N   0  0  0  0  0  0  0  0  0  0  0  0
    9.0564    1.7736   22.9911 C   0  0  0  0  0  0  0  0  0  0  0  0
    9.1418    2.8306   24.0244 C   0  0  0  0  0  0  0  0  0  0  0  0
    8.5926    2.5524   25.3070 C   0  0  0  0  0  0  0  0  0  0  0  0
    8.6394    3.4827   26.3370 C   0  0  0  0  0  0  0  0  0  0  0  0
    9.2220    4.7299   26.0568 C   0  0  0  0  0  0  0  0  0  0  0  0
    9.4243    5.8627   26.8113 N   0  0  0  0  0  0  0  0  0  0  0  0
   10.0396    6.7765   25.9903 C   0  0  0  0  0  0  0  0  0  0  0  0
   10.2658    6.3344   24.7891 N   0  0  0  0  0  0  0  0  0  0  0  0
    9.7576    5.0398   24.7895 C   0  0  0  0  0  0  0  0  0  0  0  0
    9.7197    4.0867   23.7646 C   0  0  0  0  0  0  0  0  0  0  0  0
   10.1248    4.3610   22.7926 H   0  0  0  0  0  0  0  0  0  0  0  0
   10.3013    7.7618   26.3554 H   0  0  0  0  0  0  0  0  0  0  0  0
    9.0725    6.0214   27.7396 H   0  0  0  0  0  0  0  0  0  0  0  0
    8.2376    3.2474   27.3182 H   0  0  0  0  0  0  0  0  0  0  0  0
    8.1230    1.5798   25.4665 H   0  0  0  0  0  0  0  0  0  0  0  0
   12.0533    0.8660   21.9526 H   0  0  0  0  0  0  0  0  0  0  0  0
   11.7932    2.1988   23.0847 H   0  0  0  0  0  0  0  0  0  0  0  0
   11.2026    2.4974   20.0821 H   0  0  0  0  0  0  0  0  0  0  0  0
   12.5757    4.4144   20.0497 H   0  0  0  0  0  0  0  0  0  0  0  0
   13.1630    4.1929   21.7741 H   0  0  0  0  0  0  0  0  0  0  0  0
  1  2  2  3
  2  3  1  0
  3  4  1  0
  4  5  1  0
  5  6  2  0
  6  7  1  0
  7  8  1  0
  8  9  2  0
  9 10  1  0
 10 11  2  0
 11 12  1  0
 12 13  2  0
 13 14  1  0
 11 15  1  0
 10 16  1  0
  9 17  1  0
  7 18  1  0
  7 19  1  0
  6 20  1  0
 20 21  2  0
 21 22  1  0
 22 23  2  0
 23 24  1  0
 24 25  2  0
 25 26  1  0
 26 27  1  0
 27 28  2  0
 28 29  1  0
 29 30  2  0
 30 31  1  0
 27 32  1  0
 26 33  1  0
 24 34  1  0
 23 35  1  0
  3 36  1  0
  3 37  1  0
  2 38  1  0
  1 39  1  0
  1 40  1  0
 21  4  1  0
 30 22  1  0
 13  8  1  0
 29 25  1  0
M  END
>  <cnnaffinity>  (1) 
-5.97141

>  <filename>  (1) 
C=CCn1nc(Cc2cccnc2)nc1-c1ccc2[nH]cnc2c1

$$$$
