
     RDKit          3D

 44 47  0  0  0  0  0  0  0  0999 V2000
   11.8312    1.8577   24.8086 C   0  0  0  0  0  0  0  0  0  0  0  0
   12.0173    0.7870   24.0471 C   0  0  0  0  0  0  0  0  0  0  0  0
   12.3208    0.8475   22.5678 C   0  0  0  0  0  0  0  0  0  0  0  0
   11.4353    1.8258   21.7672 C   0  0  0  0  0  0  0  0  0  0  0  0
   10.0130    1.4955   21.8441 N   0  0  0  0  0  0  0  0  0  0  0  0
    9.5523    0.5000   21.0529 N   0  0  0  0  0  0  0  0  0  0  0  0
    8.3540    0.2492   21.5349 C   0  0  0  0  0  0  0  0  0  0  0  0
    7.4133   -0.7259   20.8930 C   0  0  0  0  0  0  0  0  0  0  0  0
    6.6203   -0.0811   19.7655 C   0  0  0  0  0  0  0  0  0  0  0  0
    5.4312    0.6032   20.0413 C   0  0  0  0  0  0  0  0  0  0  0  0
    4.8027    1.3101   19.0144 C   0  0  0  0  0  0  0  0  0  0  0  0
    5.3902    1.3062   17.7453 C   0  0  0  0  0  0  0  0  0  0  0  0
    6.5205    0.6442   17.4525 N   0  0  0  0  0  0  0  0  0  0  0  0
    7.1098   -0.0282   18.4489 C   0  0  0  0  0  0  0  0  0  0  0  0
    8.0353   -0.5499   18.1983 H   0  0  0  0  0  0  0  0  0  0  0  0
    4.9357    1.8577   16.9250 H   0  0  0  0  0  0  0  0  0  0  0  0
    3.8896    1.8692   19.1868 H   0  0  0  0  0  0  0  0  0  0  0  0
    5.0193    0.5855   21.0531 H   0  0  0  0  0  0  0  0  0  0  0  0
    7.9972   -1.5755   20.5255 H   0  0  0  0  0  0  0  0  0  0  0  0
    6.7404   -1.0861   21.6779 H   0  0  0  0  0  0  0  0  0  0  0  0
    8.0198    0.9849   22.6140 N   0  0  0  0  0  0  0  0  0  0  0  0
    9.0755    1.7867   22.7828 C   0  0  0  0  0  0  0  0  0  0  0  0
    9.2415    2.8553   23.8213 C   0  0  0  0  0  0  0  0  0  0  0  0
    9.8033    4.0167   23.4773 N   0  0  0  0  0  0  0  0  0  0  0  0
    9.7142    5.0632   24.3338 C   0  0  0  0  0  0  0  0  0  0  0  0
    9.1123    4.9857   25.5706 C   0  0  0  0  0  0  0  0  0  0  0  0
    8.6376    3.7352   26.0212 C   0  0  0  0  0  0  0  0  0  0  0  0
    8.0346    3.5278   27.2804 C   0  0  0  0  0  0  0  0  0  0  0  0
    7.7497    2.2497   27.6865 C   0  0  0  0  0  0  0  0  0  0  0  0
    7.9746    1.1505   26.9387 N   0  0  0  0  0  0  0  0  0  0  0  0
    8.4659    1.3320   25.7256 C   0  0  0  0  0  0  0  0  0  0  0  0
    8.8004    2.6033   25.1672 C   0  0  0  0  0  0  0  0  0  0  0  0
    8.6034    0.4319   25.1261 H   0  0  0  0  0  0  0  0  0  0  0  0
    7.3107    2.0805   28.6660 H   0  0  0  0  0  0  0  0  0  0  0  0
    7.8095    4.3587   27.9352 H   0  0  0  0  0  0  0  0  0  0  0  0
    9.0060    5.8540   26.2082 H   0  0  0  0  0  0  0  0  0  0  0  0
   10.1640    5.9951   23.9963 H   0  0  0  0  0  0  0  0  0  0  0  0
   11.6795    1.7616   20.7070 H   0  0  0  0  0  0  0  0  0  0  0  0
   11.5518    2.8592   22.0986 H   0  0  0  0  0  0  0  0  0  0  0  0
   12.1823   -0.1451   22.1215 H   0  0  0  0  0  0  0  0  0  0  0  0
   13.3663    1.1494   22.4052 H   0  0  0  0  0  0  0  0  0  0  0  0
   11.8416   -0.2071   24.4661 H   0  0  0  0  0  0  0  0  0  0  0  0
   11.3666    1.7905   25.7847 H   0  0  0  0  0  0  0  0  0  0  0  0
   12.0187    2.8722   24.4490 H   0  0  0  0  0  0  0  0  0  0  0  0
  1  2  2  3
  2  3  1  0
  3  4  1  0
  4  5  1  0
  5  6  1  0
  6  7  2  0
  7  8  1  0
  8  9  1  0
  9 10  2  0
 10 11  1  0
 11 12  2  0
 12 13  1  0
 13 14  2  0
 14 15  1  0
 12 16  1  0
 11 17  1  0
 10 18  1  0
  8 19  1  0
  8 20  1  0
  7 21  1  0
 21 22  2  0
 22 23  1  0
 23 24  2  0
 24 25  1  0
 25 26  2  0
 26 27  1  0
 27 28  2  0
 28 29  1  0
 29 30  2  0
 30 31  1  0
 31 32  2  0
 31 33  1  0
 29 34  1  0
 28 35  1  0
 26 36  1  0
 25 37  1  0
  4 38  1  0
  4 39  1  0
  3 40  1  0
  3 41  1  0
  2 42  1  0
  1 43  1  0
  1 44  1  0
 22  5  1  0
 32 23  1  0
 14  9  1  0
 32 27  1  0
M  END
>  <cnnaffinity>  (1) 
-5.76452

>  <filename>  (1) 
C=CCCn1nc(Cc2cccnc2)nc1-c1nccc2ccncc12

$$$$
