
     RDKit          3D

 26 26  0  0  0  0  0  0  0  0999 V2000
   11.0644   -4.2707   24.8373 H   0  0  0  0  0  0  0  0  0  0  0  0
   11.1853   -3.5734   24.0109 C   0  0  0  0  0  0  0  0  0  0  0  0
   12.0628   -3.7205   23.3841 H   0  0  0  0  0  0  0  0  0  0  0  0
   10.3248   -2.5819   23.7893 C   0  0  0  0  0  0  0  0  0  0  0  0
    9.4960   -2.4220   24.4858 H   0  0  0  0  0  0  0  0  0  0  0  0
   10.3807   -1.6838   22.5830 C   0  0  0  0  0  0  0  0  0  0  0  0
   10.1238   -2.1850   21.6419 H   0  0  0  0  0  0  0  0  0  0  0  0
   11.3596   -1.2165   22.4459 H   0  0  0  0  0  0  0  0  0  0  0  0
    9.4081   -0.5700   22.7974 O   0  0  0  0  0  0  0  0  0  0  0  0
    8.8632    0.2938   21.4912 S   0  0  0  0  0  0  0  0  0  0  0  0
    7.2262   -0.5083   21.1698 C   0  0  1  0  0  0  0  0  0  0  0  0
    6.6852   -0.3324   22.1047 H   0  0  0  0  0  0  0  0  0  0  0  0
    6.5205    0.1516   20.0063 C   0  0  0  0  0  0  0  0  0  0  0  0
    7.1039    0.1157   18.7275 C   0  0  0  0  0  0  0  0  0  0  0  0
    8.0594   -0.3907   18.5970 H   0  0  0  0  0  0  0  0  0  0  0  0
    6.5751    0.6747   17.6317 N   0  0  0  0  0  0  0  0  0  0  0  0
    5.4053    1.3123   17.7765 C   0  0  0  0  0  0  0  0  0  0  0  0
    4.9926    1.7520   16.8724 H   0  0  0  0  0  0  0  0  0  0  0  0
    4.7094    1.3924   18.9894 C   0  0  0  0  0  0  0  0  0  0  0  0
    3.7628    1.9243   19.0304 H   0  0  0  0  0  0  0  0  0  0  0  0
    5.2762    0.7970   20.1212 C   0  0  0  0  0  0  0  0  0  0  0  0
    4.7658    0.8437   21.0862 H   0  0  0  0  0  0  0  0  0  0  0  0
    7.4899   -2.0111   21.0007 C   0  0  0  0  0  0  0  0  0  0  0  0
    7.7000   -2.4489   21.9810 H   0  0  0  0  0  0  0  0  0  0  0  0
    6.6530   -2.5367   20.5332 H   0  0  0  0  0  0  0  0  0  0  0  0
    8.3710   -2.1586   20.3762 H   0  0  0  0  0  0  0  0  0  0  0  0
  1  2  1  0
  2  3  1  0
  2  4  2  3
  4  5  1  0
  4  6  1  0
  6  7  1  0
  6  8  1  0
  6  9  1  0
  9 10  1  0
 10 11  1  0
 11 12  1  1
 11 13  1  0
 13 14  2  0
 14 15  1  0
 14 16  1  0
 16 17  2  0
 17 18  1  0
 17 19  1  0
 19 20  1  0
 19 21  2  0
 21 22  1  0
 11 23  1  0
 23 24  1  0
 23 25  1  0
 23 26  1  0
 21 13  1  0
M  END
>  <cnnaffinity>  (1) 
-4.28508

>  <filename>  (1) 
C=CCOS[C@H](C)c1cccnc1

$$$$
