
     RDKit          3D

 26 27  0  0  0  0  0  0  0  0999 V2000
    2.5825   -5.0079   23.4124 H   0  0  0  0  0  0  0  0  0  0  0  0
    3.5093   -4.4910   23.6740 C   0  0  0  0  0  0  0  0  0  0  0  0
    3.7312   -4.4556   24.7434 H   0  0  0  0  0  0  0  0  0  0  0  0
    4.2960   -3.9174   22.7607 C   0  0  0  0  0  0  0  0  0  0  0  0
    4.0286   -3.9335   21.7139 H   0  0  0  0  0  0  0  0  0  0  0  0
    5.5730   -3.1749   23.0384 C   0  0  0  0  0  0  0  0  0  0  0  0
    6.1846   -3.2717   24.0728 O   0  0  0  0  0  0  0  0  0  0  0  0
    5.9621   -2.3646   21.9666 N   0  0  0  0  0  0  0  0  0  0  0  0
    5.3148   -2.1460   21.2323 H   0  0  0  0  0  0  0  0  0  0  0  0
    7.1705   -1.7292   21.9043 C   0  0  0  0  0  0  0  0  0  0  0  0
    8.1755   -1.9945   22.6790 N   0  0  0  0  0  0  0  0  0  0  0  0
    9.1509   -1.1523   22.1987 N   0  0  0  0  0  0  0  0  0  0  0  0
   10.0770   -1.0923   22.5754 H   0  0  0  0  0  0  0  0  0  0  0  0
    8.7837   -0.3859   21.1535 C   0  0  0  0  0  0  0  0  0  0  0  0
    9.4422    0.4418   20.5503 O   0  0  0  0  0  0  0  0  0  0  0  0
    7.4543   -0.7850   20.9259 N   0  0  0  0  0  0  0  0  0  0  0  0
    6.6724   -0.1648   19.8968 C   0  0  0  0  0  0  0  0  0  0  0  0
    7.1610   -0.0886   18.5731 C   0  0  0  0  0  0  0  0  0  0  0  0
    8.1060   -0.5745   18.3308 H   0  0  0  0  0  0  0  0  0  0  0  0
    6.5389    0.5720   17.5920 N   0  0  0  0  0  0  0  0  0  0  0  0
    5.4042    1.2236   17.9014 C   0  0  0  0  0  0  0  0  0  0  0  0
    4.9292    1.7628   17.0839 H   0  0  0  0  0  0  0  0  0  0  0  0
    4.8408    1.2140   19.1822 C   0  0  0  0  0  0  0  0  0  0  0  0
    3.9284    1.7658   19.3761 H   0  0  0  0  0  0  0  0  0  0  0  0
    5.4823    0.4959   20.2015 C   0  0  0  0  0  0  0  0  0  0  0  0
    5.1047    0.4625   21.2240 H   0  0  0  0  0  0  0  0  0  0  0  0
  1  2  1  0
  2  3  1  0
  2  4  2  3
  4  5  1  0
  4  6  1  0
  6  7  2  0
  6  8  1  0
  8  9  1  0
  8 10  1  0
 10 11  2  0
 11 12  1  0
 12 13  1  0
 12 14  1  0
 14 15  2  0
 14 16  1  0
 16 17  1  0
 17 18  2  0
 18 19  1  0
 18 20  1  0
 20 21  2  0
 21 22  1  0
 21 23  1  0
 23 24  1  0
 23 25  2  0
 25 26  1  0
 16 10  1  0
 25 17  1  0
M  END
>  <cnnaffinity>  (1) 
-4.44736

>  <filename>  (1) 
C=CC(=O)Nc1n[nH]c(=O)n1-c1cccnc1

$$$$
