
     RDKit          3D

 24 25  0  0  0  0  0  0  0  0999 V2000
   12.7187   -0.5380   23.4174 H   0  0  0  0  0  0  0  0  0  0  0  0
   12.6310   -0.3391   22.3561 C   0  0  0  0  0  0  0  0  0  0  0  0
   13.2801    0.4500   21.9817 H   0  0  0  0  0  0  0  0  0  0  0  0
   11.7792   -0.9725   21.5530 C   0  0  0  0  0  0  0  0  0  0  0  0
   11.7378   -0.6676   20.5113 H   0  0  0  0  0  0  0  0  0  0  0  0
   10.8643   -2.1139   21.9214 C   0  0  0  0  0  0  0  0  0  0  0  0
   10.4413   -2.5694   21.0232 H   0  0  0  0  0  0  0  0  0  0  0  0
   11.3899   -2.8767   22.5074 H   0  0  0  0  0  0  0  0  0  0  0  0
    9.7591   -1.7430   22.7838 O   0  0  0  0  0  0  0  0  0  0  0  0
    8.6633   -1.2633   22.2354 C   0  0  0  0  0  0  0  0  0  0  0  0
    8.4284   -0.9168   21.0043 N   0  0  0  0  0  0  0  0  0  0  0  0
    7.1270   -0.4827   21.1067 C   0  0  0  0  0  0  0  0  0  0  0  0
    6.4079    0.0885   19.9673 C   0  0  0  0  0  0  0  0  0  0  0  0
    7.0489    0.0225   18.7235 C   0  0  0  0  0  0  0  0  0  0  0  0
    7.9873   -0.5194   18.6137 H   0  0  0  0  0  0  0  0  0  0  0  0
    6.5754    0.6073   17.6204 N   0  0  0  0  0  0  0  0  0  0  0  0
    5.4300    1.2966   17.7249 C   0  0  0  0  0  0  0  0  0  0  0  0
    5.0931    1.7992   16.8218 H   0  0  0  0  0  0  0  0  0  0  0  0
    4.6937    1.3902   18.9115 C   0  0  0  0  0  0  0  0  0  0  0  0
    3.7844    1.9852   18.9179 H   0  0  0  0  0  0  0  0  0  0  0  0
    5.1737    0.7617   20.0556 C   0  0  0  0  0  0  0  0  0  0  0  0
    4.6107    0.8179   20.9929 H   0  0  0  0  0  0  0  0  0  0  0  0
    6.5934   -0.5861   22.2910 N   0  0  0  0  0  0  0  0  0  0  0  0
    7.6376   -1.1191   23.0645 O   0  0  0  0  0  0  0  0  0  0  0  0
  1  2  1  0
  2  3  1  0
  2  4  2  3
  4  5  1  0
  4  6  1  0
  6  7  1  0
  6  8  1  0
  6  9  1  0
  9 10  1  0
 10 11  2  0
 11 12  1  0
 12 13  1  0
 13 14  2  0
 14 15  1  0
 14 16  1  0
 16 17  2  0
 17 18  1  0
 17 19  1  0
 19 20  1  0
 19 21  2  0
 21 22  1  0
 12 23  2  0
 23 24  1  0
 24 10  1  0
 21 13  1  0
M  END
>  <cnnaffinity>  (1) 
-4.56178

>  <filename>  (1) 
C=CCOc1nc(-c2cccnc2)no1

$$$$
