
     RDKit          3D

 36 39  0  0  0  0  0  0  0  0999 V2000
    8.0590   -4.6711   22.3379 C   0  0  0  0  0  0  0  0  0  0  0  0
    9.0428   -3.9956   22.9325 C   0  0  0  0  0  0  0  0  0  0  0  0
    9.6505   -2.7154   22.3588 C   0  0  0  0  0  0  0  0  0  0  0  0
    8.6571   -1.6699   22.0866 N   0  0  0  0  0  0  0  0  0  0  0  0
    8.4646   -1.2067   20.8277 N   0  0  0  0  0  0  0  0  0  0  0  0
    7.3290   -0.5387   20.9313 C   0  0  0  0  0  0  0  0  0  0  0  0
    6.6402    0.1071   19.8195 C   0  0  0  0  0  0  0  0  0  0  0  0
    5.4124    0.7610   20.0095 C   0  0  0  0  0  0  0  0  0  0  0  0
    4.8167    1.3741   18.9135 C   0  0  0  0  0  0  0  0  0  0  0  0
    5.4669    1.3155   17.6751 C   0  0  0  0  0  0  0  0  0  0  0  0
    6.6335    0.6786   17.4804 N   0  0  0  0  0  0  0  0  0  0  0  0
    7.2012    0.0870   18.5368 C   0  0  0  0  0  0  0  0  0  0  0  0
    8.1454   -0.4290   18.3636 H   0  0  0  0  0  0  0  0  0  0  0  0
    5.0206    1.7883   16.8027 H   0  0  0  0  0  0  0  0  0  0  0  0
    3.8682    1.8934   19.0075 H   0  0  0  0  0  0  0  0  0  0  0  0
    4.9560    0.7827   21.0012 H   0  0  0  0  0  0  0  0  0  0  0  0
    6.7879   -0.5388   22.1736 N   0  0  0  0  0  0  0  0  0  0  0  0
    7.6438   -1.2506   22.8788 C   0  0  0  0  0  0  0  0  0  0  0  0
    7.5606   -1.6541   24.3167 C   0  0  0  0  0  0  0  0  0  0  0  0
    6.4942   -2.4483   24.8260 C   0  0  0  0  0  0  0  0  0  0  0  0
    5.3365   -3.1415   24.3428 C   0  0  0  0  0  0  0  0  0  0  0  0
    4.7036   -3.7790   25.3101 N   0  0  0  0  0  0  0  0  0  0  0  0
    5.4110   -3.5204   26.4358 N   0  0  0  0  0  0  0  0  0  0  0  0
    6.4950   -2.7503   26.2078 C   0  0  0  0  0  0  0  0  0  0  0  0
    7.4100   -2.3895   27.1227 N   0  0  0  0  0  0  0  0  0  0  0  0
    8.3953   -1.6826   26.6051 C   0  0  0  0  0  0  0  0  0  0  0  0
    9.6268   -1.1401   27.7019 Cl  0  0  0  0  0  0  0  0  0  0  0  0
    8.5540   -1.3191   25.2464 C   0  0  0  0  0  0  0  0  0  0  0  0
    9.4579   -0.7850   24.9836 H   0  0  0  0  0  0  0  0  0  0  0  0
    5.1575   -3.8473   27.3561 H   0  0  0  0  0  0  0  0  0  0  0  0
    4.9723   -3.2271   23.3261 H   0  0  0  0  0  0  0  0  0  0  0  0
   10.1437   -2.8770   21.3973 H   0  0  0  0  0  0  0  0  0  0  0  0
   10.3998   -2.3170   23.0528 H   0  0  0  0  0  0  0  0  0  0  0  0
    9.4115   -4.3116   23.9139 H   0  0  0  0  0  0  0  0  0  0  0  0
    7.6557   -4.3844   21.3659 H   0  0  0  0  0  0  0  0  0  0  0  0
    7.5960   -5.5299   22.8234 H   0  0  0  0  0  0  0  0  0  0  0  0
  1  2  2  3
  2  3  1  0
  3  4  1  0
  4  5  1  0
  5  6  2  0
  6  7  1  0
  7  8  2  0
  8  9  1  0
  9 10  2  0
 10 11  1  0
 11 12  2  0
 12 13  1  0
 10 14  1  0
  9 15  1  0
  8 16  1  0
  6 17  1  0
 17 18  2  0
 18 19  1  0
 19 20  2  0
 20 21  1  0
 21 22  2  0
 22 23  1  0
 23 24  1  0
 24 25  2  0
 25 26  1  0
 26 27  1  0
 26 28  2  0
 28 29  1  0
 23 30  1  0
 21 31  1  0
  3 32  1  0
  3 33  1  0
  2 34  1  0
  1 35  1  0
  1 36  1  0
 18  4  1  0
 28 19  1  0
 12  7  1  0
 24 20  1  0
M  END
>  <cnnaffinity>  (1) 
-5.84206

>  <filename>  (1) 
C=CCn1nc(-c2cccnc2)nc1-c1cc(Cl)nc2[nH]ncc12

$$$$
