
     RDKit          3D

 46 49  0  0  0  0  0  0  0  0999 V2000
   11.7041   -0.6449   22.3408 C   0  0  0  0  0  0  0  0  0  0  0  0
   10.8817   -1.5323   22.8977 C   0  0  0  0  0  0  0  0  0  0  0  0
    9.9904   -2.4393   22.0797 C   0  0  0  0  0  0  0  0  0  0  0  0
    8.6487   -1.8762   21.8744 N   0  0  0  0  0  0  0  0  0  0  0  0
    8.3140   -1.4028   20.6483 N   0  0  0  0  0  0  0  0  0  0  0  0
    7.2352   -0.6756   20.8848 C   0  0  0  0  0  0  0  0  0  0  0  0
    6.5315    0.0534   19.8279 C   0  0  0  0  0  0  0  0  0  0  0  0
    5.3243    0.7433   20.0361 C   0  0  0  0  0  0  0  0  0  0  0  0
    4.7497    1.3979   18.9487 C   0  0  0  0  0  0  0  0  0  0  0  0
    5.4009    1.3552   17.7112 C   0  0  0  0  0  0  0  0  0  0  0  0
    6.5541    0.7023   17.5046 N   0  0  0  0  0  0  0  0  0  0  0  0
    7.1010    0.0678   18.5450 C   0  0  0  0  0  0  0  0  0  0  0  0
    8.0384   -0.4533   18.3479 H   0  0  0  0  0  0  0  0  0  0  0  0
    4.9757    1.8631   16.8486 H   0  0  0  0  0  0  0  0  0  0  0  0
    3.8197    1.9476   19.0451 H   0  0  0  0  0  0  0  0  0  0  0  0
    4.8576    0.7756   21.0231 H   0  0  0  0  0  0  0  0  0  0  0  0
    6.8623   -0.6484   22.1862 N   0  0  0  0  0  0  0  0  0  0  0  0
    7.7569   -1.4135   22.7847 C   0  0  0  0  0  0  0  0  0  0  0  0
    7.6707   -1.8610   24.2141 C   0  0  0  0  0  0  0  0  0  0  0  0
    6.6880   -3.0463   24.3967 C   0  0  0  0  0  0  0  0  0  0  0  0
    7.1372   -4.3020   23.6546 C   0  0  0  0  0  0  0  0  0  0  0  0
    8.1316   -4.6286   23.9877 H   0  0  0  0  0  0  0  0  0  0  0  0
    6.4260   -5.1153   23.8277 H   0  0  0  0  0  0  0  0  0  0  0  0
    7.1969   -4.1208   22.5781 H   0  0  0  0  0  0  0  0  0  0  0  0
    6.4537   -3.3356   25.8143 N   0  0  0  0  0  0  0  0  0  0  0  0
    7.1888   -4.1516   26.6433 C   0  0  0  0  0  0  0  0  0  0  0  0
    6.7613   -4.2052   27.8730 N   0  0  0  0  0  0  0  0  0  0  0  0
    5.6536   -3.3744   27.8906 C   0  0  0  0  0  0  0  0  0  0  0  0
    4.8002   -3.0364   28.9585 C   0  0  0  0  0  0  0  0  0  0  0  0
    3.7665   -2.1352   28.7185 C   0  0  0  0  0  0  0  0  0  0  0  0
    3.5458   -1.6075   27.4227 C   0  0  0  0  0  0  0  0  0  0  0  0
    4.3698   -1.9487   26.3499 C   0  0  0  0  0  0  0  0  0  0  0  0
    5.4358   -2.8222   26.6091 C   0  0  0  0  0  0  0  0  0  0  0  0
    4.1688   -1.5834   25.3439 H   0  0  0  0  0  0  0  0  0  0  0  0
    2.7147   -0.9240   27.2642 H   0  0  0  0  0  0  0  0  0  0  0  0
    3.1170   -1.8391   29.5398 H   0  0  0  0  0  0  0  0  0  0  0  0
    4.9714   -3.4823   29.9348 H   0  0  0  0  0  0  0  0  0  0  0  0
    8.0476   -4.7039   26.2828 H   0  0  0  0  0  0  0  0  0  0  0  0
    5.7158   -2.7323   23.9976 H   0  0  0  0  0  0  0  0  0  0  0  0
    7.3149   -1.0151   24.8067 H   0  0  0  0  0  0  0  0  0  0  0  0
    8.6545   -2.1401   24.6077 H   0  0  0  0  0  0  0  0  0  0  0  0
   10.3851   -2.5669   21.0697 H   0  0  0  0  0  0  0  0  0  0  0  0
    9.8980   -3.4290   22.5424 H   0  0  0  0  0  0  0  0  0  0  0  0
   10.7760   -1.6047   23.9813 H   0  0  0  0  0  0  0  0  0  0  0  0
   11.8371   -0.6331   21.2602 H   0  0  0  0  0  0  0  0  0  0  0  0
   12.2652    0.0802   22.9263 H   0  0  0  0  0  0  0  0  0  0  0  0
  1  2  2  3
  2  3  1  0
  3  4  1  0
  4  5  1  0
  5  6  2  0
  6  7  1  0
  7  8  2  0
  8  9  1  0
  9 10  2  0
 10 11  1  0
 11 12  2  0
 12 13  1  0
 10 14  1  0
  9 15  1  0
  8 16  1  0
  6 17  1  0
 17 18  2  0
 18 19  1  0
 19 20  1  0
 20 21  1  0
 21 22  1  0
 21 23  1  0
 21 24  1  0
 20 25  1  0
 25 26  1  0
 26 27  2  0
 27 28  1  0
 28 29  2  0
 29 30  1  0
 30 31  2  0
 31 32  1  0
 32 33  2  0
 32 34  1  0
 31 35  1  0
 30 36  1  0
 29 37  1  0
 26 38  1  0
 20 39  1  0
 19 40  1  0
 19 41  1  0
  3 42  1  0
  3 43  1  0
  2 44  1  0
  1 45  1  0
  1 46  1  0
 18  4  1  0
 33 25  1  0
 12  7  1  0
 33 28  1  0
M  END
>  <cnnaffinity>  (1) 
-6.27472

>  <filename>  (1) 
C=CCn1nc(-c2cccnc2)nc1CC(C)n1cnc2ccccc21

$$$$
