
     RDKit          3D

 40 42  0  0  0  0  0  0  0  0999 V2000
    7.7681   -4.1548   25.1531 C   0  0  0  0  0  0  0  0  0  0  0  0
    7.0937   -3.2479   24.4513 C   0  0  0  0  0  0  0  0  0  0  0  0
    7.4968   -1.8007   24.2584 C   0  0  0  0  0  0  0  0  0  0  0  0
    7.6605   -1.4101   22.8593 N   0  0  0  0  0  0  0  0  0  0  0  0
    6.6747   -0.6933   22.2569 N   0  0  0  0  0  0  0  0  0  0  0  0
    7.0804   -0.6215   21.0063 C   0  0  0  0  0  0  0  0  0  0  0  0
    6.3999    0.0899   19.9325 C   0  0  0  0  0  0  0  0  0  0  0  0
    5.1951    0.7972   20.0724 C   0  0  0  0  0  0  0  0  0  0  0  0
    4.6858    1.4295   18.9391 C   0  0  0  0  0  0  0  0  0  0  0  0
    5.3941    1.3446   17.7341 C   0  0  0  0  0  0  0  0  0  0  0  0
    6.5486    0.6774   17.5978 N   0  0  0  0  0  0  0  0  0  0  0  0
    7.0329    0.0711   18.6824 C   0  0  0  0  0  0  0  0  0  0  0  0
    7.9764   -0.4573   18.5652 H   0  0  0  0  0  0  0  0  0  0  0  0
    5.0169    1.8257   16.8349 H   0  0  0  0  0  0  0  0  0  0  0  0
    3.7590    1.9913   18.9681 H   0  0  0  0  0  0  0  0  0  0  0  0
    4.6901    0.8581   21.0395 H   0  0  0  0  0  0  0  0  0  0  0  0
    8.2513   -1.2558   20.7610 N   0  0  0  0  0  0  0  0  0  0  0  0
    8.6224   -1.6991   21.9474 C   0  0  0  0  0  0  0  0  0  0  0  0
   10.0050   -2.2330   22.1499 C   0  0  0  0  0  0  0  0  0  0  0  0
   11.0997   -1.1273   22.1298 C   0  0  0  0  0  0  0  0  0  0  0  0
   12.5050   -1.7523   21.9702 C   0  0  0  0  0  0  0  0  0  0  0  0
   12.5638   -2.7232   22.4807 H   0  0  0  0  0  0  0  0  0  0  0  0
   12.7060   -1.9309   20.9083 H   0  0  0  0  0  0  0  0  0  0  0  0
   13.2969   -1.0977   22.3573 H   0  0  0  0  0  0  0  0  0  0  0  0
   10.9816   -0.2586   23.3447 C   0  0  0  0  0  0  0  0  0  0  0  0
   10.7175   -0.5526   24.6424 C   0  0  0  0  0  0  0  0  0  0  0  0
   10.6706    0.6840   25.3637 C   0  0  0  0  0  0  0  0  0  0  0  0
   10.9510    1.6408   24.4402 C   0  0  0  0  0  0  0  0  0  0  0  0
   11.1498    1.0828   23.2182 O   0  0  0  0  0  0  0  0  0  0  0  0
   11.0589    2.7143   24.4601 H   0  0  0  0  0  0  0  0  0  0  0  0
   10.4461    0.8361   26.4136 H   0  0  0  0  0  0  0  0  0  0  0  0
   10.5363   -1.5420   25.0205 H   0  0  0  0  0  0  0  0  0  0  0  0
   10.9103   -0.4720   21.2696 H   0  0  0  0  0  0  0  0  0  0  0  0
   10.1652   -2.8895   21.2971 H   0  0  0  0  0  0  0  0  0  0  0  0
   10.0913   -2.8418   23.0551 H   0  0  0  0  0  0  0  0  0  0  0  0
    6.7126   -1.1407   24.6408 H   0  0  0  0  0  0  0  0  0  0  0  0
    8.4084   -1.5766   24.8163 H   0  0  0  0  0  0  0  0  0  0  0  0
    6.1504   -3.5245   23.9785 H   0  0  0  0  0  0  0  0  0  0  0  0
    7.4078   -5.1753   25.2663 H   0  0  0  0  0  0  0  0  0  0  0  0
    8.7089   -3.9352   25.6604 H   0  0  0  0  0  0  0  0  0  0  0  0
  1  2  2  3
  2  3  1  0
  3  4  1  0
  4  5  1  0
  5  6  2  0
  6  7  1  0
  7  8  2  0
  8  9  1  0
  9 10  2  0
 10 11  1  0
 11 12  2  0
 12 13  1  0
 10 14  1  0
  9 15  1  0
  8 16  1  0
  6 17  1  0
 17 18  2  0
 18 19  1  0
 19 20  1  0
 20 21  1  0
 21 22  1  0
 21 23  1  0
 21 24  1  0
 20 25  1  0
 25 26  2  0
 26 27  1  0
 27 28  2  0
 28 29  1  0
 28 30  1  0
 27 31  1  0
 26 32  1  0
 20 33  1  0
 19 34  1  0
 19 35  1  0
  3 36  1  0
  3 37  1  0
  2 38  1  0
  1 39  1  0
  1 40  1  0
 18  4  1  0
 29 25  1  0
 12  7  1  0
M  END
>  <cnnaffinity>  (1) 
-5.98212

>  <filename>  (1) 
C=CCn1nc(-c2cccnc2)nc1CC(C)c1ccco1

$$$$
