
     RDKit          3D

 42 45  0  0  0  0  0  0  0  0999 V2000
   12.5055    3.8339   20.9509 C   0  0  0  0  0  0  0  0  0  0  0  0
   11.7440    2.7456   20.9707 C   0  0  0  0  0  0  0  0  0  0  0  0
   11.4861    1.7823   22.1055 C   0  0  0  0  0  0  0  0  0  0  0  0
   10.0716    1.3902   22.1630 N   0  0  0  0  0  0  0  0  0  0  0  0
    9.6246    0.4256   21.3205 N   0  0  0  0  0  0  0  0  0  0  0  0
    8.3691    0.2551   21.6912 C   0  0  0  0  0  0  0  0  0  0  0  0
    7.4401   -0.6876   20.9703 C   0  0  0  0  0  0  0  0  0  0  0  0
    6.6640   -0.0309   19.8308 C   0  0  0  0  0  0  0  0  0  0  0  0
    5.4580    0.6321   20.0924 C   0  0  0  0  0  0  0  0  0  0  0  0
    4.8127    1.3052   19.0543 C   0  0  0  0  0  0  0  0  0  0  0  0
    5.3961    1.3041   17.7854 C   0  0  0  0  0  0  0  0  0  0  0  0
    6.5394    0.6609   17.5060 N   0  0  0  0  0  0  0  0  0  0  0  0
    7.1483    0.0172   18.5101 C   0  0  0  0  0  0  0  0  0  0  0  0
    8.0787   -0.4881   18.2450 H   0  0  0  0  0  0  0  0  0  0  0  0
    4.9285    1.8429   16.9615 H   0  0  0  0  0  0  0  0  0  0  0  0
    3.8854    1.8391   19.2169 H   0  0  0  0  0  0  0  0  0  0  0  0
    5.0340    0.6266   21.0992 H   0  0  0  0  0  0  0  0  0  0  0  0
    8.0339   -1.5299   20.6007 H   0  0  0  0  0  0  0  0  0  0  0  0
    6.7357   -1.0856   21.7096 H   0  0  0  0  0  0  0  0  0  0  0  0
    7.9849    1.0194   22.7400 N   0  0  0  0  0  0  0  0  0  0  0  0
    9.0591    1.7576   22.9868 C   0  0  0  0  0  0  0  0  0  0  0  0
    9.1546    2.8339   23.9950 C   0  0  0  0  0  0  0  0  0  0  0  0
    8.6255    2.5894   25.2863 C   0  0  0  0  0  0  0  0  0  0  0  0
    8.6987    3.5442   26.2994 C   0  0  0  0  0  0  0  0  0  0  0  0
    9.2911    4.7550   25.9673 C   0  0  0  0  0  0  0  0  0  0  0  0
    9.4926    5.8443   26.7615 O   0  0  0  0  0  0  0  0  0  0  0  0
   10.0743    6.7609   25.9274 C   0  0  0  0  0  0  0  0  0  0  0  0
   10.4173    8.0767   26.5307 C   0  0  0  0  0  0  0  0  0  0  0  0
   10.3240    8.8548   25.7700 H   0  0  0  0  0  0  0  0  0  0  0  0
    9.7645    8.2901   27.3817 H   0  0  0  0  0  0  0  0  0  0  0  0
   11.4582    8.0605   26.8751 H   0  0  0  0  0  0  0  0  0  0  0  0
   10.2817    6.3657   24.7193 N   0  0  0  0  0  0  0  0  0  0  0  0
    9.7889    5.0552   24.6966 C   0  0  0  0  0  0  0  0  0  0  0  0
    9.7322    4.0841   23.6939 C   0  0  0  0  0  0  0  0  0  0  0  0
   10.1177    4.3217   22.7070 H   0  0  0  0  0  0  0  0  0  0  0  0
    8.3114    3.3617   27.2961 H   0  0  0  0  0  0  0  0  0  0  0  0
    8.1491    1.6315   25.4816 H   0  0  0  0  0  0  0  0  0  0  0  0
   12.0497    0.8583   21.9458 H   0  0  0  0  0  0  0  0  0  0  0  0
   11.7912    2.1940   23.0726 H   0  0  0  0  0  0  0  0  0  0  0  0
   11.2313    2.4695   20.0559 H   0  0  0  0  0  0  0  0  0  0  0  0
   12.5722    4.3940   20.0187 H   0  0  0  0  0  0  0  0  0  0  0  0
   13.1025    4.2197   21.7762 H   0  0  0  0  0  0  0  0  0  0  0  0
  1  2  2  3
  2  3  1  0
  3  4  1  0
  4  5  1  0
  5  6  2  0
  6  7  1  0
  7  8  1  0
  8  9  2  0
  9 10  1  0
 10 11  2  0
 11 12  1  0
 12 13  2  0
 13 14  1  0
 11 15  1  0
 10 16  1  0
  9 17  1  0
  7 18  1  0
  7 19  1  0
  6 20  1  0
 20 21  2  0
 21 22  1  0
 22 23  2  0
 23 24  1  0
 24 25  2  0
 25 26  1  0
 26 27  1  0
 27 28  1  0
 28 29  1  0
 28 30  1  0
 28 31  1  0
 27 32  2  0
 32 33  1  0
 33 34  2  0
 34 35  1  0
 24 36  1  0
 23 37  1  0
  3 38  1  0
  3 39  1  0
  2 40  1  0
  1 41  1  0
  1 42  1  0
 21  4  1  0
 34 22  1  0
 13  8  1  0
 33 25  1  0
M  END
>  <cnnaffinity>  (1) 
-6.03703

>  <filename>  (1) 
C=CCn1nc(Cc2cccnc2)nc1-c1ccc2oc(C)nc2c1

$$$$
