
     RDKit          3D

 24 24  0  0  0  0  0  0  0  0999 V2000
    7.4033   -4.3614   23.8090 H   0  0  0  0  0  0  0  0  0  0  0  0
    6.6498   -5.0635   23.4534 C   0  0  0  0  0  0  0  0  0  0  0  0
    6.8571   -6.1196   23.5781 H   0  0  0  0  0  0  0  0  0  0  0  0
    5.5197   -4.6584   22.8907 C   0  0  0  0  0  0  0  0  0  0  0  0
    4.7903   -5.4009   22.5563 H   0  0  0  0  0  0  0  0  0  0  0  0
    5.2040   -3.1892   22.6873 C   0  0  0  0  0  0  0  0  0  0  0  0
    5.4240   -2.6390   23.6077 H   0  0  0  0  0  0  0  0  0  0  0  0
    4.1316   -3.0624   22.5196 H   0  0  0  0  0  0  0  0  0  0  0  0
    5.8944   -2.4653   21.5282 C   0  0  0  0  0  0  0  0  0  0  0  0
    5.7405   -2.7460   20.3616 O   0  0  0  0  0  0  0  0  0  0  0  0
    6.6994   -1.3986   21.9311 N   0  0  0  0  0  0  0  0  0  0  0  0
    7.1884   -1.5313   22.8003 H   0  0  0  0  0  0  0  0  0  0  0  0
    7.4055   -0.6325   21.0339 C   0  0  0  0  0  0  0  0  0  0  0  0
    9.0256   -0.4809   21.1889 S   0  0  0  0  0  0  0  0  0  0  0  0
    6.6131   -0.0073   19.9656 C   0  0  0  0  0  0  0  0  0  0  0  0
    7.1576   -0.0004   18.6813 C   0  0  0  0  0  0  0  0  0  0  0  0
    8.1054   -0.5084   18.5074 H   0  0  0  0  0  0  0  0  0  0  0  0
    6.5994    0.6139   17.6337 N   0  0  0  0  0  0  0  0  0  0  0  0
    5.4438    1.2605   17.8526 C   0  0  0  0  0  0  0  0  0  0  0  0
    5.0050    1.7562   16.9878 H   0  0  0  0  0  0  0  0  0  0  0  0
    4.7991    1.2960   19.0960 C   0  0  0  0  0  0  0  0  0  0  0  0
    3.8632    1.8371   19.1927 H   0  0  0  0  0  0  0  0  0  0  0  0
    5.3824    0.6368   20.1782 C   0  0  0  0  0  0  0  0  0  0  0  0
    4.9055    0.6290   21.1601 H   0  0  0  0  0  0  0  0  0  0  0  0
  1  2  1  0
  2  3  1  0
  2  4  2  3
  4  5  1  0
  4  6  1  0
  6  7  1  0
  6  8  1  0
  6  9  1  0
  9 10  2  0
  9 11  1  0
 11 12  1  0
 11 13  1  0
 13 14  2  0
 13 15  1  0
 15 16  2  0
 16 17  1  0
 16 18  1  0
 18 19  2  0
 19 20  1  0
 19 21  1  0
 21 22  1  0
 21 23  2  0
 23 24  1  0
 23 15  1  0
M  END
>  <cnnaffinity>  (1) 
-4.48342

>  <filename>  (1) 
C=CCC(=O)NC(=S)c1cccnc1

$$$$
