
     RDKit          3D

 42 45  0  0  0  0  0  0  0  0999 V2000
   10.6080   -0.6220   24.5620 C   0  0  0  0  0  0  0  0  0  0  0  0
   11.0241   -0.1674   23.3826 C   0  0  0  0  0  0  0  0  0  0  0  0
   11.1391   -0.9638   22.1060 C   0  0  0  0  0  0  0  0  0  0  0  0
   10.0442   -1.9961   21.7926 C   0  0  0  0  0  0  0  0  0  0  0  0
    8.7181   -1.4380   21.5505 N   0  0  0  0  0  0  0  0  0  0  0  0
    8.4227   -0.9424   20.3325 N   0  0  0  0  0  0  0  0  0  0  0  0
    7.1830   -0.5057   20.4656 C   0  0  0  0  0  0  0  0  0  0  0  0
    6.4627    0.1630   19.3846 C   0  0  0  0  0  0  0  0  0  0  0  0
    5.2534    0.8491   19.5745 C   0  0  0  0  0  0  0  0  0  0  0  0
    4.7234    1.5506   18.4942 C   0  0  0  0  0  0  0  0  0  0  0  0
    5.4056    1.5226   17.2727 C   0  0  0  0  0  0  0  0  0  0  0  0
    6.5396    0.8362   17.0719 N   0  0  0  0  0  0  0  0  0  0  0  0
    7.0489    0.1738   18.1113 C   0  0  0  0  0  0  0  0  0  0  0  0
    7.9743   -0.3689   17.9269 H   0  0  0  0  0  0  0  0  0  0  0  0
    5.0249    2.0722   16.4170 H   0  0  0  0  0  0  0  0  0  0  0  0
    3.8193    2.1424   18.5902 H   0  0  0  0  0  0  0  0  0  0  0  0
    4.7657    0.8448   20.5509 H   0  0  0  0  0  0  0  0  0  0  0  0
    6.6623   -0.6992   21.7010 N   0  0  0  0  0  0  0  0  0  0  0  0
    7.6415   -1.3021   22.3604 C   0  0  0  0  0  0  0  0  0  0  0  0
    7.6875   -1.8206   23.7679 C   0  0  0  0  0  0  0  0  0  0  0  0
    7.9559   -3.0910   23.9195 N   0  0  0  0  0  0  0  0  0  0  0  0
    7.8824   -3.5761   25.1968 N   0  0  0  0  0  0  0  0  0  0  0  0
    7.5549   -2.9365   26.3705 C   0  0  0  0  0  0  0  0  0  0  0  0
    7.5003   -3.5870   27.3999 O   0  0  0  0  0  0  0  0  0  0  0  0
    7.3174   -1.4786   26.1934 C   0  0  0  0  0  0  0  0  0  0  0  0
    6.9745   -0.6610   27.2808 C   0  0  0  0  0  0  0  0  0  0  0  0
    6.9436    0.7213   27.1342 C   0  0  0  0  0  0  0  0  0  0  0  0
    7.2370    1.3064   25.8886 C   0  0  0  0  0  0  0  0  0  0  0  0
    7.5074    0.5131   24.7861 C   0  0  0  0  0  0  0  0  0  0  0  0
    7.4928   -0.9025   24.9056 C   0  0  0  0  0  0  0  0  0  0  0  0
    7.7732    0.9584   23.8253 H   0  0  0  0  0  0  0  0  0  0  0  0
    7.2422    2.3909   25.7810 H   0  0  0  0  0  0  0  0  0  0  0  0
    6.7100    1.3567   27.9833 H   0  0  0  0  0  0  0  0  0  0  0  0
    6.7252   -1.1159   28.2364 H   0  0  0  0  0  0  0  0  0  0  0  0
    8.0578   -4.5577   25.3482 H   0  0  0  0  0  0  0  0  0  0  0  0
    9.9427   -2.7383   22.5843 H   0  0  0  0  0  0  0  0  0  0  0  0
   10.2944   -2.5143   20.8666 H   0  0  0  0  0  0  0  0  0  0  0  0
   12.0950   -1.5083   22.1061 H   0  0  0  0  0  0  0  0  0  0  0  0
   11.2015   -0.2815   21.2526 H   0  0  0  0  0  0  0  0  0  0  0  0
   11.3499    0.8728   23.3046 H   0  0  0  0  0  0  0  0  0  0  0  0
   10.4645   -1.6813   24.7741 H   0  0  0  0  0  0  0  0  0  0  0  0
   10.3763    0.0594   25.3773 H   0  0  0  0  0  0  0  0  0  0  0  0
  1  2  2  3
  2  3  1  0
  3  4  1  0
  4  5  1  0
  5  6  1  0
  6  7  2  0
  7  8  1  0
  8  9  2  0
  9 10  1  0
 10 11  2  0
 11 12  1  0
 12 13  2  0
 13 14  1  0
 11 15  1  0
 10 16  1  0
  9 17  1  0
  7 18  1  0
 18 19  2  0
 19 20  1  0
 20 21  2  0
 21 22  1  0
 22 23  1  0
 23 24  2  0
 23 25  1  0
 25 26  2  0
 26 27  1  0
 27 28  2  0
 28 29  1  0
 29 30  2  0
 29 31  1  0
 28 32  1  0
 27 33  1  0
 26 34  1  0
 22 35  1  0
  4 36  1  0
  4 37  1  0
  3 38  1  0
  3 39  1  0
  2 40  1  0
  1 41  1  0
  1 42  1  0
 19  5  1  0
 30 20  1  0
 13  8  1  0
 30 25  1  0
M  END
>  <cnnaffinity>  (1) 
-5.67593

>  <filename>  (1) 
C=CCCn1nc(-c2cccnc2)nc1-c1n[nH]c(=O)c2ccccc12

$$$$
