
     RDKit          3D

 40 43  0  0  0  0  0  0  0  0999 V2000
   12.5241    3.8694   21.0722 C   0  0  0  0  0  0  0  0  0  0  0  0
   11.6976    2.8259   21.0340 C   0  0  0  0  0  0  0  0  0  0  0  0
   11.4119    1.8416   22.1496 C   0  0  0  0  0  0  0  0  0  0  0  0
   12.2548    0.5570   22.1390 C   0  0  0  0  0  0  0  0  0  0  0  0
   13.3199    0.7741   22.0200 H   0  0  0  0  0  0  0  0  0  0  0  0
   12.0982    0.0178   23.0761 H   0  0  0  0  0  0  0  0  0  0  0  0
   11.9314   -0.1150   21.3417 H   0  0  0  0  0  0  0  0  0  0  0  0
    9.9623    1.5148   22.1499 N   0  0  0  0  0  0  0  0  0  0  0  0
    9.4695    0.6325   21.2452 N   0  0  0  0  0  0  0  0  0  0  0  0
    8.2647    0.3493   21.7131 C   0  0  0  0  0  0  0  0  0  0  0  0
    7.4068   -0.6474   20.9755 C   0  0  0  0  0  0  0  0  0  0  0  0
    6.6420   -0.0273   19.8160 C   0  0  0  0  0  0  0  0  0  0  0  0
    5.4382    0.6404   20.0718 C   0  0  0  0  0  0  0  0  0  0  0  0
    4.8053    1.3202   19.0320 C   0  0  0  0  0  0  0  0  0  0  0  0
    5.4022    1.3054   17.7677 C   0  0  0  0  0  0  0  0  0  0  0  0
    6.5384    0.6472   17.4911 N   0  0  0  0  0  0  0  0  0  0  0  0
    7.1298   -0.0058   18.4994 C   0  0  0  0  0  0  0  0  0  0  0  0
    8.0511   -0.5382   18.2546 H   0  0  0  0  0  0  0  0  0  0  0  0
    4.9461    1.8361   16.9352 H   0  0  0  0  0  0  0  0  0  0  0  0
    3.8784    1.8612   19.1894 H   0  0  0  0  0  0  0  0  0  0  0  0
    5.0178    0.6285   21.0797 H   0  0  0  0  0  0  0  0  0  0  0  0
    8.0673   -1.4513   20.6293 H   0  0  0  0  0  0  0  0  0  0  0  0
    6.6940   -1.0872   21.6795 H   0  0  0  0  0  0  0  0  0  0  0  0
    7.9201    1.0302   22.8294 N   0  0  0  0  0  0  0  0  0  0  0  0
    8.9856    1.8035   23.0485 C   0  0  0  0  0  0  0  0  0  0  0  0
    9.0981    2.8864   24.0220 C   0  0  0  0  0  0  0  0  0  0  0  0
    9.8012    4.0917   23.9508 C   0  0  0  0  0  0  0  0  0  0  0  0
    9.4899    4.8036   25.1222 C   0  0  0  0  0  0  0  0  0  0  0  0
    8.6091    4.0349   25.8747 C   0  0  0  0  0  0  0  0  0  0  0  0
    8.1334    4.5116   27.0519 N   0  0  0  0  0  0  0  0  0  0  0  0
    8.6665    5.6833   27.2255 C   0  0  0  0  0  0  0  0  0  0  0  0
    9.7618    6.2854   25.9900 S   0  0  0  0  0  0  0  0  0  0  0  0
    8.4711    6.2991   28.0993 H   0  0  0  0  0  0  0  0  0  0  0  0
    8.3813    2.8688   25.2026 N   0  0  0  0  0  0  0  0  0  0  0  0
    7.7032    2.1889   25.5117 H   0  0  0  0  0  0  0  0  0  0  0  0
   10.3925    4.4122   23.0955 H   0  0  0  0  0  0  0  0  0  0  0  0
   11.6310    2.3486   23.0914 H   0  0  0  0  0  0  0  0  0  0  0  0
   11.0971    2.6713   20.1443 H   0  0  0  0  0  0  0  0  0  0  0  0
   12.6043    4.5349   20.2149 H   0  0  0  0  0  0  0  0  0  0  0  0
   13.1779    4.1268   21.9076 H   0  0  0  0  0  0  0  0  0  0  0  0
  1  2  2  3
  2  3  1  0
  3  4  1  0
  4  5  1  0
  4  6  1  0
  4  7  1  0
  3  8  1  0
  8  9  1  0
  9 10  2  0
 10 11  1  0
 11 12  1  0
 12 13  2  0
 13 14  1  0
 14 15  2  0
 15 16  1  0
 16 17  2  0
 17 18  1  0
 15 19  1  0
 14 20  1  0
 13 21  1  0
 11 22  1  0
 11 23  1  0
 10 24  1  0
 24 25  2  0
 25 26  1  0
 26 27  2  0
 27 28  1  0
 28 29  2  0
 29 30  1  0
 30 31  2  0
 31 32  1  0
 31 33  1  0
 29 34  1  0
 34 35  1  0
 27 36  1  0
  3 37  1  0
  2 38  1  0
  1 39  1  0
  1 40  1  0
 25  8  1  0
 34 26  1  0
 17 12  1  0
 32 28  1  0
M  END
>  <cnnaffinity>  (1) 
-6.14963

>  <filename>  (1) 
C=CC(C)n1nc(Cc2cccnc2)nc1-c1cc2scnc2[nH]1

$$$$
