
     RDKit          3D

 45 48  0  0  0  0  0  0  0  0999 V2000
   12.5497    3.9403   21.3122 C   0  0  0  0  0  0  0  0  0  0  0  0
   11.7651    2.8746   21.1460 C   0  0  0  0  0  0  0  0  0  0  0  0
   11.4000    1.8840   22.2338 C   0  0  0  0  0  0  0  0  0  0  0  0
   12.2196    0.5764   22.2159 C   0  0  0  0  0  0  0  0  0  0  0  0
   11.9173   -0.0569   21.3688 H   0  0  0  0  0  0  0  0  0  0  0  0
   13.2938    0.7825   22.1620 H   0  0  0  0  0  0  0  0  0  0  0  0
   12.0336    0.0143   23.1402 H   0  0  0  0  0  0  0  0  0  0  0  0
    9.9494    1.5884   22.1868 N   0  0  0  0  0  0  0  0  0  0  0  0
    9.5145    0.6820   21.2819 N   0  0  0  0  0  0  0  0  0  0  0  0
    8.2807    0.4237   21.6624 C   0  0  0  0  0  0  0  0  0  0  0  0
    7.4388   -0.6019   20.9610 C   0  0  0  0  0  0  0  0  0  0  0  0
    6.6527   -0.0147   19.8037 C   0  0  0  0  0  0  0  0  0  0  0  0
    5.4495    0.6521   20.0584 C   0  0  0  0  0  0  0  0  0  0  0  0
    4.8114    1.3166   19.0105 C   0  0  0  0  0  0  0  0  0  0  0  0
    5.4067    1.2906   17.7445 C   0  0  0  0  0  0  0  0  0  0  0  0
    6.5460    0.6345   17.4711 N   0  0  0  0  0  0  0  0  0  0  0  0
    7.1411   -0.0030   18.4870 C   0  0  0  0  0  0  0  0  0  0  0  0
    8.0614   -0.5409   18.2513 H   0  0  0  0  0  0  0  0  0  0  0  0
    4.9515    1.8216   16.9112 H   0  0  0  0  0  0  0  0  0  0  0  0
    3.8890    1.8660   19.1667 H   0  0  0  0  0  0  0  0  0  0  0  0
    5.0427    0.6500   21.0728 H   0  0  0  0  0  0  0  0  0  0  0  0
    8.0989   -1.4027   20.6125 H   0  0  0  0  0  0  0  0  0  0  0  0
    6.7543   -1.0277   21.7028 H   0  0  0  0  0  0  0  0  0  0  0  0
    7.8674    1.1422   22.7249 N   0  0  0  0  0  0  0  0  0  0  0  0
    8.9169    1.9140   23.0169 C   0  0  0  0  0  0  0  0  0  0  0  0
    8.9851    2.9942   24.0596 C   0  0  0  0  0  0  0  0  0  0  0  0
    8.1639    2.9426   25.2030 C   0  0  0  0  0  0  0  0  0  0  0  0
    7.1575    2.0943   25.8049 C   0  0  0  0  0  0  0  0  0  0  0  0
    6.7908    2.6836   26.9801 C   0  0  0  0  0  0  0  0  0  0  0  0
    7.5153    3.8489   27.1432 N   0  0  0  0  0  0  0  0  0  0  0  0
    8.3475    4.0283   26.0895 C   0  0  0  0  0  0  0  0  0  0  0  0
    9.1753    5.0577   25.9364 N   0  0  0  0  0  0  0  0  0  0  0  0
    9.8813    5.0029   24.8025 C   0  0  0  0  0  0  0  0  0  0  0  0
   10.8069    6.1350   24.4901 C   0  0  0  0  0  0  0  0  0  0  0  0
   11.1141    6.6446   25.4038 H   0  0  0  0  0  0  0  0  0  0  0  0
   11.6813    5.7547   23.9570 H   0  0  0  0  0  0  0  0  0  0  0  0
   10.3032    6.8492   23.8309 H   0  0  0  0  0  0  0  0  0  0  0  0
    9.8397    4.0207   23.8888 N   0  0  0  0  0  0  0  0  0  0  0  0
    7.4507    4.5383   27.8675 H   0  0  0  0  0  0  0  0  0  0  0  0
    6.0717    2.3551   27.7227 H   0  0  0  0  0  0  0  0  0  0  0  0
    6.7714    1.1777   25.3816 H   0  0  0  0  0  0  0  0  0  0  0  0
   11.5975    2.3968   23.1791 H   0  0  0  0  0  0  0  0  0  0  0  0
   11.3529    2.6792   20.1600 H   0  0  0  0  0  0  0  0  0  0  0  0
   12.9898    4.2286   22.2687 H   0  0  0  0  0  0  0  0  0  0  0  0
   12.7777    4.6010   20.4810 H   0  0  0  0  0  0  0  0  0  0  0  0
  1  2  2  3
  2  3  1  0
  3  4  1  0
  4  5  1  0
  4  6  1  0
  4  7  1  0
  3  8  1  0
  8  9  1  0
  9 10  2  0
 10 11  1  0
 11 12  1  0
 12 13  2  0
 13 14  1  0
 14 15  2  0
 15 16  1  0
 16 17  2  0
 17 18  1  0
 15 19  1  0
 14 20  1  0
 13 21  1  0
 11 22  1  0
 11 23  1  0
 10 24  1  0
 24 25  2  0
 25 26  1  0
 26 27  2  0
 27 28  1  0
 28 29  2  0
 29 30  1  0
 30 31  1  0
 31 32  2  0
 32 33  1  0
 33 34  1  0
 34 35  1  0
 34 36  1  0
 34 37  1  0
 33 38  2  0
 30 39  1  0
 29 40  1  0
 28 41  1  0
  3 42  1  0
  2 43  1  0
  1 44  1  0
  1 45  1  0
 25  8  1  0
 38 26  1  0
 17 12  1  0
 31 27  1  0
M  END
>  <cnnaffinity>  (1) 
-6.28655

>  <filename>  (1) 
C=CC(C)n1nc(Cc2cccnc2)nc1-c1nc(C)nc2[nH]ccc12

$$$$
