
     RDKit          3D

 47 50  0  0  0  0  0  0  0  0999 V2000
   12.1986   -0.8711   22.5704 C   0  0  0  0  0  0  0  0  0  0  0  0
   12.3823    0.4208   22.8071 C   0  0  0  0  0  0  0  0  0  0  0  0
   11.3984    1.5628   22.6117 C   0  0  0  0  0  0  0  0  0  0  0  0
   11.8852    2.5031   21.5083 C   0  0  0  0  0  0  0  0  0  0  0  0
   11.9516    1.9619   20.5604 H   0  0  0  0  0  0  0  0  0  0  0  0
   11.2027    3.3462   21.3908 H   0  0  0  0  0  0  0  0  0  0  0  0
   12.8737    2.8958   21.7676 H   0  0  0  0  0  0  0  0  0  0  0  0
    9.9981    1.1713   22.3588 N   0  0  0  0  0  0  0  0  0  0  0  0
    9.6455    0.2437   21.4335 N   0  0  0  0  0  0  0  0  0  0  0  0
    8.3249    0.2512   21.4917 C   0  0  0  0  0  0  0  0  0  0  0  0
    7.4661   -0.6706   20.6747 C   0  0  0  0  0  0  0  0  0  0  0  0
    6.6979    0.0022   19.5436 C   0  0  0  0  0  0  0  0  0  0  0  0
    5.5643    0.7756   19.8341 C   0  0  0  0  0  0  0  0  0  0  0  0
    4.8936    1.4136   18.7881 C   0  0  0  0  0  0  0  0  0  0  0  0
    5.3895    1.2724   17.4893 C   0  0  0  0  0  0  0  0  0  0  0  0
    6.4715    0.5381   17.1895 N   0  0  0  0  0  0  0  0  0  0  0  0
    7.1023   -0.0735   18.1991 C   0  0  0  0  0  0  0  0  0  0  0  0
    7.9882   -0.6508   17.9232 H   0  0  0  0  0  0  0  0  0  0  0  0
    4.8987    1.7627   16.6495 H   0  0  0  0  0  0  0  0  0  0  0  0
    4.0081    2.0165   18.9608 H   0  0  0  0  0  0  0  0  0  0  0  0
    5.2348    0.8793   20.8711 H   0  0  0  0  0  0  0  0  0  0  0  0
    8.1117   -1.4670   20.2980 H   0  0  0  0  0  0  0  0  0  0  0  0
    6.7524   -1.1363   21.3667 H   0  0  0  0  0  0  0  0  0  0  0  0
    7.8030    1.1343   22.3752 N   0  0  0  0  0  0  0  0  0  0  0  0
    8.8717    1.7196   22.8902 C   0  0  0  0  0  0  0  0  0  0  0  0
    8.9237    2.8221   23.8613 C   0  0  0  0  0  0  0  0  0  0  0  0
    8.5091    2.5744   25.1813 C   0  0  0  0  0  0  0  0  0  0  0  0
    8.0891    1.3921   25.7676 N   0  0  0  0  0  0  0  0  0  0  0  0
    7.9198    1.6861   27.0276 C   0  0  0  0  0  0  0  0  0  0  0  0
    7.5144    0.7387   28.1289 C   0  0  0  0  0  0  0  0  0  0  0  0
    8.2575    0.8658   29.3438 O   0  0  0  0  0  0  0  0  0  0  0  0
    9.1951    0.6521   29.1877 H   0  0  0  0  0  0  0  0  0  0  0  0
    6.4838    0.9907   28.4027 H   0  0  0  0  0  0  0  0  0  0  0  0
    7.5082   -0.2787   27.7139 H   0  0  0  0  0  0  0  0  0  0  0  0
    8.1441    3.0045   27.3056 N   0  0  0  0  0  0  0  0  0  0  0  0
    8.5778    3.6021   26.1435 C   0  0  0  0  0  0  0  0  0  0  0  0
    9.0631    4.8784   25.8475 C   0  0  0  0  0  0  0  0  0  0  0  0
    9.4918    5.1112   24.5377 C   0  0  0  0  0  0  0  0  0  0  0  0
    9.4253    4.1058   23.5576 C   0  0  0  0  0  0  0  0  0  0  0  0
    9.7624    4.3328   22.5478 H   0  0  0  0  0  0  0  0  0  0  0  0
    9.9083    6.0777   24.2682 H   0  0  0  0  0  0  0  0  0  0  0  0
    9.1054    5.6495   26.6074 H   0  0  0  0  0  0  0  0  0  0  0  0
    8.1910    3.3909   28.2314 H   0  0  0  0  0  0  0  0  0  0  0  0
   11.3761    2.1097   23.5578 H   0  0  0  0  0  0  0  0  0  0  0  0
   13.3691    0.7875   23.1082 H   0  0  0  0  0  0  0  0  0  0  0  0
   13.0365   -1.5618   22.6134 H   0  0  0  0  0  0  0  0  0  0  0  0
   11.2289   -1.2903   22.3163 H   0  0  0  0  0  0  0  0  0  0  0  0
  1  2  2  3
  2  3  1  0
  3  4  1  0
  4  5  1  0
  4  6  1  0
  4  7  1  0
  3  8  1  0
  8  9  1  0
  9 10  2  0
 10 11  1  0
 11 12  1  0
 12 13  2  0
 13 14  1  0
 14 15  2  0
 15 16  1  0
 16 17  2  0
 17 18  1  0
 15 19  1  0
 14 20  1  0
 13 21  1  0
 11 22  1  0
 11 23  1  0
 10 24  1  0
 24 25  2  0
 25 26  1  0
 26 27  2  0
 27 28  1  0
 28 29  2  0
 29 30  1  0
 30 31  1  0
 31 32  1  0
 30 33  1  0
 30 34  1  0
 29 35  1  0
 35 36  1  0
 36 37  2  0
 37 38  1  0
 38 39  2  0
 39 40  1  0
 38 41  1  0
 37 42  1  0
 35 43  1  0
  3 44  1  0
  2 45  1  0
  1 46  1  0
  1 47  1  0
 25  8  1  0
 39 26  1  0
 17 12  1  0
 36 27  1  0
M  END
>  <cnnaffinity>  (1) 
-6.06387

>  <filename>  (1) 
C=CC(C)n1nc(Cc2cccnc2)nc1-c1cccc2[nH]c(CO)nc12

$$$$
