
     RDKit          3D

 46 49  0  0  0  0  0  0  0  0999 V2000
   10.5506   -0.6131   24.4799 C   0  0  0  0  0  0  0  0  0  0  0  0
   10.9696   -0.1759   23.2942 C   0  0  0  0  0  0  0  0  0  0  0  0
   11.0659   -1.0142   22.0434 C   0  0  0  0  0  0  0  0  0  0  0  0
    9.9200   -2.0086   21.8224 C   0  0  0  0  0  0  0  0  0  0  0  0
    8.6188   -1.4145   21.5116 N   0  0  0  0  0  0  0  0  0  0  0  0
    8.4027   -0.8960   20.2781 N   0  0  0  0  0  0  0  0  0  0  0  0
    7.1620   -0.4453   20.3576 C   0  0  0  0  0  0  0  0  0  0  0  0
    6.4855    0.2360   19.2590 C   0  0  0  0  0  0  0  0  0  0  0  0
    5.2744    0.9229   19.4261 C   0  0  0  0  0  0  0  0  0  0  0  0
    4.7564    1.6127   18.3354 C   0  0  0  0  0  0  0  0  0  0  0  0
    5.4502    1.5781   17.1222 C   0  0  0  0  0  0  0  0  0  0  0  0
    6.5923    0.8988   16.9503 N   0  0  0  0  0  0  0  0  0  0  0  0
    7.0939    0.2417   17.9995 C   0  0  0  0  0  0  0  0  0  0  0  0
    8.0146   -0.3183   17.8314 H   0  0  0  0  0  0  0  0  0  0  0  0
    5.0667    2.1083   16.2525 H   0  0  0  0  0  0  0  0  0  0  0  0
    3.8364    2.1810   18.4049 H   0  0  0  0  0  0  0  0  0  0  0  0
    4.7574    0.9139   20.3872 H   0  0  0  0  0  0  0  0  0  0  0  0
    6.5681   -0.6367   21.5549 N   0  0  0  0  0  0  0  0  0  0  0  0
    7.4846   -1.2763   22.2485 C   0  0  0  0  0  0  0  0  0  0  0  0
    7.3688   -1.6247   23.6690 C   0  0  0  0  0  0  0  0  0  0  0  0
    7.1715   -0.6169   24.5602 C   0  0  0  0  0  0  0  0  0  0  0  0
    7.4519   -0.7677   25.8960 N   0  0  0  0  0  0  0  0  0  0  0  0
    7.6047    0.4206   26.7519 C   0  0  0  0  0  0  0  0  0  0  0  0
    7.4984    1.3243   26.1473 H   0  0  0  0  0  0  0  0  0  0  0  0
    6.8584    0.4329   27.5500 H   0  0  0  0  0  0  0  0  0  0  0  0
    8.6037    0.4186   27.1952 H   0  0  0  0  0  0  0  0  0  0  0  0
    7.8575   -2.0061   26.4307 C   0  0  0  0  0  0  0  0  0  0  0  0
    8.2783   -2.0864   27.5728 O   0  0  0  0  0  0  0  0  0  0  0  0
    7.7295   -3.1821   25.5248 C   0  0  0  0  0  0  0  0  0  0  0  0
    7.8437   -4.4810   26.0505 C   0  0  0  0  0  0  0  0  0  0  0  0
    7.7555   -5.5764   25.2100 C   0  0  0  0  0  0  0  0  0  0  0  0
    7.5762   -5.3987   23.8258 C   0  0  0  0  0  0  0  0  0  0  0  0
    7.4644   -4.1271   23.2914 C   0  0  0  0  0  0  0  0  0  0  0  0
    7.5389   -2.9872   24.1403 C   0  0  0  0  0  0  0  0  0  0  0  0
    7.3328   -3.9845   22.2222 H   0  0  0  0  0  0  0  0  0  0  0  0
    7.5294   -6.2688   23.1774 H   0  0  0  0  0  0  0  0  0  0  0  0
    7.8267   -6.5744   25.6305 H   0  0  0  0  0  0  0  0  0  0  0  0
    8.0069   -4.6124   27.1184 H   0  0  0  0  0  0  0  0  0  0  0  0
    6.8187    0.3709   24.2542 H   0  0  0  0  0  0  0  0  0  0  0  0
    9.8129   -2.6413   22.7060 H   0  0  0  0  0  0  0  0  0  0  0  0
   10.1690   -2.6432   20.9749 H   0  0  0  0  0  0  0  0  0  0  0  0
   11.9852   -1.6237   22.0883 H   0  0  0  0  0  0  0  0  0  0  0  0
   11.1604   -0.3678   21.1614 H   0  0  0  0  0  0  0  0  0  0  0  0
   11.3166    0.8535   23.2121 H   0  0  0  0  0  0  0  0  0  0  0  0
   10.2263   -1.6429   24.6457 H   0  0  0  0  0  0  0  0  0  0  0  0
   10.4938    0.0412   25.3459 H   0  0  0  0  0  0  0  0  0  0  0  0
  1  2  2  3
  2  3  1  0
  3  4  1  0
  4  5  1  0
  5  6  1  0
  6  7  2  0
  7  8  1  0
  8  9  2  0
  9 10  1  0
 10 11  2  0
 11 12  1  0
 12 13  2  0
 13 14  1  0
 11 15  1  0
 10 16  1  0
  9 17  1  0
  7 18  1  0
 18 19  2  0
 19 20  1  0
 20 21  2  0
 21 22  1  0
 22 23  1  0
 23 24  1  0
 23 25  1  0
 23 26  1  0
 22 27  1  0
 27 28  2  0
 27 29  1  0
 29 30  2  0
 30 31  1  0
 31 32  2  0
 32 33  1  0
 33 34  2  0
 33 35  1  0
 32 36  1  0
 31 37  1  0
 30 38  1  0
 21 39  1  0
  4 40  1  0
  4 41  1  0
  3 42  1  0
  3 43  1  0
  2 44  1  0
  1 45  1  0
  1 46  1  0
 19  5  1  0
 34 20  1  0
 13  8  1  0
 34 29  1  0
M  END
>  <cnnaffinity>  (1) 
-6.14999

>  <filename>  (1) 
C=CCCn1nc(-c2cccnc2)nc1-c1cn(C)c(=O)c2ccccc12

$$$$
