
     RDKit          3D

 37 40  0  0  0  0  0  0  0  0999 V2000
   11.1954   -0.8493   21.6585 C   0  0  0  0  0  0  0  0  0  0  0  0
   10.7881   -2.0294   22.1151 C   0  0  0  0  0  0  0  0  0  0  0  0
    9.4518   -2.6917   21.8425 C   0  0  0  0  0  0  0  0  0  0  0  0
    8.3062   -1.8071   21.7009 N   0  0  0  0  0  0  0  0  0  0  0  0
    8.0549   -1.2612   20.4998 N   0  0  0  0  0  0  0  0  0  0  0  0
    6.8784   -0.6823   20.6638 C   0  0  0  0  0  0  0  0  0  0  0  0
    6.2627    0.0810   19.5818 C   0  0  0  0  0  0  0  0  0  0  0  0
    5.0694    0.8071   19.7086 C   0  0  0  0  0  0  0  0  0  0  0  0
    4.6501    1.5533   18.6085 C   0  0  0  0  0  0  0  0  0  0  0  0
    5.4056    1.5193   17.4288 C   0  0  0  0  0  0  0  0  0  0  0  0
    6.5391    0.8147   17.2974 N   0  0  0  0  0  0  0  0  0  0  0  0
    6.9579    0.1359   18.3649 C   0  0  0  0  0  0  0  0  0  0  0  0
    7.9132   -0.3748   18.2725 H   0  0  0  0  0  0  0  0  0  0  0  0
    5.0902    2.0722   16.5473 H   0  0  0  0  0  0  0  0  0  0  0  0
    3.7617    2.1741   18.6411 H   0  0  0  0  0  0  0  0  0  0  0  0
    4.5045    0.7921   20.6460 H   0  0  0  0  0  0  0  0  0  0  0  0
    6.3525   -0.8379   21.8996 N   0  0  0  0  0  0  0  0  0  0  0  0
    7.2796   -1.5195   22.5466 C   0  0  0  0  0  0  0  0  0  0  0  0
    7.3019   -1.9516   23.9631 C   0  0  0  0  0  0  0  0  0  0  0  0
    6.4137   -2.8133   24.5561 C   0  0  0  0  0  0  0  0  0  0  0  0
    6.5999   -3.1777   25.9293 C   0  0  0  0  0  0  0  0  0  0  0  0
    7.6687   -2.7201   26.6646 C   0  0  0  0  0  0  0  0  0  0  0  0
    8.5805   -1.8065   26.0608 C   0  0  0  0  0  0  0  0  0  0  0  0
    9.6489   -1.1915   26.5504 N   0  0  0  0  0  0  0  0  0  0  0  0
   10.0909   -0.4394   25.5220 C   0  0  0  0  0  0  0  0  0  0  0  0
   11.5215    0.5023   25.5704 Cl  0  0  0  0  0  0  0  0  0  0  0  0
    9.3097   -0.5358   24.4145 C   0  0  0  0  0  0  0  0  0  0  0  0
    8.3434   -1.4431   24.7418 N   0  0  0  0  0  0  0  0  0  0  0  0
    9.3350   -0.0293   23.4737 H   0  0  0  0  0  0  0  0  0  0  0  0
    7.8623   -3.0196   27.6859 H   0  0  0  0  0  0  0  0  0  0  0  0
    5.8678   -3.8226   26.4100 H   0  0  0  0  0  0  0  0  0  0  0  0
    5.6040   -3.2347   23.9676 H   0  0  0  0  0  0  0  0  0  0  0  0
    9.4758   -3.2469   20.8985 H   0  0  0  0  0  0  0  0  0  0  0  0
    9.2269   -3.3905   22.6499 H   0  0  0  0  0  0  0  0  0  0  0  0
   11.4789   -2.6289   22.7038 H   0  0  0  0  0  0  0  0  0  0  0  0
   10.5351   -0.2035   21.0885 H   0  0  0  0  0  0  0  0  0  0  0  0
   12.1998   -0.4767   21.8532 H   0  0  0  0  0  0  0  0  0  0  0  0
  1  2  2  3
  2  3  1  0
  3  4  1  0
  4  5  1  0
  5  6  2  0
  6  7  1  0
  7  8  2  0
  8  9  1  0
  9 10  2  0
 10 11  1  0
 11 12  2  0
 12 13  1  0
 10 14  1  0
  9 15  1  0
  8 16  1  0
  6 17  1  0
 17 18  2  0
 18 19  1  0
 19 20  2  0
 20 21  1  0
 21 22  2  0
 22 23  1  0
 23 24  2  0
 24 25  1  0
 25 26  1  0
 25 27  2  0
 27 28  1  0
 27 29  1  0
 22 30  1  0
 21 31  1  0
 20 32  1  0
  3 33  1  0
  3 34  1  0
  2 35  1  0
  1 36  1  0
  1 37  1  0
 18  4  1  0
 28 19  1  0
 12  7  1  0
 28 23  1  0
M  END
>  <cnnaffinity>  (1) 
-6.06502

>  <filename>  (1) 
C=CCn1nc(-c2cccnc2)nc1-c1cccc2nc(Cl)cn12

$$$$
