
     RDKit          3D

 46 49  0  0  0  0  0  0  0  0999 V2000
   11.6520   -0.7095   22.2200 C   0  0  0  0  0  0  0  0  0  0  0  0
   10.8952   -1.5670   22.8919 C   0  0  0  0  0  0  0  0  0  0  0  0
    9.9565   -2.5011   22.1701 C   0  0  0  0  0  0  0  0  0  0  0  0
    8.6399   -1.9128   21.9555 N   0  0  0  0  0  0  0  0  0  0  0  0
    8.3374   -1.4253   20.7300 N   0  0  0  0  0  0  0  0  0  0  0  0
    7.2710   -0.6867   20.9601 C   0  0  0  0  0  0  0  0  0  0  0  0
    6.5825    0.0340   19.9001 C   0  0  0  0  0  0  0  0  0  0  0  0
    5.3735    0.7052   20.1213 C   0  0  0  0  0  0  0  0  0  0  0  0
    4.7807    1.3483   19.0385 C   0  0  0  0  0  0  0  0  0  0  0  0
    5.4205    1.3103   17.7928 C   0  0  0  0  0  0  0  0  0  0  0  0
    6.5827    0.6751   17.5768 N   0  0  0  0  0  0  0  0  0  0  0  0
    7.1449    0.0514   18.6160 C   0  0  0  0  0  0  0  0  0  0  0  0
    8.0866   -0.4611   18.4266 H   0  0  0  0  0  0  0  0  0  0  0  0
    4.9807    1.8061   16.9292 H   0  0  0  0  0  0  0  0  0  0  0  0
    3.8426    1.8798   19.1459 H   0  0  0  0  0  0  0  0  0  0  0  0
    4.9298    0.7167   21.1196 H   0  0  0  0  0  0  0  0  0  0  0  0
    6.8724   -0.6614   22.2571 N   0  0  0  0  0  0  0  0  0  0  0  0
    7.7457   -1.4407   22.8568 C   0  0  0  0  0  0  0  0  0  0  0  0
    7.7014   -1.8837   24.2776 C   0  0  0  0  0  0  0  0  0  0  0  0
    7.0034   -3.2454   24.4232 C   0  0  0  0  0  0  0  0  0  0  0  0
    6.9829   -3.6754   25.8290 N   0  0  0  0  0  0  0  0  0  0  0  0
    8.1563   -4.2206   26.3269 C   0  0  0  0  0  0  0  0  0  0  0  0
    9.1956   -4.2218   25.6890 O   0  0  0  0  0  0  0  0  0  0  0  0
    8.1342   -4.7974   27.7326 C   0  0  0  0  0  0  0  0  0  0  0  0
    6.5631   -5.5746   28.2040 S   0  0  0  0  0  0  0  0  0  0  0  0
    5.5362   -4.1900   27.7756 C   0  0  0  0  0  0  0  0  0  0  0  0
    4.4042   -3.8875   28.5498 C   0  0  0  0  0  0  0  0  0  0  0  0
    3.5784   -2.8110   28.2160 C   0  0  0  0  0  0  0  0  0  0  0  0
    3.8757   -2.0348   27.0932 C   0  0  0  0  0  0  0  0  0  0  0  0
    4.9900   -2.3349   26.3104 C   0  0  0  0  0  0  0  0  0  0  0  0
    5.8450   -3.4036   26.6363 C   0  0  0  0  0  0  0  0  0  0  0  0
    5.2009   -1.7369   25.4307 H   0  0  0  0  0  0  0  0  0  0  0  0
    3.2368   -1.2017   26.8131 H   0  0  0  0  0  0  0  0  0  0  0  0
    2.7079   -2.5807   28.8240 H   0  0  0  0  0  0  0  0  0  0  0  0
    4.1603   -4.5009   29.4158 H   0  0  0  0  0  0  0  0  0  0  0  0
    8.3633   -3.9879   28.4211 H   0  0  0  0  0  0  0  0  0  0  0  0
    8.9428   -5.5240   27.8003 H   0  0  0  0  0  0  0  0  0  0  0  0
    7.5373   -4.0040   23.8399 H   0  0  0  0  0  0  0  0  0  0  0  0
    5.9759   -3.2249   24.0397 H   0  0  0  0  0  0  0  0  0  0  0  0
    7.1960   -1.1252   24.8859 H   0  0  0  0  0  0  0  0  0  0  0  0
    8.7147   -1.9849   24.6761 H   0  0  0  0  0  0  0  0  0  0  0  0
    9.8604   -3.4676   22.6728 H   0  0  0  0  0  0  0  0  0  0  0  0
   10.3560   -2.6606   21.1697 H   0  0  0  0  0  0  0  0  0  0  0  0
   10.8810   -1.5566   23.9850 H   0  0  0  0  0  0  0  0  0  0  0  0
   11.6400   -0.6687   21.1295 H   0  0  0  0  0  0  0  0  0  0  0  0
   12.3171   -0.0102   22.7152 H   0  0  0  0  0  0  0  0  0  0  0  0
  1  2  2  3
  2  3  1  0
  3  4  1  0
  4  5  1  0
  5  6  2  0
  6  7  1  0
  7  8  2  0
  8  9  1  0
  9 10  2  0
 10 11  1  0
 11 12  2  0
 12 13  1  0
 10 14  1  0
  9 15  1  0
  8 16  1  0
  6 17  1  0
 17 18  2  0
 18 19  1  0
 19 20  1  0
 20 21  1  0
 21 22  1  0
 22 23  2  0
 22 24  1  0
 24 25  1  0
 25 26  1  0
 26 27  2  0
 27 28  1  0
 28 29  2  0
 29 30  1  0
 30 31  2  0
 30 32  1  0
 29 33  1  0
 28 34  1  0
 27 35  1  0
 24 36  1  0
 24 37  1  0
 20 38  1  0
 20 39  1  0
 19 40  1  0
 19 41  1  0
  3 42  1  0
  3 43  1  0
  2 44  1  0
  1 45  1  0
  1 46  1  0
 18  4  1  0
 31 21  1  0
 12  7  1  0
 31 26  1  0
M  END
>  <cnnaffinity>  (1) 
-5.93627

>  <filename>  (1) 
C=CCn1nc(-c2cccnc2)nc1CCN1C(=O)CSc2ccccc21

$$$$
