
     RDKit          3D

 47 50  0  0  0  0  0  0  0  0999 V2000
   11.7835   -1.1952   22.6560 C   0  0  0  0  0  0  0  0  0  0  0  0
   12.6366   -0.1817   22.5280 C   0  0  0  0  0  0  0  0  0  0  0  0
   12.3968    1.2407   23.0137 C   0  0  0  0  0  0  0  0  0  0  0  0
   11.9778    1.2957   24.4904 C   0  0  0  0  0  0  0  0  0  0  0  0
   11.0349    0.7661   24.6604 H   0  0  0  0  0  0  0  0  0  0  0  0
   11.8375    2.3265   24.8338 H   0  0  0  0  0  0  0  0  0  0  0  0
   12.7323    0.8312   25.1329 H   0  0  0  0  0  0  0  0  0  0  0  0
   11.4148    2.0238   22.0890 C   0  0  0  0  0  0  0  0  0  0  0  0
   10.0062    1.5172   22.0243 C   0  0  0  0  0  0  0  0  0  0  0  0
    9.5456    0.6347   21.1560 N   0  0  0  0  0  0  0  0  0  0  0  0
    8.3073    0.3426   21.6323 C   0  0  0  0  0  0  0  0  0  0  0  0
    7.4124   -0.6697   20.9839 C   0  0  0  0  0  0  0  0  0  0  0  0
    6.6189   -0.0466   19.8436 C   0  0  0  0  0  0  0  0  0  0  0  0
    5.4192    0.6307   20.1022 C   0  0  0  0  0  0  0  0  0  0  0  0
    4.7844    1.3092   19.0596 C   0  0  0  0  0  0  0  0  0  0  0  0
    5.3861    1.3028   17.7975 C   0  0  0  0  0  0  0  0  0  0  0  0
    6.5368    0.6701   17.5242 N   0  0  0  0  0  0  0  0  0  0  0  0
    7.1308    0.0229   18.5340 C   0  0  0  0  0  0  0  0  0  0  0  0
    8.0904   -0.4416   18.3022 H   0  0  0  0  0  0  0  0  0  0  0  0
    4.9318    1.8411   16.9702 H   0  0  0  0  0  0  0  0  0  0  0  0
    3.8620    1.8599   19.2137 H   0  0  0  0  0  0  0  0  0  0  0  0
    5.0122    0.6580   21.1163 H   0  0  0  0  0  0  0  0  0  0  0  0
    8.0546   -1.4896   20.6450 H   0  0  0  0  0  0  0  0  0  0  0  0
    6.7530   -1.0660   21.7652 H   0  0  0  0  0  0  0  0  0  0  0  0
    7.9368    1.0375   22.6833 N   0  0  0  0  0  0  0  0  0  0  0  0
    9.0297    1.8064   22.9330 N   0  0  0  0  0  0  0  0  0  0  0  0
    9.0047    2.7872   23.9602 C   0  0  0  0  0  0  0  0  0  0  0  0
    9.3309    4.1142   23.7036 C   0  0  0  0  0  0  0  0  0  0  0  0
    9.2119    5.0660   24.7459 C   0  0  0  0  0  0  0  0  0  0  0  0
    8.7425    4.8004   25.9489 N   0  0  0  0  0  0  0  0  0  0  0  0
    8.4408    3.4883   26.2142 C   0  0  0  0  0  0  0  0  0  0  0  0
    7.9339    3.1430   27.5002 C   0  0  0  0  0  0  0  0  0  0  0  0
    7.8072    1.8160   27.8587 C   0  0  0  0  0  0  0  0  0  0  0  0
    8.1377    0.8097   26.9079 C   0  0  0  0  0  0  0  0  0  0  0  0
    8.5253    1.0700   25.6720 N   0  0  0  0  0  0  0  0  0  0  0  0
    8.6318    2.3901   25.2888 C   0  0  0  0  0  0  0  0  0  0  0  0
    8.0600   -0.2431   27.1721 H   0  0  0  0  0  0  0  0  0  0  0  0
    7.4993    1.5173   28.8585 H   0  0  0  0  0  0  0  0  0  0  0  0
    7.7637    3.9720   28.1812 H   0  0  0  0  0  0  0  0  0  0  0  0
    9.5509    6.0864   24.5785 H   0  0  0  0  0  0  0  0  0  0  0  0
    9.5842    4.4450   22.7020 H   0  0  0  0  0  0  0  0  0  0  0  0
   11.4082    3.0700   22.4044 H   0  0  0  0  0  0  0  0  0  0  0  0
   11.7909    2.0015   21.0643 H   0  0  0  0  0  0  0  0  0  0  0  0
   13.3551    1.7693   22.9217 H   0  0  0  0  0  0  0  0  0  0  0  0
   13.5795   -0.3630   22.0085 H   0  0  0  0  0  0  0  0  0  0  0  0
   12.0110   -2.1963   22.3027 H   0  0  0  0  0  0  0  0  0  0  0  0
   10.8090   -1.0497   23.1291 H   0  0  0  0  0  0  0  0  0  0  0  0
  1  2  2  3
  2  3  1  0
  3  4  1  0
  4  5  1  0
  4  6  1  0
  4  7  1  0
  3  8  1  0
  8  9  1  0
  9 10  2  0
 10 11  1  0
 11 12  1  0
 12 13  1  0
 13 14  2  0
 14 15  1  0
 15 16  2  0
 16 17  1  0
 17 18  2  0
 18 19  1  0
 16 20  1  0
 15 21  1  0
 14 22  1  0
 12 23  1  0
 12 24  1  0
 11 25  2  0
 25 26  1  0
 26 27  1  0
 27 28  2  0
 28 29  1  0
 29 30  2  0
 30 31  1  0
 31 32  2  0
 32 33  1  0
 33 34  2  0
 34 35  1  0
 35 36  2  0
 34 37  1  0
 33 38  1  0
 32 39  1  0
 29 40  1  0
 28 41  1  0
  8 42  1  0
  8 43  1  0
  3 44  1  0
  2 45  1  0
  1 46  1  0
  1 47  1  0
 26  9  1  0
 36 27  1  0
 18 13  1  0
 36 31  1  0
M  END
>  <cnnaffinity>  (1) 
-5.91308

>  <filename>  (1) 
C=CC(C)Cc1nc(Cc2cccnc2)nn1-c1ccnc2cccnc12

$$$$
