
     RDKit          3D

 27 28  0  0  0  0  0  0  0  0999 V2000
   10.0655   -1.5417   22.7946 H   0  0  0  0  0  0  0  0  0  0  0  0
    9.0776   -1.3319   22.3986 C   0  0  0  0  0  0  0  0  0  0  0  0
    7.9179   -1.7691   22.8992 C   0  0  0  0  0  0  0  0  0  0  0  0
    7.6736   -2.5448   24.1726 C   0  0  0  0  0  0  0  0  0  0  0  0
    6.8033   -2.1575   24.7209 H   0  0  0  0  0  0  0  0  0  0  0  0
    8.5358   -2.4081   24.8477 H   0  0  0  0  0  0  0  0  0  0  0  0
    7.4863   -4.0249   23.8802 C   0  0  0  0  0  0  0  0  0  0  0  0
    6.4886   -4.4418   24.0173 H   0  0  0  0  0  0  0  0  0  0  0  0
    8.4769   -4.7958   23.4411 C   0  0  0  0  0  0  0  0  0  0  0  0
    9.4785   -4.3949   23.2910 H   0  0  0  0  0  0  0  0  0  0  0  0
    8.3456   -5.8496   23.2187 H   0  0  0  0  0  0  0  0  0  0  0  0
    6.8499   -1.5194   21.8883 C   0  0  0  0  0  0  0  0  0  0  0  0
    5.7553   -2.0352   21.7936 O   0  0  0  0  0  0  0  0  0  0  0  0
    7.4296   -0.6455   20.9495 N   0  0  0  0  0  0  0  0  0  0  0  0
    6.7146    0.0128   19.9156 C   0  0  0  0  0  0  0  0  0  0  0  0
    7.2102    0.0654   18.5899 C   0  0  0  0  0  0  0  0  0  0  0  0
    8.1504   -0.4233   18.3413 H   0  0  0  0  0  0  0  0  0  0  0  0
    6.5747    0.6668   17.5766 N   0  0  0  0  0  0  0  0  0  0  0  0
    5.4130    1.2792   17.8471 C   0  0  0  0  0  0  0  0  0  0  0  0
    4.9343    1.7845   17.0123 H   0  0  0  0  0  0  0  0  0  0  0  0
    4.8296    1.2894   19.1186 C   0  0  0  0  0  0  0  0  0  0  0  0
    3.8942    1.8179   19.2712 H   0  0  0  0  0  0  0  0  0  0  0  0
    5.4792    0.6322   20.1694 C   0  0  0  0  0  0  0  0  0  0  0  0
    5.0396    0.5855   21.1652 H   0  0  0  0  0  0  0  0  0  0  0  0
    8.8859   -0.6431   21.0815 C   0  0  0  0  0  0  0  0  0  0  0  0
    9.3366    0.3573   21.0561 H   0  0  0  0  0  0  0  0  0  0  0  0
    9.3630   -1.2126   20.2692 H   0  0  0  0  0  0  0  0  0  0  0  0
  1  2  1  0
  2  3  2  0
  3  4  1  0
  4  5  1  0
  4  6  1  0
  4  7  1  0
  7  8  1  0
  7  9  2  3
  9 10  1  0
  9 11  1  0
  3 12  1  0
 12 13  2  0
 12 14  1  0
 14 15  1  0
 15 16  2  0
 16 17  1  0
 16 18  1  0
 18 19  2  0
 19 20  1  0
 19 21  1  0
 21 22  1  0
 21 23  2  0
 23 24  1  0
 14 25  1  0
 25 26  1  0
 25 27  1  0
 25  2  1  0
 23 15  1  0
M  END
>  <cnnaffinity>  (1) 
-4.55799

>  <filename>  (1) 
C=CCC1=CCN(c2cccnc2)C1=O

$$$$
