
     RDKit          3D

 28 28  0  0  0  0  0  0  0  0999 V2000
   11.5130   -2.4168   22.0204 H   0  0  0  0  0  0  0  0  0  0  0  0
   11.1710   -2.7858   22.9875 C   0  0  0  0  0  0  0  0  0  0  0  0
   11.4850   -3.7831   23.2690 H   0  0  0  0  0  0  0  0  0  0  0  0
   10.4409   -2.0677   23.8307 C   0  0  0  0  0  0  0  0  0  0  0  0
   10.1584   -2.4775   24.8009 H   0  0  0  0  0  0  0  0  0  0  0  0
    9.9156   -0.6883   23.5949 C   0  0  0  0  0  0  0  0  0  0  0  0
    9.9880   -0.4247   22.5243 H   0  0  0  0  0  0  0  0  0  0  0  0
   10.4810    0.0510   24.1741 H   0  0  0  0  0  0  0  0  0  0  0  0
    8.5815   -0.6188   24.0738 O   0  0  0  0  0  0  0  0  0  0  0  0
    7.6115   -1.2024   23.2079 C   0  0  2  0  0  0  0  0  0  0  0  0
    8.0563   -1.9933   22.5867 H   0  0  0  0  0  0  0  0  0  0  0  0
    7.0524   -0.1426   22.2337 C   0  0  0  0  0  0  0  0  0  0  0  0
    6.5856    0.9205   22.5423 O   0  0  0  0  0  0  0  0  0  0  0  0
    7.1648   -0.5937   20.9383 O   0  0  0  0  0  0  0  0  0  0  0  0
    6.5401    0.0604   19.8725 C   0  0  0  0  0  0  0  0  0  0  0  0
    7.1472    0.0185   18.6028 C   0  0  0  0  0  0  0  0  0  0  0  0
    8.0794   -0.5303   18.4538 H   0  0  0  0  0  0  0  0  0  0  0  0
    6.6274    0.6280   17.5269 N   0  0  0  0  0  0  0  0  0  0  0  0
    5.4624    1.2841   17.6790 C   0  0  0  0  0  0  0  0  0  0  0  0
    5.0789    1.7901   16.7936 H   0  0  0  0  0  0  0  0  0  0  0  0
    4.7602    1.3176   18.8831 C   0  0  0  0  0  0  0  0  0  0  0  0
    3.8185    1.8545   18.9482 H   0  0  0  0  0  0  0  0  0  0  0  0
    5.2995    0.6907   20.0124 C   0  0  0  0  0  0  0  0  0  0  0  0
    4.7920    0.6935   20.9716 H   0  0  0  0  0  0  0  0  0  0  0  0
    6.5597   -1.8547   24.1004 C   0  0  0  0  0  0  0  0  0  0  0  0
    7.0720   -2.5815   24.7382 H   0  0  0  0  0  0  0  0  0  0  0  0
    5.8192   -2.3971   23.5049 H   0  0  0  0  0  0  0  0  0  0  0  0
    6.0619   -1.1258   24.7456 H   0  0  0  0  0  0  0  0  0  0  0  0
  1  2  1  0
  2  3  1  0
  2  4  2  3
  4  5  1  0
  4  6  1  0
  6  7  1  0
  6  8  1  0
  6  9  1  0
  9 10  1  0
 10 11  1  6
 10 12  1  0
 12 13  2  0
 12 14  1  0
 14 15  1  0
 15 16  2  0
 16 17  1  0
 16 18  1  0
 18 19  2  0
 19 20  1  0
 19 21  1  0
 21 22  1  0
 21 23  2  0
 23 24  1  0
 10 25  1  0
 25 26  1  0
 25 27  1  0
 25 28  1  0
 23 15  1  0
M  END
>  <cnnaffinity>  (1) 
-4.17059

>  <filename>  (1) 
C=CCO[C@@H](C)C(=O)Oc1cccnc1

$$$$
