
     RDKit          3D

 33 35  0  0  0  0  0  0  0  0999 V2000
   13.5479    4.2464   23.0949 H   0  0  0  0  0  0  0  0  0  0  0  0
   12.9826    3.3932   22.7270 C   0  0  0  0  0  0  0  0  0  0  0  0
   12.1495    3.6234   22.0608 H   0  0  0  0  0  0  0  0  0  0  0  0
   13.3489    2.1602   23.0696 C   0  0  0  0  0  0  0  0  0  0  0  0
   14.1844    1.9861   23.7285 H   0  0  0  0  0  0  0  0  0  0  0  0
   12.8401    0.8287   22.6361 C   0  0  0  0  0  0  0  0  0  0  0  0
   13.5287   -0.1652   22.7927 O   0  0  0  0  0  0  0  0  0  0  0  0
   11.5995    0.8061   22.0805 N   0  0  0  0  0  0  0  0  0  0  0  0
   11.0446    1.6372   22.1862 H   0  0  0  0  0  0  0  0  0  0  0  0
   10.9058   -0.4172   21.7272 C   0  0  1  0  0  0  0  0  0  0  0  0
   11.6358   -1.1211   21.3177 H   0  0  0  0  0  0  0  0  0  0  0  0
   10.2094   -1.1156   22.9489 C   0  0  0  0  0  0  0  0  0  0  0  0
   10.6160   -2.1194   23.1160 H   0  0  0  0  0  0  0  0  0  0  0  0
   10.3525   -0.5436   23.8704 H   0  0  0  0  0  0  0  0  0  0  0  0
    8.7669   -1.1514   22.5400 C   0  0  0  0  0  0  0  0  0  0  0  0
    7.6568   -1.6097   23.0915 N   0  0  0  0  0  0  0  0  0  0  0  0
    6.6965   -1.2718   22.1868 N   0  0  0  0  0  0  0  0  0  0  0  0
    5.7485   -1.5750   22.3654 H   0  0  0  0  0  0  0  0  0  0  0  0
    7.1861   -0.6323   21.0770 C   0  0  0  0  0  0  0  0  0  0  0  0
    6.4318   -0.0192   19.9629 C   0  0  0  0  0  0  0  0  0  0  0  0
    7.0366    0.0030   18.6889 C   0  0  0  0  0  0  0  0  0  0  0  0
    7.9700   -0.5328   18.5271 H   0  0  0  0  0  0  0  0  0  0  0  0
    6.5389    0.6302   17.6151 N   0  0  0  0  0  0  0  0  0  0  0  0
    5.3932    1.3068   17.7825 C   0  0  0  0  0  0  0  0  0  0  0  0
    5.0150    1.8400   16.9113 H   0  0  0  0  0  0  0  0  0  0  0  0
    4.6959    1.3453   18.9951 C   0  0  0  0  0  0  0  0  0  0  0  0
    3.7810    1.9222   19.0631 H   0  0  0  0  0  0  0  0  0  0  0  0
    5.2140    0.6695   20.1040 C   0  0  0  0  0  0  0  0  0  0  0  0
    4.7007    0.6989   21.0665 H   0  0  0  0  0  0  0  0  0  0  0  0
    8.5435   -0.5853   21.2940 C   0  0  0  0  0  0  0  0  0  0  0  0
    9.8100   -0.1127   20.6624 C   0  0  0  0  0  0  0  0  0  0  0  0
    9.7719    0.9550   20.4009 H   0  0  0  0  0  0  0  0  0  0  0  0
   10.0117   -0.6591   19.7392 H   0  0  0  0  0  0  0  0  0  0  0  0
  1  2  1  0
  2  3  1  0
  2  4  2  3
  4  5  1  0
  4  6  1  0
  6  7  2  0
  6  8  1  0
  8  9  1  0
  8 10  1  0
 10 11  1  6
 10 12  1  0
 12 13  1  0
 12 14  1  0
 12 15  1  0
 15 16  2  0
 16 17  1  0
 17 18  1  0
 17 19  1  0
 19 20  1  0
 20 21  2  0
 21 22  1  0
 21 23  1  0
 23 24  2  0
 24 25  1  0
 24 26  1  0
 26 27  1  0
 26 28  2  0
 28 29  1  0
 19 30  2  0
 30 31  1  0
 31 32  1  0
 31 33  1  0
 31 10  1  0
 30 15  1  0
 28 20  1  0
M  END
>  <cnnaffinity>  (1) 
-5.02662

>  <filename>  (1) 
C=CC(=O)N[C@H]1Cc2n[nH]c(-c3cccnc3)c2C1

$$$$
