
     RDKit          3D

 42 45  0  0  0  0  0  0  0  0999 V2000
   13.4166    2.0096   23.4797 C   0  0  0  0  0  0  0  0  0  0  0  0
   12.1172    1.6181   23.3029 C   0  0  0  0  0  0  0  0  0  0  0  0
   11.4008    1.9363   22.0263 C   0  0  0  0  0  0  0  0  0  0  0  0
   10.0220    1.4305   22.0582 N   0  0  0  0  0  0  0  0  0  0  0  0
    9.5788    0.4430   21.2460 N   0  0  0  0  0  0  0  0  0  0  0  0
    8.3404    0.2962   21.6505 C   0  0  0  0  0  0  0  0  0  0  0  0
    7.4109   -0.6791   20.9955 C   0  0  0  0  0  0  0  0  0  0  0  0
    6.6513    0.0022   19.8805 C   0  0  0  0  0  0  0  0  0  0  0  0
    5.4424    0.6423   20.1569 C   0  0  0  0  0  0  0  0  0  0  0  0
    4.8167    1.3040   19.0996 C   0  0  0  0  0  0  0  0  0  0  0  0
    5.4000    1.2959   17.8214 C   0  0  0  0  0  0  0  0  0  0  0  0
    6.5632    0.6760   17.5517 N   0  0  0  0  0  0  0  0  0  0  0  0
    7.1733    0.0511   18.5729 C   0  0  0  0  0  0  0  0  0  0  0  0
    8.1268   -0.4333   18.3950 H   0  0  0  0  0  0  0  0  0  0  0  0
    4.8840    1.8011   17.0111 H   0  0  0  0  0  0  0  0  0  0  0  0
    3.8827    1.8323   19.2593 H   0  0  0  0  0  0  0  0  0  0  0  0
    5.0153    0.6381   21.1646 H   0  0  0  0  0  0  0  0  0  0  0  0
    6.7121   -1.0765   21.7392 H   0  0  0  0  0  0  0  0  0  0  0  0
    7.9923   -1.5142   20.5952 H   0  0  0  0  0  0  0  0  0  0  0  0
    7.9438    1.1209   22.6863 N   0  0  0  0  0  0  0  0  0  0  0  0
    9.0096    1.8315   22.9241 C   0  0  0  0  0  0  0  0  0  0  0  0
    9.0389    2.8581   23.9685 C   0  0  0  0  0  0  0  0  0  0  0  0
    8.0966    3.0280   24.9462 C   0  0  0  0  0  0  0  0  0  0  0  0
    6.8290    2.3605   25.3186 C   0  0  0  0  0  0  0  0  0  0  0  0
    6.4029    3.2020   26.5514 C   0  0  0  0  0  0  0  0  0  0  0  0
    7.4592    4.3156   26.7947 C   0  0  0  0  0  0  0  0  0  0  0  0
    8.4271    4.0626   25.7431 N   0  0  0  0  0  0  0  0  0  0  0  0
    9.6087    4.6472   25.3145 C   0  0  0  0  0  0  0  0  0  0  0  0
   10.4625    6.1624   26.1188 Br  0  0  0  0  0  0  0  0  0  0  0  0
   10.0277    3.9200   24.2137 C   0  0  0  0  0  0  0  0  0  0  0  0
   10.9224    4.1183   23.6277 H   0  0  0  0  0  0  0  0  0  0  0  0
    7.0210    5.3109   26.6949 H   0  0  0  0  0  0  0  0  0  0  0  0
    7.9155    4.2232   27.7815 H   0  0  0  0  0  0  0  0  0  0  0  0
    6.3240    2.5606   27.4327 H   0  0  0  0  0  0  0  0  0  0  0  0
    5.4195    3.6466   26.3805 H   0  0  0  0  0  0  0  0  0  0  0  0
    6.1035    2.4240   24.5029 H   0  0  0  0  0  0  0  0  0  0  0  0
    6.9984    1.3103   25.5723 H   0  0  0  0  0  0  0  0  0  0  0  0
   11.4322    3.0124   21.8368 H   0  0  0  0  0  0  0  0  0  0  0  0
   11.9322    1.4524   21.2038 H   0  0  0  0  0  0  0  0  0  0  0  0
   11.6244    1.0471   24.0882 H   0  0  0  0  0  0  0  0  0  0  0  0
   13.9750    2.5678   22.7305 H   0  0  0  0  0  0  0  0  0  0  0  0
   13.9118    1.7405   24.3982 H   0  0  0  0  0  0  0  0  0  0  0  0
  1  2  2  3
  2  3  1  0
  3  4  1  0
  4  5  1  0
  5  6  2  0
  6  7  1  0
  7  8  1  0
  8  9  2  0
  9 10  1  0
 10 11  2  0
 11 12  1  0
 12 13  2  0
 13 14  1  0
 11 15  1  0
 10 16  1  0
  9 17  1  0
  7 18  1  0
  7 19  1  0
  6 20  1  0
 20 21  2  0
 21 22  1  0
 22 23  2  0
 23 24  1  0
 24 25  1  0
 25 26  1  0
 26 27  1  0
 27 28  1  0
 28 29  1  0
 28 30  2  0
 30 31  1  0
 26 32  1  0
 26 33  1  0
 25 34  1  0
 25 35  1  0
 24 36  1  0
 24 37  1  0
  3 38  1  0
  3 39  1  0
  2 40  1  0
  1 41  1  0
  1 42  1  0
 21  4  1  0
 30 22  1  0
 13  8  1  0
 27 23  1  0
M  END
>  <cnnaffinity>  (1) 
-5.90763

>  <filename>  (1) 
C=CCn1nc(Cc2cccnc2)nc1-c1cc(Br)n2c1CCC2

$$$$
