
     RDKit          3D

 44 47  0  0  0  0  0  0  0  0999 V2000
   11.6493   -0.6668   22.2934 C   0  0  0  0  0  0  0  0  0  0  0  0
   10.8830   -1.5498   22.9192 C   0  0  0  0  0  0  0  0  0  0  0  0
    9.9728   -2.4825   22.1443 C   0  0  0  0  0  0  0  0  0  0  0  0
    8.6431   -1.9283   21.9124 N   0  0  0  0  0  0  0  0  0  0  0  0
    8.3322   -1.4495   20.6861 N   0  0  0  0  0  0  0  0  0  0  0  0
    7.2486   -0.7335   20.9136 C   0  0  0  0  0  0  0  0  0  0  0  0
    6.5650    0.0144   19.8637 C   0  0  0  0  0  0  0  0  0  0  0  0
    5.3656    0.7020   20.0922 C   0  0  0  0  0  0  0  0  0  0  0  0
    4.7753    1.3584   19.0125 C   0  0  0  0  0  0  0  0  0  0  0  0
    5.4147    1.3262   17.7666 C   0  0  0  0  0  0  0  0  0  0  0  0
    6.5746    0.6902   17.5465 N   0  0  0  0  0  0  0  0  0  0  0  0
    7.1323    0.0529   18.5813 C   0  0  0  0  0  0  0  0  0  0  0  0
    8.0746   -0.4529   18.3822 H   0  0  0  0  0  0  0  0  0  0  0  0
    4.9734    1.8261   16.9042 H   0  0  0  0  0  0  0  0  0  0  0  0
    3.8396    1.8941   19.1236 H   0  0  0  0  0  0  0  0  0  0  0  0
    4.9235    0.7213   21.0911 H   0  0  0  0  0  0  0  0  0  0  0  0
    6.8465   -0.7258   22.2098 N   0  0  0  0  0  0  0  0  0  0  0  0
    7.7452   -1.4777   22.8213 C   0  0  0  0  0  0  0  0  0  0  0  0
    7.7964   -1.8938   24.2859 C   0  0  0  0  0  0  0  0  0  0  0  0
    7.0956   -3.2529   24.5256 C   0  0  0  0  0  0  0  0  0  0  0  0
    5.5805   -3.0760   24.4288 C   0  0  0  0  0  0  0  0  0  0  0  0
    5.0707   -2.1138   25.5127 C   0  0  0  0  0  0  0  0  0  0  0  0
    5.9156   -0.8532   25.6776 C   0  0  0  0  0  0  0  0  0  0  0  0
    5.4053    0.2589   26.3738 C   0  0  0  0  0  0  0  0  0  0  0  0
    6.1807    1.4040   26.5750 C   0  0  0  0  0  0  0  0  0  0  0  0
    7.4915    1.4544   26.0865 C   0  0  0  0  0  0  0  0  0  0  0  0
    8.0036    0.3620   25.3887 C   0  0  0  0  0  0  0  0  0  0  0  0
    7.2277   -0.7901   25.1725 C   0  0  0  0  0  0  0  0  0  0  0  0
    9.0094    0.4075   24.9731 H   0  0  0  0  0  0  0  0  0  0  0  0
    8.1034    2.3401   26.2363 H   0  0  0  0  0  0  0  0  0  0  0  0
    5.7696    2.2543   27.1138 H   0  0  0  0  0  0  0  0  0  0  0  0
    4.3877    0.2268   26.7594 H   0  0  0  0  0  0  0  0  0  0  0  0
    5.0520   -2.6386   26.4796 H   0  0  0  0  0  0  0  0  0  0  0  0
    4.0298   -1.8378   25.3021 H   0  0  0  0  0  0  0  0  0  0  0  0
    5.0667   -4.0396   24.5112 H   0  0  0  0  0  0  0  0  0  0  0  0
    5.3496   -2.6704   23.4363 H   0  0  0  0  0  0  0  0  0  0  0  0
    7.3739   -3.6177   25.5227 H   0  0  0  0  0  0  0  0  0  0  0  0
    7.4580   -3.9900   23.7989 H   0  0  0  0  0  0  0  0  0  0  0  0
    8.8575   -2.0006   24.5500 H   0  0  0  0  0  0  0  0  0  0  0  0
    9.8804   -3.4646   22.6187 H   0  0  0  0  0  0  0  0  0  0  0  0
   10.3848   -2.6146   21.1427 H   0  0  0  0  0  0  0  0  0  0  0  0
   10.8435   -1.5872   24.0134 H   0  0  0  0  0  0  0  0  0  0  0  0
   11.6736   -0.6189   21.2044 H   0  0  0  0  0  0  0  0  0  0  0  0
   12.2857    0.0326   22.8276 H   0  0  0  0  0  0  0  0  0  0  0  0
  1  2  2  3
  2  3  1  0
  3  4  1  0
  4  5  1  0
  5  6  2  0
  6  7  1  0
  7  8  2  0
  8  9  1  0
  9 10  2  0
 10 11  1  0
 11 12  2  0
 12 13  1  0
 10 14  1  0
  9 15  1  0
  8 16  1  0
  6 17  1  0
 17 18  2  0
 18 19  1  0
 19 20  1  0
 20 21  1  0
 21 22  1  0
 22 23  1  0
 23 24  2  0
 24 25  1  0
 25 26  2  0
 26 27  1  0
 27 28  2  0
 27 29  1  0
 26 30  1  0
 25 31  1  0
 24 32  1  0
 22 33  1  0
 22 34  1  0
 21 35  1  0
 21 36  1  0
 20 37  1  0
 20 38  1  0
 19 39  1  0
  3 40  1  0
  3 41  1  0
  2 42  1  0
  1 43  1  0
  1 44  1  0
 18  4  1  0
 28 19  1  0
 12  7  1  0
 28 23  1  0
M  END
>  <cnnaffinity>  (1) 
-5.96799

>  <filename>  (1) 
C=CCn1nc(-c2cccnc2)nc1C1CCCc2ccccc21

$$$$
