
     RDKit          3D

 46 49  0  0  0  0  0  0  0  0999 V2000
   14.5505    0.9084   22.6178 C   0  0  0  0  0  0  0  0  0  0  0  0
   13.5341    1.5152   23.2202 C   0  0  0  0  0  0  0  0  0  0  0  0
   12.1124    1.0418   23.1909 C   0  0  0  0  0  0  0  0  0  0  0  0
   11.3422    1.9052   22.1726 C   0  0  0  0  0  0  0  0  0  0  0  0
    9.9239    1.5772   22.1054 N   0  0  0  0  0  0  0  0  0  0  0  0
    9.5069    0.6468   21.2116 N   0  0  0  0  0  0  0  0  0  0  0  0
    8.3181    0.3081   21.6677 C   0  0  0  0  0  0  0  0  0  0  0  0
    7.4463   -0.6679   20.9347 C   0  0  0  0  0  0  0  0  0  0  0  0
    6.6670   -0.0306   19.7942 C   0  0  0  0  0  0  0  0  0  0  0  0
    5.4699    0.6388   20.0675 C   0  0  0  0  0  0  0  0  0  0  0  0
    4.8242    1.3176   19.0341 C   0  0  0  0  0  0  0  0  0  0  0  0
    5.4050    1.3016   17.7608 C   0  0  0  0  0  0  0  0  0  0  0  0
    6.5375    0.6448   17.4700 N   0  0  0  0  0  0  0  0  0  0  0  0
    7.1410   -0.0081   18.4707 C   0  0  0  0  0  0  0  0  0  0  0  0
    8.0522   -0.5499   18.2119 H   0  0  0  0  0  0  0  0  0  0  0  0
    4.9337    1.8209   16.9305 H   0  0  0  0  0  0  0  0  0  0  0  0
    3.8985    1.8551   19.2009 H   0  0  0  0  0  0  0  0  0  0  0  0
    5.0639    0.6174   21.0824 H   0  0  0  0  0  0  0  0  0  0  0  0
    8.0873   -1.4764   20.5722 H   0  0  0  0  0  0  0  0  0  0  0  0
    6.7559   -1.0968   21.6671 H   0  0  0  0  0  0  0  0  0  0  0  0
    7.9557    0.9184   22.8237 N   0  0  0  0  0  0  0  0  0  0  0  0
    8.9629    1.7486   23.0503 C   0  0  0  0  0  0  0  0  0  0  0  0
    9.0170    2.7634   24.1143 C   0  0  0  0  0  0  0  0  0  0  0  0
    8.9150    2.3676   25.4049 C   0  0  0  0  0  0  0  0  0  0  0  0
    9.0053    3.3065   26.4046 N   0  0  0  0  0  0  0  0  0  0  0  0
    9.2796    4.6562   26.2496 C   0  0  0  0  0  0  0  0  0  0  0  0
    9.4152    5.3276   27.2602 O   0  0  0  0  0  0  0  0  0  0  0  0
    9.3575    5.1090   24.8487 C   0  0  0  0  0  0  0  0  0  0  0  0
    9.5944    6.4641   24.5755 C   0  0  0  0  0  0  0  0  0  0  0  0
    9.4949    6.9330   23.2801 C   0  0  0  0  0  0  0  0  0  0  0  0
    9.1411    6.0575   22.2318 C   0  0  0  0  0  0  0  0  0  0  0  0
    8.9544    4.7079   22.4842 C   0  0  0  0  0  0  0  0  0  0  0  0
    9.1213    4.1875   23.7957 C   0  0  0  0  0  0  0  0  0  0  0  0
    8.6815    4.0292   21.6785 H   0  0  0  0  0  0  0  0  0  0  0  0
    9.0201    6.4524   21.2250 H   0  0  0  0  0  0  0  0  0  0  0  0
    9.6668    7.9814   23.0853 H   0  0  0  0  0  0  0  0  0  0  0  0
    9.8252    7.1252   25.4099 H   0  0  0  0  0  0  0  0  0  0  0  0
    8.9654    3.0974   27.3879 H   0  0  0  0  0  0  0  0  0  0  0  0
    8.7705    1.3275   25.6985 H   0  0  0  0  0  0  0  0  0  0  0  0
   11.7311    1.7616   21.1612 H   0  0  0  0  0  0  0  0  0  0  0  0
   11.4397    2.9643   22.4278 H   0  0  0  0  0  0  0  0  0  0  0  0
   12.0563   -0.0125   22.8978 H   0  0  0  0  0  0  0  0  0  0  0  0
   11.6397    1.1238   24.1792 H   0  0  0  0  0  0  0  0  0  0  0  0
   13.6903    2.4902   23.6883 H   0  0  0  0  0  0  0  0  0  0  0  0
   15.4993    1.4233   22.5005 H   0  0  0  0  0  0  0  0  0  0  0  0
   14.4681   -0.0867   22.1820 H   0  0  0  0  0  0  0  0  0  0  0  0
  1  2  2  3
  2  3  1  0
  3  4  1  0
  4  5  1  0
  5  6  1  0
  6  7  2  0
  7  8  1  0
  8  9  1  0
  9 10  2  0
 10 11  1  0
 11 12  2  0
 12 13  1  0
 13 14  2  0
 14 15  1  0
 12 16  1  0
 11 17  1  0
 10 18  1  0
  8 19  1  0
  8 20  1  0
  7 21  1  0
 21 22  2  0
 22 23  1  0
 23 24  2  0
 24 25  1  0
 25 26  1  0
 26 27  2  0
 26 28  1  0
 28 29  2  0
 29 30  1  0
 30 31  2  0
 31 32  1  0
 32 33  2  0
 32 34  1  0
 31 35  1  0
 30 36  1  0
 29 37  1  0
 25 38  1  0
 24 39  1  0
  4 40  1  0
  4 41  1  0
  3 42  1  0
  3 43  1  0
  2 44  1  0
  1 45  1  0
  1 46  1  0
 22  5  1  0
 33 23  1  0
 14  9  1  0
 33 28  1  0
M  END
>  <cnnaffinity>  (1) 
-5.64739

>  <filename>  (1) 
C=CCCn1nc(Cc2cccnc2)nc1-c1c[nH]c(=O)c2ccccc12

$$$$
