
     RDKit          3D

 50 53  0  0  0  0  0  0  0  0999 V2000
   13.0337   -1.8970   20.7368 C   0  0  0  0  0  0  0  0  0  0  0  0
   11.2661   -1.8560   22.7725 C   0  0  0  0  0  0  0  0  0  0  0  0
   10.0733   -2.4568   21.9639 C   0  0  0  0  0  0  0  0  0  0  0  0
    8.8097   -1.7237   21.9093 N   0  0  0  0  0  0  0  0  0  0  0  0
    8.4079   -1.2637   20.7096 N   0  0  0  0  0  0  0  0  0  0  0  0
    7.2866   -0.6279   20.9751 C   0  0  0  0  0  0  0  0  0  0  0  0
    6.5547    0.0600   19.9196 C   0  0  0  0  0  0  0  0  0  0  0  0
    5.3384    0.7267   20.1270 C   0  0  0  0  0  0  0  0  0  0  0  0
    4.7587    1.3596   19.0303 C   0  0  0  0  0  0  0  0  0  0  0  0
    5.4059    1.3102   17.7906 C   0  0  0  0  0  0  0  0  0  0  0  0
    6.5666    0.6724   17.5854 N   0  0  0  0  0  0  0  0  0  0  0  0
    7.1232    0.0663   18.6340 C   0  0  0  0  0  0  0  0  0  0  0  0
    8.0700   -0.4403   18.4510 H   0  0  0  0  0  0  0  0  0  0  0  0
    4.9755    1.7931   16.9187 H   0  0  0  0  0  0  0  0  0  0  0  0
    3.8258    1.9008   19.1191 H   0  0  0  0  0  0  0  0  0  0  0  0
    4.8748    0.7530   21.1173 H   0  0  0  0  0  0  0  0  0  0  0  0
    6.9161   -0.6885   22.2754 N   0  0  0  0  0  0  0  0  0  0  0  0
    7.8785   -1.3954   22.8400 C   0  0  0  0  0  0  0  0  0  0  0  0
    7.8267   -1.8924   24.2425 C   0  0  0  0  0  0  0  0  0  0  0  0
    7.0732   -3.2267   24.3654 C   0  0  0  0  0  0  0  0  0  0  0  0
    7.0965   -3.7147   25.8090 N   0  0  0  0  0  4  0  0  0  0  0  0
    6.9319   -5.2218   25.9542 C   0  0  0  0  0  0  0  0  0  0  0  0
    5.6003   -5.6758   25.3514 C   0  0  0  0  0  0  0  0  0  0  0  0
    4.4116   -4.8215   25.7720 C   0  0  0  0  0  0  0  0  0  0  0  0
    3.1024   -5.2690   25.5313 C   0  0  0  0  0  0  0  0  0  0  0  0
    1.9979   -4.4775   25.8598 C   0  0  0  0  0  0  0  0  0  0  0  0
    2.1934   -3.2199   26.4415 C   0  0  0  0  0  0  0  0  0  0  0  0
    3.4908   -2.7644   26.6899 C   0  0  0  0  0  0  0  0  0  0  0  0
    4.6041   -3.5553   26.3612 C   0  0  0  0  0  0  0  0  0  0  0  0
    6.0036   -3.0498   26.6729 C   0  0  0  0  0  0  0  0  0  0  0  0
    6.2460   -3.2344   27.7266 H   0  0  0  0  0  0  0  0  0  0  0  0
    6.0311   -1.9664   26.5233 H   0  0  0  0  0  0  0  0  0  0  0  0
    3.6379   -1.7860   27.1465 H   0  0  0  0  0  0  0  0  0  0  0  0
    1.3418   -2.5953   26.7017 H   0  0  0  0  0  0  0  0  0  0  0  0
    0.9905   -4.8398   25.6678 H   0  0  0  0  0  0  0  0  0  0  0  0
    2.9566   -6.2505   25.0825 H   0  0  0  0  0  0  0  0  0  0  0  0
    5.6760   -5.6516   24.2560 H   0  0  0  0  0  0  0  0  0  0  0  0
    5.4251   -6.7229   25.6151 H   0  0  0  0  0  0  0  0  0  0  0  0
    6.9561   -5.4631   27.0221 H   0  0  0  0  0  0  0  0  0  0  0  0
    7.7704   -5.7373   25.4720 H   0  0  0  0  0  0  0  0  0  0  0  0
    8.0208   -3.4281   26.1860 H   0  0  0  0  0  0  0  0  0  0  0  0
    6.0275   -3.1193   24.0566 H   0  0  0  0  0  0  0  0  0  0  0  0
    7.5311   -3.9917   23.7231 H   0  0  0  0  0  0  0  0  0  0  0  0
    7.3059   -1.1454   24.8500 H   0  0  0  0  0  0  0  0  0  0  0  0
    8.8266   -2.0074   24.6712 H   0  0  0  0  0  0  0  0  0  0  0  0
    9.8743   -3.4470   22.3726 H   0  0  0  0  0  0  0  0  0  0  0  0
   10.4839   -2.5358   20.9471 H   0  0  0  0  0  0  0  0  0  0  0  0
   10.9342   -1.2114   23.6157 H   0  0  0  0  0  0  0  0  0  0  0  0
   12.0439   -1.3806   22.0545 H   0  0  0  0  0  0  0  0  0  0  0  0
   11.9364   -2.7048   23.0770 H   0  0  0  0  0  0  0  0  0  0  0  0
  1  2  2  3
  2  3  1  0
  3  4  1  0
  4  5  1  0
  5  6  2  0
  6  7  1  0
  7  8  2  0
  8  9  1  0
  9 10  2  0
 10 11  1  0
 11 12  2  0
 12 13  1  0
 10 14  1  0
  9 15  1  0
  8 16  1  0
  6 17  1  0
 17 18  2  0
 18 19  1  0
 19 20  1  0
 20 21  1  0
 21 22  1  0
 22 23  1  0
 23 24  1  0
 24 25  2  0
 25 26  1  0
 26 27  2  0
 27 28  1  0
 28 29  2  0
 29 30  1  0
 30 31  1  0
 30 32  1  0
 28 33  1  0
 27 34  1  0
 26 35  1  0
 25 36  1  0
 23 37  1  0
 23 38  1  0
 22 39  1  0
 22 40  1  0
 21 41  1  0
 20 42  1  0
 20 43  1  0
 19 44  1  0
 19 45  1  0
  3 46  1  0
  3 47  1  0
  2 48  1  0
  1 49  1  0
  1 50  1  0
 18  4  1  0
 30 21  1  0
 12  7  1  0
 29 24  1  0
M  CHG  1  21   1
M  END
>  <cnnaffinity>  (1) 
-5.92839

>  <filename>  (1) 
C=CCn1nc(-c2cccnc2)nc1CC[NH+]1CCc2ccccc2C1

$$$$
