
     RDKit          3D

 25 26  0  0  0  0  0  0  0  0999 V2000
    8.1474    3.4724   22.7589 H   0  0  0  0  0  0  0  0  0  0  0  0
    8.6123    2.5144   22.5475 C   0  0  0  0  0  0  0  0  0  0  0  0
    8.9113    1.9114   23.4027 H   0  0  0  0  0  0  0  0  0  0  0  0
    8.8228    2.0991   21.3053 C   0  0  0  0  0  0  0  0  0  0  0  0
    8.4878    2.6990   20.4612 H   0  0  0  0  0  0  0  0  0  0  0  0
    9.4676    0.7548   21.0127 C   0  0  0  0  0  0  0  0  0  0  0  0
   10.4310    0.6675   21.5261 H   0  0  0  0  0  0  0  0  0  0  0  0
    9.6390    0.6414   19.9413 H   0  0  0  0  0  0  0  0  0  0  0  0
    8.6319   -0.3893   21.4850 C   0  0  0  0  0  0  0  0  0  0  0  0
    8.9453   -1.1967   22.4454 N   0  0  0  0  0  0  0  0  0  0  0  0
    7.8503   -2.0023   22.5559 N   0  0  0  0  0  0  0  0  0  0  0  0
    7.7765   -2.7367   23.2355 H   0  0  0  0  0  0  0  0  0  0  0  0
    6.8645   -1.7472   21.6761 C   0  0  0  0  0  0  0  0  0  0  0  0
    5.4532   -2.6025   21.5006 S   0  0  0  0  0  0  0  0  0  0  0  0
    7.3754   -0.6736   20.9605 N   0  0  0  0  0  0  0  0  0  0  0  0
    6.6811    0.0213   19.9111 C   0  0  0  0  0  0  0  0  0  0  0  0
    7.1807    0.0606   18.5963 C   0  0  0  0  0  0  0  0  0  0  0  0
    8.1205   -0.4375   18.3720 H   0  0  0  0  0  0  0  0  0  0  0  0
    6.5619    0.6738   17.5802 N   0  0  0  0  0  0  0  0  0  0  0  0
    5.4010    1.2931   17.8400 C   0  0  0  0  0  0  0  0  0  0  0  0
    4.9160    1.7840   16.9956 H   0  0  0  0  0  0  0  0  0  0  0  0
    4.8170    1.3049   19.1114 C   0  0  0  0  0  0  0  0  0  0  0  0
    3.8845    1.8348   19.2615 H   0  0  0  0  0  0  0  0  0  0  0  0
    5.4560    0.6432   20.1704 C   0  0  0  0  0  0  0  0  0  0  0  0
    5.0239    0.6053   21.1732 H   0  0  0  0  0  0  0  0  0  0  0  0
  1  2  1  0
  2  3  1  0
  2  4  2  3
  4  5  1  0
  4  6  1  0
  6  7  1  0
  6  8  1  0
  6  9  1  0
  9 10  2  0
 10 11  1  0
 11 12  1  0
 11 13  1  0
 13 14  2  0
 13 15  1  0
 15 16  1  0
 16 17  2  0
 17 18  1  0
 17 19  1  0
 19 20  2  0
 20 21  1  0
 20 22  1  0
 22 23  1  0
 22 24  2  0
 24 25  1  0
 15  9  1  0
 24 16  1  0
M  END
>  <cnnaffinity>  (1) 
-4.32558

>  <filename>  (1) 
C=CCc1n[nH]c(=S)n1-c1cccnc1

$$$$
