
     RDKit          3D

 43 46  0  0  0  0  0  0  0  0999 V2000
    9.5134   -0.5414   25.6284 C   0  0  0  0  0  0  0  0  0  0  0  0
    8.9817    0.6308   25.9699 C   0  0  0  0  0  0  0  0  0  0  0  0
    9.5283    1.9623   25.5263 C   0  0  0  0  0  0  0  0  0  0  0  0
    8.7767    2.5336   24.3123 C   0  0  0  0  0  0  0  0  0  0  0  0
    8.9007    1.6984   23.1186 N   0  0  0  0  0  0  0  0  0  0  0  0
    7.8412    1.0218   22.6215 N   0  0  0  0  0  0  0  0  0  0  0  0
    8.3792    0.2607   21.6877 C   0  0  0  0  0  0  0  0  0  0  0  0
    7.5572   -0.6505   20.8137 C   0  0  0  0  0  0  0  0  0  0  0  0
    6.7681    0.0289   19.6926 C   0  0  0  0  0  0  0  0  0  0  0  0
    5.5827    0.7230   19.9716 C   0  0  0  0  0  0  0  0  0  0  0  0
    4.8953    1.3415   18.9214 C   0  0  0  0  0  0  0  0  0  0  0  0
    5.4216    1.2537   17.6307 C   0  0  0  0  0  0  0  0  0  0  0  0
    6.5496    0.5899   17.3385 N   0  0  0  0  0  0  0  0  0  0  0  0
    7.1918   -0.0043   18.3512 C   0  0  0  0  0  0  0  0  0  0  0  0
    8.1077   -0.5337   18.0845 H   0  0  0  0  0  0  0  0  0  0  0  0
    4.9208    1.7290   16.7883 H   0  0  0  0  0  0  0  0  0  0  0  0
    3.9744    1.8902   19.0853 H   0  0  0  0  0  0  0  0  0  0  0  0
    5.2121    0.7741   20.9969 H   0  0  0  0  0  0  0  0  0  0  0  0
    6.8632   -1.1679   21.4859 H   0  0  0  0  0  0  0  0  0  0  0  0
    8.2349   -1.4042   20.3995 H   0  0  0  0  0  0  0  0  0  0  0  0
    9.7281    0.3680   21.5818 N   0  0  0  0  0  0  0  0  0  0  0  0
   10.0257    1.3068   22.4711 C   0  0  0  0  0  0  0  0  0  0  0  0
   11.3567    1.8667   22.7127 C   0  0  0  0  0  0  0  0  0  0  0  0
   12.4740    1.0645   22.8590 C   0  0  0  0  0  0  0  0  0  0  0  0
   13.7770    1.6344   22.8955 C   0  0  0  0  0  0  0  0  0  0  0  0
   13.9304    2.9902   22.8059 C   0  0  0  0  0  0  0  0  0  0  0  0
   12.8216    3.8063   22.7642 N   0  0  0  0  0  0  0  0  0  0  0  0
   12.7211    5.1832   22.7325 C   0  0  0  0  0  0  0  0  0  0  0  0
   11.3766    5.4414   22.6547 C   0  0  0  0  0  0  0  0  0  0  0  0
   10.6454    4.2867   22.6650 N   0  0  0  0  0  0  0  0  0  0  0  0
   11.5264    3.3009   22.7133 C   0  0  0  0  0  0  0  0  0  0  0  0
   10.8897    6.4008   22.5831 H   0  0  0  0  0  0  0  0  0  0  0  0
   13.5844    5.8166   22.8205 H   0  0  0  0  0  0  0  0  0  0  0  0
   14.8740    3.4968   22.6692 H   0  0  0  0  0  0  0  0  0  0  0  0
   14.6579    1.0041   22.9564 H   0  0  0  0  0  0  0  0  0  0  0  0
   12.3768   -0.0213   22.9160 H   0  0  0  0  0  0  0  0  0  0  0  0
    7.7063    2.6340   24.5062 H   0  0  0  0  0  0  0  0  0  0  0  0
    9.1762    3.5161   24.0672 H   0  0  0  0  0  0  0  0  0  0  0  0
   10.5928    1.8765   25.2692 H   0  0  0  0  0  0  0  0  0  0  0  0
    9.4606    2.6877   26.3437 H   0  0  0  0  0  0  0  0  0  0  0  0
    8.0570    0.6506   26.5543 H   0  0  0  0  0  0  0  0  0  0  0  0
    9.0615   -1.4923   25.8970 H   0  0  0  0  0  0  0  0  0  0  0  0
   10.4262   -0.5944   25.0334 H   0  0  0  0  0  0  0  0  0  0  0  0
  1  2  2  3
  2  3  1  0
  3  4  1  0
  4  5  1  0
  5  6  1  0
  6  7  2  0
  7  8  1  0
  8  9  1  0
  9 10  2  0
 10 11  1  0
 11 12  2  0
 12 13  1  0
 13 14  2  0
 14 15  1  0
 12 16  1  0
 11 17  1  0
 10 18  1  0
  8 19  1  0
  8 20  1  0
  7 21  1  0
 21 22  2  0
 22 23  1  0
 23 24  2  0
 24 25  1  0
 25 26  2  0
 26 27  1  0
 27 28  1  0
 28 29  2  0
 29 30  1  0
 30 31  2  0
 29 32  1  0
 28 33  1  0
 26 34  1  0
 25 35  1  0
 24 36  1  0
  4 37  1  0
  4 38  1  0
  3 39  1  0
  3 40  1  0
  2 41  1  0
  1 42  1  0
  1 43  1  0
 22  5  1  0
 31 23  1  0
 14  9  1  0
 31 27  1  0
M  END
>  <cnnaffinity>  (1) 
-5.8184

>  <filename>  (1) 
C=CCCn1nc(Cc2cccnc2)nc1-c1cccn2ccnc12

$$$$
