
     RDKit          3D

 45 48  0  0  0  0  0  0  0  0999 V2000
    7.4330    6.2048   24.9233 C   0  0  0  0  0  0  0  0  0  0  0  0
    8.0870    5.0473   24.9639 C   0  0  0  0  0  0  0  0  0  0  0  0
    8.0213    4.0135   23.8670 C   0  0  0  0  0  0  0  0  0  0  0  0
    8.7859    2.7298   24.2086 C   0  0  0  0  0  0  0  0  0  0  0  0
    8.8289    1.8112   23.0829 N   0  0  0  0  0  0  0  0  0  0  0  0
    7.7788    0.9953   22.8213 N   0  0  0  0  0  0  0  0  0  0  0  0
    8.1502    0.3881   21.7114 C   0  0  0  0  0  0  0  0  0  0  0  0
    7.3253   -0.6367   20.9915 C   0  0  0  0  0  0  0  0  0  0  0  0
    6.5644   -0.0350   19.8202 C   0  0  0  0  0  0  0  0  0  0  0  0
    5.3595    0.6454   20.0423 C   0  0  0  0  0  0  0  0  0  0  0  0
    4.7631    1.3287   18.9813 C   0  0  0  0  0  0  0  0  0  0  0  0
    5.3900    1.3049   17.7317 C   0  0  0  0  0  0  0  0  0  0  0  0
    6.5269    0.6354   17.4874 N   0  0  0  0  0  0  0  0  0  0  0  0
    7.0877   -0.0122   18.5159 C   0  0  0  0  0  0  0  0  0  0  0  0
    8.0140   -0.5440   18.2925 H   0  0  0  0  0  0  0  0  0  0  0  0
    4.9660    1.8463   16.8881 H   0  0  0  0  0  0  0  0  0  0  0  0
    3.8469    1.8949   19.1107 H   0  0  0  0  0  0  0  0  0  0  0  0
    4.9063    0.6447   21.0369 H   0  0  0  0  0  0  0  0  0  0  0  0
    8.0149   -1.4192   20.6559 H   0  0  0  0  0  0  0  0  0  0  0  0
    6.6336   -1.0899   21.7091 H   0  0  0  0  0  0  0  0  0  0  0  0
    9.3657    0.7600   21.2398 N   0  0  0  0  0  0  0  0  0  0  0  0
    9.7928    1.6193   22.1510 C   0  0  0  0  0  0  0  0  0  0  0  0
   11.1420    2.1908   22.2866 C   0  0  0  0  0  0  0  0  0  0  0  0
   12.2277    1.3055   22.3549 C   0  0  0  0  0  0  0  0  0  0  0  0
   12.2997   -0.0754   22.1965 N   0  0  0  0  0  0  0  0  0  0  0  0
   13.5552   -0.3388   22.2897 C   0  0  0  0  0  0  0  0  0  0  0  0
   14.1928   -1.6544   22.0601 C   0  0  0  0  0  0  0  0  0  0  0  0
   13.4208   -2.4256   22.0097 H   0  0  0  0  0  0  0  0  0  0  0  0
   14.9084   -1.8959   22.8453 H   0  0  0  0  0  0  0  0  0  0  0  0
   14.7188   -1.6344   21.1031 H   0  0  0  0  0  0  0  0  0  0  0  0
   14.3758    0.7271   22.5449 O   0  0  0  0  0  0  0  0  0  0  0  0
   13.5164    1.7987   22.5791 C   0  0  0  0  0  0  0  0  0  0  0  0
   13.8087    3.1526   22.6694 C   0  0  0  0  0  0  0  0  0  0  0  0
   12.7244    4.0350   22.5989 C   0  0  0  0  0  0  0  0  0  0  0  0
   11.4153    3.5690   22.4102 C   0  0  0  0  0  0  0  0  0  0  0  0
   10.6161    4.2989   22.2940 H   0  0  0  0  0  0  0  0  0  0  0  0
   12.9022    5.1036   22.7042 H   0  0  0  0  0  0  0  0  0  0  0  0
   14.8300    3.5063   22.7116 H   0  0  0  0  0  0  0  0  0  0  0  0
    9.8137    2.9642   24.5021 H   0  0  0  0  0  0  0  0  0  0  0  0
    8.3132    2.1905   25.0340 H   0  0  0  0  0  0  0  0  0  0  0  0
    8.4121    4.4459   22.9314 H   0  0  0  0  0  0  0  0  0  0  0  0
    6.9810    3.7416   23.6469 H   0  0  0  0  0  0  0  0  0  0  0  0
    8.7146    4.8273   25.8347 H   0  0  0  0  0  0  0  0  0  0  0  0
    6.7934    6.4721   24.0812 H   0  0  0  0  0  0  0  0  0  0  0  0
    7.5084    6.9369   25.7221 H   0  0  0  0  0  0  0  0  0  0  0  0
  1  2  2  3
  2  3  1  0
  3  4  1  0
  4  5  1  0
  5  6  1  0
  6  7  2  0
  7  8  1  0
  8  9  1  0
  9 10  2  0
 10 11  1  0
 11 12  2  0
 12 13  1  0
 13 14  2  0
 14 15  1  0
 12 16  1  0
 11 17  1  0
 10 18  1  0
  8 19  1  0
  8 20  1  0
  7 21  1  0
 21 22  2  0
 22 23  1  0
 23 24  2  0
 24 25  1  0
 25 26  2  0
 26 27  1  0
 27 28  1  0
 27 29  1  0
 27 30  1  0
 26 31  1  0
 31 32  1  0
 32 33  2  0
 33 34  1  0
 34 35  2  0
 35 36  1  0
 34 37  1  0
 33 38  1  0
  4 39  1  0
  4 40  1  0
  3 41  1  0
  3 42  1  0
  2 43  1  0
  1 44  1  0
  1 45  1  0
 22  5  1  0
 35 23  1  0
 14  9  1  0
 32 24  1  0
M  END
>  <cnnaffinity>  (1) 
-6.75945

>  <filename>  (1) 
C=CCCn1nc(Cc2cccnc2)nc1-c1cccc2oc(C)nc12

$$$$
