
     RDKit          3D

 39 42  0  0  0  0  0  0  0  0999 V2000
   12.4409    0.1177   23.3974 C   0  0  0  0  0  0  0  0  0  0  0  0
   12.2134    1.4208   23.2476 C   0  0  0  0  0  0  0  0  0  0  0  0
   11.4162    1.9481   22.0696 C   0  0  0  0  0  0  0  0  0  0  0  0
   10.0278    1.4973   22.0673 N   0  0  0  0  0  0  0  0  0  0  0  0
    9.6118    0.4694   21.2952 N   0  0  0  0  0  0  0  0  0  0  0  0
    8.3597    0.2922   21.6772 C   0  0  0  0  0  0  0  0  0  0  0  0
    7.4285   -0.6745   21.0029 C   0  0  0  0  0  0  0  0  0  0  0  0
    6.6425   -0.0158   19.8794 C   0  0  0  0  0  0  0  0  0  0  0  0
    5.4358    0.6433   20.1451 C   0  0  0  0  0  0  0  0  0  0  0  0
    4.8003    1.3142   19.0970 C   0  0  0  0  0  0  0  0  0  0  0  0
    5.3945    1.2994   17.8299 C   0  0  0  0  0  0  0  0  0  0  0  0
    6.5568    0.6857   17.5581 N   0  0  0  0  0  0  0  0  0  0  0  0
    7.1546    0.0560   18.5746 C   0  0  0  0  0  0  0  0  0  0  0  0
    8.1104   -0.4188   18.3593 H   0  0  0  0  0  0  0  0  0  0  0  0
    4.9135    1.7904   16.9878 H   0  0  0  0  0  0  0  0  0  0  0  0
    3.8696    1.8485   19.2522 H   0  0  0  0  0  0  0  0  0  0  0  0
    5.0217    0.6357   21.1598 H   0  0  0  0  0  0  0  0  0  0  0  0
    8.0244   -1.5096   20.6228 H   0  0  0  0  0  0  0  0  0  0  0  0
    6.7393   -1.0710   21.7583 H   0  0  0  0  0  0  0  0  0  0  0  0
    7.9536    1.1189   22.6576 N   0  0  0  0  0  0  0  0  0  0  0  0
    9.0241    1.8643   22.9006 C   0  0  0  0  0  0  0  0  0  0  0  0
    9.0693    2.8887   23.9053 C   0  0  0  0  0  0  0  0  0  0  0  0
    8.0671    3.3326   24.7332 C   0  0  0  0  0  0  0  0  0  0  0  0
    6.6944    3.0070   24.9161 C   0  0  0  0  0  0  0  0  0  0  0  0
    5.9840    3.7033   25.8739 C   0  0  0  0  0  0  0  0  0  0  0  0
    6.6233    4.7318   26.6618 C   0  0  0  0  0  0  0  0  0  0  0  0
    7.9449    5.0690   26.5024 C   0  0  0  0  0  0  0  0  0  0  0  0
    8.7072    4.3563   25.4970 C   0  0  0  0  0  0  0  0  0  0  0  0
    9.9674    4.5238   25.1430 N   0  0  0  0  0  0  0  0  0  0  0  0
   10.1929    3.5785   24.1623 O   0  0  0  0  0  0  0  0  0  0  0  0
    8.4280    5.8425   27.0901 H   0  0  0  0  0  0  0  0  0  0  0  0
    6.0204    5.2538   27.4038 H   0  0  0  0  0  0  0  0  0  0  0  0
    4.9309    3.4778   26.0398 H   0  0  0  0  0  0  0  0  0  0  0  0
    6.2566    2.2270   24.2984 H   0  0  0  0  0  0  0  0  0  0  0  0
   11.8358    1.5875   21.1266 H   0  0  0  0  0  0  0  0  0  0  0  0
   11.4206    3.0370   22.0568 H   0  0  0  0  0  0  0  0  0  0  0  0
   12.5742    2.1382   23.9873 H   0  0  0  0  0  0  0  0  0  0  0  0
   12.9960   -0.2528   24.2506 H   0  0  0  0  0  0  0  0  0  0  0  0
   12.0600   -0.6202   22.6895 H   0  0  0  0  0  0  0  0  0  0  0  0
  1  2  2  3
  2  3  1  0
  3  4  1  0
  4  5  1  0
  5  6  2  0
  6  7  1  0
  7  8  1  0
  8  9  2  0
  9 10  1  0
 10 11  2  0
 11 12  1  0
 12 13  2  0
 13 14  1  0
 11 15  1  0
 10 16  1  0
  9 17  1  0
  7 18  1  0
  7 19  1  0
  6 20  1  0
 20 21  2  0
 21 22  1  0
 22 23  2  0
 23 24  1  0
 24 25  2  0
 25 26  1  0
 26 27  2  0
 27 28  1  0
 28 29  2  0
 29 30  1  0
 27 31  1  0
 26 32  1  0
 25 33  1  0
 24 34  1  0
  3 35  1  0
  3 36  1  0
  2 37  1  0
  1 38  1  0
  1 39  1  0
 21  4  1  0
 30 22  1  0
 13  8  1  0
 28 23  1  0
M  END
>  <cnnaffinity>  (1) 
-5.66147

>  <filename>  (1) 
C=CCn1nc(Cc2cccnc2)nc1-c1onc2ccccc12

$$$$
