
     RDKit          3D

 27 28  0  0  0  0  0  0  0  0999 V2000
   11.7488    2.1993   20.7837 H   0  0  0  0  0  0  0  0  0  0  0  0
   11.4007    2.0603   21.8094 C   0  0  0  0  0  0  0  0  0  0  0  0
   12.0321    2.4942   22.5810 H   0  0  0  0  0  0  0  0  0  0  0  0
   10.2844    1.4135   22.1428 C   0  0  0  0  0  0  0  0  0  0  0  0
   10.0248    1.3285   23.2025 H   0  0  0  0  0  0  0  0  0  0  0  0
    9.3353    0.7257   21.1951 C   0  0  0  0  0  0  0  0  0  0  0  0
    9.0305    1.4107   20.3892 H   0  0  0  0  0  0  0  0  0  0  0  0
    9.8375   -0.1187   20.7035 H   0  0  0  0  0  0  0  0  0  0  0  0
    8.1963    0.1965   21.9335 N   0  0  0  0  0  0  0  0  0  0  0  0
    7.7089    0.9739   22.3719 H   0  0  0  0  0  0  0  0  0  0  0  0
    7.2482   -0.5667   21.1671 C   0  0  0  0  0  0  0  0  0  0  0  0
    6.5346    0.1077   20.0443 C   0  0  0  0  0  0  0  0  0  0  0  0
    7.1364    0.0975   18.7780 C   0  0  0  0  0  0  0  0  0  0  0  0
    8.0863   -0.4239   18.6476 H   0  0  0  0  0  0  0  0  0  0  0  0
    6.6224    0.6732   17.6842 N   0  0  0  0  0  0  0  0  0  0  0  0
    5.4477    1.3052   17.8338 C   0  0  0  0  0  0  0  0  0  0  0  0
    5.0383    1.7782   16.9429 H   0  0  0  0  0  0  0  0  0  0  0  0
    4.7549    1.3619   19.0501 C   0  0  0  0  0  0  0  0  0  0  0  0
    3.8116    1.8925   19.1071 H   0  0  0  0  0  0  0  0  0  0  0  0
    5.2979    0.7486   20.1775 C   0  0  0  0  0  0  0  0  0  0  0  0
    4.7958    0.7741   21.1496 H   0  0  0  0  0  0  0  0  0  0  0  0
    7.6164   -2.0009   20.9597 C   0  0  0  0  0  0  0  0  0  0  0  0
    7.2192   -2.4681   20.0687 H   0  0  0  0  0  0  0  0  0  0  0  0
    8.6135   -2.2937   21.2654 H   0  0  0  0  0  0  0  0  0  0  0  0
    6.5740   -1.6357   21.9715 C   0  0  0  0  0  0  0  0  0  0  0  0
    5.5462   -1.9018   21.7447 H   0  0  0  0  0  0  0  0  0  0  0  0
    6.8454   -1.6625   23.0191 H   0  0  0  0  0  0  0  0  0  0  0  0
  1  2  1  0
  2  3  1  0
  2  4  2  3
  4  5  1  0
  4  6  1  0
  6  7  1  0
  6  8  1  0
  6  9  1  0
  9 10  1  0
  9 11  1  0
 11 12  1  0
 12 13  2  0
 13 14  1  0
 13 15  1  0
 15 16  2  0
 16 17  1  0
 16 18  1  0
 18 19  1  0
 18 20  2  0
 20 21  1  0
 11 22  1  0
 22 23  1  0
 22 24  1  0
 22 25  1  0
 25 26  1  0
 25 27  1  0
 25 11  1  0
 20 12  1  0
M  END
>  <cnnaffinity>  (1) 
-4.01593

>  <filename>  (1) 
C=CCNC1(c2cccnc2)CC1

$$$$
