
     RDKit          3D

 42 45  0  0  0  0  0  0  0  0999 V2000
   12.4609    0.1772   23.3073 C   0  0  0  0  0  0  0  0  0  0  0  0
   12.1752    1.4706   23.2100 C   0  0  0  0  0  0  0  0  0  0  0  0
   11.3645    2.0288   22.0504 C   0  0  0  0  0  0  0  0  0  0  0  0
    9.9806    1.5592   22.0554 N   0  0  0  0  0  0  0  0  0  0  0  0
    9.5600    0.5719   21.2275 N   0  0  0  0  0  0  0  0  0  0  0  0
    8.3559    0.2944   21.6914 C   0  0  0  0  0  0  0  0  0  0  0  0
    7.4379   -0.6736   21.0072 C   0  0  0  0  0  0  0  0  0  0  0  0
    6.6434   -0.0234   19.8768 C   0  0  0  0  0  0  0  0  0  0  0  0
    5.4375    0.6406   20.1317 C   0  0  0  0  0  0  0  0  0  0  0  0
    4.7945    1.3111   19.0872 C   0  0  0  0  0  0  0  0  0  0  0  0
    5.3851    1.3019   17.8202 C   0  0  0  0  0  0  0  0  0  0  0  0
    6.5436    0.6803   17.5542 N   0  0  0  0  0  0  0  0  0  0  0  0
    7.1487    0.0467   18.5664 C   0  0  0  0  0  0  0  0  0  0  0  0
    8.1069   -0.4204   18.3321 H   0  0  0  0  0  0  0  0  0  0  0  0
    4.9161    1.8112   16.9786 H   0  0  0  0  0  0  0  0  0  0  0  0
    3.8680    1.8516   19.2395 H   0  0  0  0  0  0  0  0  0  0  0  0
    5.0262    0.6422   21.1425 H   0  0  0  0  0  0  0  0  0  0  0  0
    8.0434   -1.5065   20.6344 H   0  0  0  0  0  0  0  0  0  0  0  0
    6.7641   -1.0669   21.7742 H   0  0  0  0  0  0  0  0  0  0  0  0
    7.9983    0.9898   22.7998 N   0  0  0  0  0  0  0  0  0  0  0  0
    9.0201    1.8055   22.9747 C   0  0  0  0  0  0  0  0  0  0  0  0
    9.1254    2.7928   24.0335 C   0  0  0  0  0  0  0  0  0  0  0  0
    9.1187    2.3542   25.3381 C   0  0  0  0  0  0  0  0  0  0  0  0
    9.1900    3.1810   26.3897 N   0  0  0  0  0  0  0  0  0  0  0  0
    9.3128    4.4864   26.1786 C   0  0  0  0  0  0  0  0  0  0  0  0
    9.3157    5.0251   24.9016 C   0  0  0  0  0  0  0  0  0  0  0  0
    9.1760    4.1835   23.7871 C   0  0  0  0  0  0  0  0  0  0  0  0
    9.0355    4.7575   22.4769 C   0  0  0  0  0  0  0  0  0  0  0  0
    9.1244    6.0999   22.3136 C   0  0  0  0  0  0  0  0  0  0  0  0
    9.3195    6.8997   23.4222 N   0  0  0  0  0  0  0  0  0  0  0  0
    9.4061    6.4650   24.7293 C   0  0  0  0  0  0  0  0  0  0  0  0
    9.5396    7.3002   25.6052 O   0  0  0  0  0  0  0  0  0  0  0  0
    9.3548    7.9082   23.4349 H   0  0  0  0  0  0  0  0  0  0  0  0
    9.0598    6.5944   21.3519 H   0  0  0  0  0  0  0  0  0  0  0  0
    8.8502    4.0748   21.6578 H   0  0  0  0  0  0  0  0  0  0  0  0
    9.4545    5.1237   27.0536 H   0  0  0  0  0  0  0  0  0  0  0  0
    9.1028    1.2877   25.5659 H   0  0  0  0  0  0  0  0  0  0  0  0
   11.7706    1.7142   21.0821 H   0  0  0  0  0  0  0  0  0  0  0  0
   11.3408    3.1229   22.0953 H   0  0  0  0  0  0  0  0  0  0  0  0
   12.5038    2.1644   23.9879 H   0  0  0  0  0  0  0  0  0  0  0  0
   12.1101   -0.5357   22.5617 H   0  0  0  0  0  0  0  0  0  0  0  0
   13.0317   -0.2229   24.1395 H   0  0  0  0  0  0  0  0  0  0  0  0
  1  2  2  3
  2  3  1  0
  3  4  1  0
  4  5  1  0
  5  6  2  0
  6  7  1  0
  7  8  1  0
  8  9  2  0
  9 10  1  0
 10 11  2  0
 11 12  1  0
 12 13  2  0
 13 14  1  0
 11 15  1  0
 10 16  1  0
  9 17  1  0
  7 18  1  0
  7 19  1  0
  6 20  1  0
 20 21  2  0
 21 22  1  0
 22 23  2  0
 23 24  1  0
 24 25  2  0
 25 26  1  0
 26 27  2  0
 27 28  1  0
 28 29  2  0
 29 30  1  0
 30 31  1  0
 31 32  2  0
 30 33  1  0
 29 34  1  0
 28 35  1  0
 25 36  1  0
 23 37  1  0
  3 38  1  0
  3 39  1  0
  2 40  1  0
  1 41  1  0
  1 42  1  0
 21  4  1  0
 27 22  1  0
 13  8  1  0
 31 26  1  0
M  END
>  <cnnaffinity>  (1) 
-5.63629

>  <filename>  (1) 
C=CCn1nc(Cc2cccnc2)nc1-c1cncc2c(=O)[nH]ccc12

$$$$
