
     RDKit          3D

 46 49  0  0  0  0  0  0  0  0999 V2000
   13.0385   -1.0072   22.3055 C   0  0  0  0  0  0  0  0  0  0  0  0
   12.1420   -0.2463   22.9256 C   0  0  0  0  0  0  0  0  0  0  0  0
   12.2379    1.2579   23.0611 C   0  0  0  0  0  0  0  0  0  0  0  0
   11.4094    2.0165   21.9937 C   0  0  0  0  0  0  0  0  0  0  0  0
    9.9833    1.6657   21.9920 N   0  0  0  0  0  0  0  0  0  0  0  0
    9.5438    0.7181   21.1191 N   0  0  0  0  0  0  0  0  0  0  0  0
    8.3678    0.3779   21.6056 C   0  0  0  0  0  0  0  0  0  0  0  0
    7.4775   -0.6296   20.9289 C   0  0  0  0  0  0  0  0  0  0  0  0
    6.6682   -0.0261   19.7899 C   0  0  0  0  0  0  0  0  0  0  0  0
    5.4611    0.6291   20.0614 C   0  0  0  0  0  0  0  0  0  0  0  0
    4.8114    1.3068   19.0293 C   0  0  0  0  0  0  0  0  0  0  0  0
    5.3954    1.2983   17.7580 C   0  0  0  0  0  0  0  0  0  0  0  0
    6.5292    0.6434   17.4630 N   0  0  0  0  0  0  0  0  0  0  0  0
    7.1361   -0.0044   18.4650 C   0  0  0  0  0  0  0  0  0  0  0  0
    8.0513   -0.5412   18.2085 H   0  0  0  0  0  0  0  0  0  0  0  0
    4.9326    1.8352   16.9348 H   0  0  0  0  0  0  0  0  0  0  0  0
    3.8858    1.8470   19.1998 H   0  0  0  0  0  0  0  0  0  0  0  0
    5.0501    0.6047   21.0733 H   0  0  0  0  0  0  0  0  0  0  0  0
    8.1018   -1.4550   20.5710 H   0  0  0  0  0  0  0  0  0  0  0  0
    6.8004   -1.0237   21.6940 H   0  0  0  0  0  0  0  0  0  0  0  0
    8.0212    1.0226   22.7431 N   0  0  0  0  0  0  0  0  0  0  0  0
    9.0324    1.8527   22.9456 C   0  0  0  0  0  0  0  0  0  0  0  0
    9.0869    2.8311   24.0560 C   0  0  0  0  0  0  0  0  0  0  0  0
    8.7654    2.4285   25.3667 C   0  0  0  0  0  0  0  0  0  0  0  0
    8.7817    3.3444   26.4164 C   0  0  0  0  0  0  0  0  0  0  0  0
    9.1241    4.6813   26.1888 C   0  0  0  0  0  0  0  0  0  0  0  0
    9.4330    5.1044   24.9011 C   0  0  0  0  0  0  0  0  0  0  0  0
    9.3785    4.1909   23.8146 C   0  0  0  0  0  0  0  0  0  0  0  0
    9.4630    4.6308   22.5239 O   0  0  0  0  0  0  0  0  0  0  0  0
    9.8922    5.9932   22.3450 C   0  0  0  0  0  0  0  0  0  0  0  0
    9.3028    6.8856   23.4262 C   0  0  0  0  0  0  0  0  0  0  0  0
    9.7437    6.4315   24.7039 O   0  0  0  0  0  0  0  0  0  0  0  0
    9.6268    7.9192   23.3282 H   0  0  0  0  0  0  0  0  0  0  0  0
    8.2054    6.8449   23.3889 H   0  0  0  0  0  0  0  0  0  0  0  0
    9.5369    6.3009   21.3583 H   0  0  0  0  0  0  0  0  0  0  0  0
   10.9889    6.0283   22.3852 H   0  0  0  0  0  0  0  0  0  0  0  0
    9.1081    5.4286   26.9738 H   0  0  0  0  0  0  0  0  0  0  0  0
    8.4953    3.0096   27.4085 H   0  0  0  0  0  0  0  0  0  0  0  0
    8.4882    1.3971   25.5804 H   0  0  0  0  0  0  0  0  0  0  0  0
   11.4999    3.0979   22.1229 H   0  0  0  0  0  0  0  0  0  0  0  0
   11.7735    1.7619   20.9947 H   0  0  0  0  0  0  0  0  0  0  0  0
   11.9083    1.5703   24.0597 H   0  0  0  0  0  0  0  0  0  0  0  0
   13.2884    1.5651   22.9711 H   0  0  0  0  0  0  0  0  0  0  0  0
   11.2338   -0.7112   23.3175 H   0  0  0  0  0  0  0  0  0  0  0  0
   12.9097   -2.0808   22.1764 H   0  0  0  0  0  0  0  0  0  0  0  0
   13.9510   -0.5905   21.8883 H   0  0  0  0  0  0  0  0  0  0  0  0
  1  2  2  3
  2  3  1  0
  3  4  1  0
  4  5  1  0
  5  6  1  0
  6  7  2  0
  7  8  1  0
  8  9  1  0
  9 10  2  0
 10 11  1  0
 11 12  2  0
 12 13  1  0
 13 14  2  0
 14 15  1  0
 12 16  1  0
 11 17  1  0
 10 18  1  0
  8 19  1  0
  8 20  1  0
  7 21  1  0
 21 22  2  0
 22 23  1  0
 23 24  2  0
 24 25  1  0
 25 26  2  0
 26 27  1  0
 27 28  2  0
 28 29  1  0
 29 30  1  0
 30 31  1  0
 31 32  1  0
 31 33  1  0
 31 34  1  0
 30 35  1  0
 30 36  1  0
 26 37  1  0
 25 38  1  0
 24 39  1  0
  4 40  1  0
  4 41  1  0
  3 42  1  0
  3 43  1  0
  2 44  1  0
  1 45  1  0
  1 46  1  0
 22  5  1  0
 28 23  1  0
 14  9  1  0
 32 27  1  0
M  END
>  <cnnaffinity>  (1) 
-5.11717

>  <filename>  (1) 
C=CCCn1nc(Cc2cccnc2)nc1-c1cccc2c1OCCO2

$$$$
