
     RDKit          3D

 44 47  0  0  0  0  0  0  0  0999 V2000
    8.9261   -0.2063   25.8860 C   0  0  0  0  0  0  0  0  0  0  0  0
    8.6277    1.0857   26.0098 C   0  0  0  0  0  0  0  0  0  0  0  0
    7.5022    1.7583   25.2707 C   0  0  0  0  0  0  0  0  0  0  0  0
    7.9197    2.3935   23.9378 C   0  0  0  0  0  0  0  0  0  0  0  0
    8.2218    1.4048   22.9075 N   0  0  0  0  0  0  0  0  0  0  0  0
    7.1998    0.6474   22.4443 N   0  0  0  0  0  0  0  0  0  0  0  0
    7.7493   -0.0379   21.4624 C   0  0  0  0  0  0  0  0  0  0  0  0
    6.9723   -0.9700   20.5875 C   0  0  0  0  0  0  0  0  0  0  0  0
    6.3394   -0.2462   19.4039 C   0  0  0  0  0  0  0  0  0  0  0  0
    5.2174    0.5707   19.6043 C   0  0  0  0  0  0  0  0  0  0  0  0
    4.7140    1.3010   18.5268 C   0  0  0  0  0  0  0  0  0  0  0  0
    5.3610    1.2032   17.2922 C   0  0  0  0  0  0  0  0  0  0  0  0
    6.4330    0.4276   17.0779 N   0  0  0  0  0  0  0  0  0  0  0  0
    6.9029   -0.2720   18.1186 C   0  0  0  0  0  0  0  0  0  0  0  0
    7.7867   -0.8837   17.9296 H   0  0  0  0  0  0  0  0  0  0  0  0
    5.0120    1.7790   16.4373 H   0  0  0  0  0  0  0  0  0  0  0  0
    3.8540    1.9533   18.6299 H   0  0  0  0  0  0  0  0  0  0  0  0
    4.7614    0.6411   20.5936 H   0  0  0  0  0  0  0  0  0  0  0  0
    6.1987   -1.4301   21.2106 H   0  0  0  0  0  0  0  0  0  0  0  0
    7.6577   -1.7565   20.2535 H   0  0  0  0  0  0  0  0  0  0  0  0
    9.0554    0.2326   21.2425 N   0  0  0  0  0  0  0  0  0  0  0  0
    9.3328    1.1366   22.1710 C   0  0  0  0  0  0  0  0  0  0  0  0
   10.6429    1.8139   22.3152 C   0  0  0  0  0  0  0  0  0  0  0  0
   11.2106    2.4290   21.1628 C   0  0  0  0  0  0  0  0  0  0  0  0
   12.1757    3.4114   21.1395 C   0  0  0  0  0  0  0  0  0  0  0  0
   12.8901    3.7712   22.3456 C   0  0  0  0  0  0  0  0  0  0  0  0
   14.2437    5.5135   21.7336 N   0  0  0  0  0  0  0  0  0  0  0  0
   13.9752    4.4934   22.6743 C   0  0  0  0  0  0  0  0  0  0  0  0
   12.9691    2.6024   23.7608 C   0  0  0  0  0  0  0  0  0  0  0  0
   12.8404    2.5337   23.4307 C   0  0  0  0  0  0  0  0  0  0  0  0
   11.3275    1.8435   23.5176 C   0  0  0  0  0  0  0  0  0  0  0  0
   10.8290    1.5424   24.4635 H   0  0  0  0  0  0  0  0  0  0  0  0
   14.0697    2.7042   23.9242 H   0  0  0  0  0  0  0  0  0  0  0  0
   15.1800    5.9353   21.7435 H   0  0  0  0  0  0  0  0  0  0  0  0
   13.5732    6.2583   21.9042 H   0  0  0  0  0  0  0  0  0  0  0  0
   12.4075    3.9466   20.2220 H   0  0  0  0  0  0  0  0  0  0  0  0
   10.7650    2.1492   20.2248 H   0  0  0  0  0  0  0  0  0  0  0  0
    7.1004    3.0109   23.5569 H   0  0  0  0  0  0  0  0  0  0  0  0
    8.7828    3.0526   24.0629 H   0  0  0  0  0  0  0  0  0  0  0  0
    7.0739    2.5540   25.8907 H   0  0  0  0  0  0  0  0  0  0  0  0
    6.7018    1.0398   25.0583 H   0  0  0  0  0  0  0  0  0  0  0  0
    9.2073    1.7164   26.6858 H   0  0  0  0  0  0  0  0  0  0  0  0
    8.3426   -0.8406   25.2192 H   0  0  0  0  0  0  0  0  0  0  0  0
    9.7280   -0.6825   26.4442 H   0  0  0  0  0  0  0  0  0  0  0  0
  1  2  2  3
  2  3  1  0
  3  4  1  0
  4  5  1  0
  5  6  1  0
  6  7  2  0
  7  8  1  0
  8  9  1  0
  9 10  2  0
 10 11  1  0
 11 12  2  0
 12 13  1  0
 13 14  2  0
 14 15  1  0
 12 16  1  0
 11 17  1  0
 10 18  1  0
  8 19  1  0
  8 20  1  0
  7 21  1  0
 21 22  2  0
 22 23  1  0
 23 24  2  0
 24 25  1  0
 25 26  2  0
 26 27  1  0
 27 28  1  0
 28 29  2  0
 29 30  1  0
 30 31  2  0
 31 32  1  0
 29 33  1  0
 28 34  1  0
 27 35  1  0
 25 36  1  0
 24 37  1  0
  4 38  1  0
  4 39  1  0
  3 40  1  0
  3 41  1  0
  2 42  1  0
  1 43  1  0
  1 44  1  0
 22  5  1  0
 31 23  1  0
 14  9  1  0
 30 26  1  0
M  END
>  <cnnaffinity>  (1) 
-6.07068

>  <filename>  (1) 
C=CCCn1nc(Cc2cccnc2)nc1-c1ccc2[nH]ccc2c1

$$$$
