
     RDKit          3D

 42 44  0  0  0  0  0  0  0  0999 V2000
    9.8170    1.7513   25.6556 C   0  0  0  0  0  0  0  0  0  0  0  0
    9.2881    0.6470   25.1323 C   0  0  0  0  0  0  0  0  0  0  0  0
    7.8167    0.5426   24.7777 C   0  0  0  0  0  0  0  0  0  0  0  0
    7.4060    1.4593   23.7126 N   0  0  0  0  0  0  0  0  0  0  0  0
    6.7883    2.6178   24.0453 N   0  0  0  0  0  0  0  0  0  0  0  0
    6.7944    3.3017   22.9155 C   0  0  0  0  0  0  0  0  0  0  0  0
    6.1789    4.6253   22.7797 C   0  0  0  0  0  0  0  0  0  0  0  0
    6.1769    5.3462   21.5689 C   0  0  0  0  0  0  0  0  0  0  0  0
    5.5204    6.5675   21.5426 C   0  0  0  0  0  0  0  0  0  0  0  0
    5.4782    7.3030   20.4236 F   0  0  0  0  0  0  0  0  0  0  0  0
    4.8901    7.0391   22.6963 C   0  0  0  0  0  0  0  0  0  0  0  0
    4.9111    6.3698   23.8536 N   0  0  0  0  0  0  0  0  0  0  0  0
    5.5454    5.1930   23.8976 C   0  0  0  0  0  0  0  0  0  0  0  0
    5.5471    4.6909   24.8616 H   0  0  0  0  0  0  0  0  0  0  0  0
    4.3611    7.9870   22.6602 H   0  0  0  0  0  0  0  0  0  0  0  0
    6.6539    4.9821   20.6662 H   0  0  0  0  0  0  0  0  0  0  0  0
    7.4223    2.6737   21.8924 N   0  0  0  0  0  0  0  0  0  0  0  0
    7.7819    1.5112   22.4070 C   0  0  0  0  0  0  0  0  0  0  0  0
    8.4452    0.4038   21.6396 C   0  0  0  0  0  0  0  0  0  0  0  0
    7.4957   -0.6298   20.9487 C   0  0  0  0  0  0  0  0  0  0  0  0
    6.6743   -1.3903   21.9921 C   0  0  0  0  0  0  0  0  0  0  0  0
    5.9042   -2.0043   21.5135 H   0  0  0  0  0  0  0  0  0  0  0  0
    6.1825   -0.7174   22.7023 H   0  0  0  0  0  0  0  0  0  0  0  0
    7.3324   -2.0548   22.5672 H   0  0  0  0  0  0  0  0  0  0  0  0
    6.6602   -0.0133   19.8320 C   0  0  0  0  0  0  0  0  0  0  0  0
    5.4125    0.5891   20.0472 C   0  0  0  0  0  0  0  0  0  0  0  0
    4.7978    1.2788   19.0003 C   0  0  0  0  0  0  0  0  0  0  0  0
    5.4239    1.3034   17.7539 C   0  0  0  0  0  0  0  0  0  0  0  0
    6.5738    0.6628   17.4929 N   0  0  0  0  0  0  0  0  0  0  0  0
    7.1557    0.0197   18.5133 C   0  0  0  0  0  0  0  0  0  0  0  0
    8.0660   -0.5292   18.2542 H   0  0  0  0  0  0  0  0  0  0  0  0
    4.9777    1.8396   16.9201 H   0  0  0  0  0  0  0  0  0  0  0  0
    3.8533    1.7914   19.1431 H   0  0  0  0  0  0  0  0  0  0  0  0
    4.9418    0.5283   21.0300 H   0  0  0  0  0  0  0  0  0  0  0  0
    8.1488   -1.3716   20.4674 H   0  0  0  0  0  0  0  0  0  0  0  0
    9.1342   -0.1366   22.3014 H   0  0  0  0  0  0  0  0  0  0  0  0
    9.0583    0.8796   20.8705 H   0  0  0  0  0  0  0  0  0  0  0  0
    7.1867    0.8203   25.6288 H   0  0  0  0  0  0  0  0  0  0  0  0
    7.5621   -0.4805   24.4898 H   0  0  0  0  0  0  0  0  0  0  0  0
    9.9314   -0.2068   24.9108 H   0  0  0  0  0  0  0  0  0  0  0  0
   10.8691    1.8058   25.9104 H   0  0  0  0  0  0  0  0  0  0  0  0
    9.2130    2.6359   25.8540 H   0  0  0  0  0  0  0  0  0  0  0  0
  1  2  2  3
  2  3  1  0
  3  4  1  0
  4  5  1  0
  5  6  2  0
  6  7  1  0
  7  8  2  0
  8  9  1  0
  9 10  1  0
  9 11  2  0
 11 12  1  0
 12 13  2  0
 13 14  1  0
 11 15  1  0
  8 16  1  0
  6 17  1  0
 17 18  2  0
 18 19  1  0
 19 20  1  0
 20 21  1  0
 21 22  1  0
 21 23  1  0
 21 24  1  0
 20 25  1  0
 25 26  2  0
 26 27  1  0
 27 28  2  0
 28 29  1  0
 29 30  2  0
 30 31  1  0
 28 32  1  0
 27 33  1  0
 26 34  1  0
 20 35  1  0
 19 36  1  0
 19 37  1  0
  3 38  1  0
  3 39  1  0
  2 40  1  0
  1 41  1  0
  1 42  1  0
 18  4  1  0
 30 25  1  0
 13  7  1  0
M  END
>  <cnnaffinity>  (1) 
-5.6821

>  <filename>  (1) 
C=CCn1nc(-c2cncc(F)c2)nc1CC(C)c1cccnc1

$$$$
