
     RDKit          3D

 34 35  0  0  0  0  0  0  0  0999 V2000
   11.3394   -3.8573   24.8434 H   0  0  0  0  0  0  0  0  0  0  0  0
   10.5667   -3.5933   24.1300 C   0  0  0  0  0  0  0  0  0  0  0  0
   10.0826   -4.4281   23.6198 H   0  0  0  0  0  0  0  0  0  0  0  0
   10.2330   -2.3248   23.8933 C   0  0  0  0  0  0  0  0  0  0  0  0
   10.6943   -1.5095   24.4623 H   0  0  0  0  0  0  0  0  0  0  0  0
    9.2775   -1.9392   22.7883 C   0  0  0  0  0  0  0  0  0  0  0  0
    8.4339   -2.6460   22.7333 H   0  0  0  0  0  0  0  0  0  0  0  0
    9.7998   -2.0087   21.8220 H   0  0  0  0  0  0  0  0  0  0  0  0
    8.7893   -0.6223   22.9823 O   0  0  0  0  0  0  0  0  0  0  0  0
    8.3876    0.1194   21.8059 C   0  0  2  0  0  0  0  0  0  0  0  0
    7.3588   -0.7030   20.9732 C   0  0  0  0  0  0  0  0  0  0  0  0
    7.8845   -1.5772   20.5677 H   0  0  0  0  0  0  0  0  0  0  0  0
    6.6203   -1.0881   21.6855 H   0  0  0  0  0  0  0  0  0  0  0  0
    6.6289   -0.0114   19.8418 C   0  0  0  0  0  0  0  0  0  0  0  0
    7.1126    0.0151   18.5174 C   0  0  0  0  0  0  0  0  0  0  0  0
    8.0374   -0.5080   18.2599 H   0  0  0  0  0  0  0  0  0  0  0  0
    6.5232    0.6574   17.4992 N   0  0  0  0  0  0  0  0  0  0  0  0
    5.3817    1.3137   17.7618 C   0  0  0  0  0  0  0  0  0  0  0  0
    4.9342    1.8598   16.9317 H   0  0  0  0  0  0  0  0  0  0  0  0
    4.7848    1.3183   19.0232 C   0  0  0  0  0  0  0  0  0  0  0  0
    3.8578    1.8564   19.1744 H   0  0  0  0  0  0  0  0  0  0  0  0
    5.4083    0.6426   20.0733 C   0  0  0  0  0  0  0  0  0  0  0  0
    4.9639    0.6296   21.0720 H   0  0  0  0  0  0  0  0  0  0  0  0
    9.6117    0.5895   20.9768 C   0  0  0  0  0  0  0  0  0  0  0  0
    9.2555    0.8853   19.9807 H   0  0  0  0  0  0  0  0  0  0  0  0
   10.3518   -0.2056   20.8390 H   0  0  0  0  0  0  0  0  0  0  0  0
   10.1882    1.7651   21.6456 N   0  0  0  0  0  0  0  0  0  0  0  0
   10.9646    1.4619   22.2249 H   0  0  0  0  0  0  0  0  0  0  0  0
    9.1523    2.3148   22.5498 C   0  0  0  0  0  0  0  0  0  0  0  0
    8.9689    3.3741   22.3208 H   0  0  0  0  0  0  0  0  0  0  0  0
    9.4866    2.2593   23.5933 H   0  0  0  0  0  0  0  0  0  0  0  0
    7.8794    1.4678   22.3365 C   0  0  0  0  0  0  0  0  0  0  0  0
    7.2893    1.3403   23.2479 H   0  0  0  0  0  0  0  0  0  0  0  0
    7.2451    1.9663   21.5931 H   0  0  0  0  0  0  0  0  0  0  0  0
  1  2  1  0
  2  3  1  0
  2  4  2  3
  4  5  1  0
  4  6  1  0
  6  7  1  0
  6  8  1  0
  6  9  1  0
 10  9  1  1
 10 11  1  0
 11 12  1  0
 11 13  1  0
 11 14  1  0
 14 15  2  0
 15 16  1  0
 15 17  1  0
 17 18  2  0
 18 19  1  0
 18 20  1  0
 20 21  1  0
 20 22  2  0
 22 23  1  0
 10 24  1  0
 24 25  1  0
 24 26  1  0
 24 27  1  0
 27 28  1  0
 27 29  1  0
 29 30  1  0
 29 31  1  0
 29 32  1  0
 32 33  1  0
 32 34  1  0
 32 10  1  0
 22 14  1  0
M  END
>  <cnnaffinity>  (1) 
-4.10926

>  <filename>  (1) 
C=CCO[C@@]1(Cc2cccnc2)CCNC1

$$$$
