
     RDKit          3D

 44 47  0  0  0  0  0  0  0  0999 V2000
   13.7874    0.7695   22.7880 C   0  0  0  0  0  0  0  0  0  0  0  0
   12.5032    0.6141   22.4779 C   0  0  0  0  0  0  0  0  0  0  0  0
   11.5104    1.7547   22.2872 C   0  0  0  0  0  0  0  0  0  0  0  0
   11.7632    2.4878   20.9641 C   0  0  0  0  0  0  0  0  0  0  0  0
   12.5200    3.2715   21.0664 H   0  0  0  0  0  0  0  0  0  0  0  0
   10.8436    2.9098   20.5705 H   0  0  0  0  0  0  0  0  0  0  0  0
   12.0862    1.7696   20.2222 H   0  0  0  0  0  0  0  0  0  0  0  0
   10.1093    1.2644   22.3292 N   0  0  0  0  0  0  0  0  0  0  0  0
    9.6913    0.3359   21.4312 N   0  0  0  0  0  0  0  0  0  0  0  0
    8.4035    0.2068   21.6909 C   0  0  0  0  0  0  0  0  0  0  0  0
    7.4941   -0.7027   20.9093 C   0  0  0  0  0  0  0  0  0  0  0  0
    6.7151   -0.0166   19.7878 C   0  0  0  0  0  0  0  0  0  0  0  0
    5.5153    0.6532   20.0670 C   0  0  0  0  0  0  0  0  0  0  0  0
    4.8506    1.3233   19.0358 C   0  0  0  0  0  0  0  0  0  0  0  0
    5.4126    1.3047   17.7559 C   0  0  0  0  0  0  0  0  0  0  0  0
    6.5509    0.6574   17.4599 N   0  0  0  0  0  0  0  0  0  0  0  0
    7.1704    0.0154   18.4581 C   0  0  0  0  0  0  0  0  0  0  0  0
    8.0822   -0.5188   18.1877 H   0  0  0  0  0  0  0  0  0  0  0  0
    4.9252    1.8145   16.9252 H   0  0  0  0  0  0  0  0  0  0  0  0
    3.9171    1.8517   19.2051 H   0  0  0  0  0  0  0  0  0  0  0  0
    5.1162    0.6357   21.0837 H   0  0  0  0  0  0  0  0  0  0  0  0
    6.7851   -1.1273   21.6292 H   0  0  0  0  0  0  0  0  0  0  0  0
    8.0933   -1.5318   20.5202 H   0  0  0  0  0  0  0  0  0  0  0  0
    7.9603    0.9866   22.6988 N   0  0  0  0  0  0  0  0  0  0  0  0
    9.0444    1.6575   23.0803 C   0  0  0  0  0  0  0  0  0  0  0  0
    9.1049    2.7604   24.0976 C   0  0  0  0  0  0  0  0  0  0  0  0
    9.7234    4.0241   23.7972 C   0  0  0  0  0  0  0  0  0  0  0  0
    9.6654    5.0440   24.7263 C   0  0  0  0  0  0  0  0  0  0  0  0
    8.9718    4.8316   25.9516 C   0  0  0  0  0  0  0  0  0  0  0  0
    8.7691    5.8205   26.9636 C   0  0  0  0  0  0  0  0  0  0  0  0
    8.0192    5.5046   28.0738 C   0  0  0  0  0  0  0  0  0  0  0  0
    7.4378    4.2791   28.2761 N   0  0  0  0  0  0  0  0  0  0  0  0
    7.6283    3.3474   27.3641 C   0  0  0  0  0  0  0  0  0  0  0  0
    8.4048    3.5386   26.1594 C   0  0  0  0  0  0  0  0  0  0  0  0
    8.5015    2.5299   25.2488 N   0  0  0  0  0  0  0  0  0  0  0  0
    7.1630    2.3736   27.5156 H   0  0  0  0  0  0  0  0  0  0  0  0
    7.8341    6.2215   28.8686 H   0  0  0  0  0  0  0  0  0  0  0  0
    9.1868    6.8141   26.8289 H   0  0  0  0  0  0  0  0  0  0  0  0
   10.0990    6.0211   24.5314 H   0  0  0  0  0  0  0  0  0  0  0  0
   10.1718    4.1855   22.8195 H   0  0  0  0  0  0  0  0  0  0  0  0
   11.6278    2.4629   23.1115 H   0  0  0  0  0  0  0  0  0  0  0  0
   12.1169   -0.3770   22.2344 H   0  0  0  0  0  0  0  0  0  0  0  0
   14.4656   -0.0775   22.8591 H   0  0  0  0  0  0  0  0  0  0  0  0
   14.2404    1.7445   22.9680 H   0  0  0  0  0  0  0  0  0  0  0  0
  1  2  2  3
  2  3  1  0
  3  4  1  0
  4  5  1  0
  4  6  1  0
  4  7  1  0
  3  8  1  0
  8  9  1  0
  9 10  2  0
 10 11  1  0
 11 12  1  0
 12 13  2  0
 13 14  1  0
 14 15  2  0
 15 16  1  0
 16 17  2  0
 17 18  1  0
 15 19  1  0
 14 20  1  0
 13 21  1  0
 11 22  1  0
 11 23  1  0
 10 24  1  0
 24 25  2  0
 25 26  1  0
 26 27  2  0
 27 28  1  0
 28 29  2  0
 29 30  1  0
 30 31  2  0
 31 32  1  0
 32 33  2  0
 33 34  1  0
 34 35  2  0
 33 36  1  0
 31 37  1  0
 30 38  1  0
 28 39  1  0
 27 40  1  0
  3 41  1  0
  2 42  1  0
  1 43  1  0
  1 44  1  0
 25  8  1  0
 35 26  1  0
 17 12  1  0
 34 29  1  0
M  END
>  <cnnaffinity>  (1) 
-5.96269

>  <filename>  (1) 
C=CC(C)n1nc(Cc2cccnc2)nc1-c1ccc2ccncc2n1

$$$$
