
     RDKit          3D

 34 35  0  0  0  0  0  0  0  0999 V2000
    5.2977   -3.2138   21.9974 C   0  0  0  0  0  0  0  0  0  0  0  0
    5.9917   -2.7914   20.9447 C   0  0  0  0  0  0  0  0  0  0  0  0
    7.2872   -2.0251   21.0905 C   0  0  0  0  0  0  0  0  0  0  0  0
    7.1605   -0.4901   21.1719 C   0  0  1  0  0  0  0  0  0  0  0  0
    8.5129    0.0078   21.2268 N   0  0  0  0  0  0  0  0  0  0  0  0
    8.8610    1.2203   21.6433 C   0  0  0  0  0  0  0  0  0  0  0  0
   10.1888    1.3469   21.7371 N   0  0  0  0  0  0  0  0  0  0  0  0
   10.6373    2.5013   22.2253 C   0  0  0  0  0  0  0  0  0  0  0  0
   12.1806    2.7378   22.3054 C   0  0  0  0  0  0  0  0  0  0  0  0
   12.6122    3.2613   21.1458 F   0  0  0  0  0  0  0  0  0  0  0  0
   12.8813    1.6247   22.5423 F   0  0  0  0  0  0  0  0  0  0  0  0
   12.5154    3.6130   23.2802 F   0  0  0  0  0  0  0  0  0  0  0  0
    9.7516    3.5239   22.5868 C   0  0  0  0  0  0  0  0  0  0  0  0
    8.3988    3.2691   22.3960 C   0  0  0  0  0  0  0  0  0  0  0  0
    7.9272    2.1210   21.9312 N   0  0  0  0  0  0  0  0  0  0  0  0
    7.6407    4.0131   22.6451 H   0  0  0  0  0  0  0  0  0  0  0  0
   10.0922    4.4760   22.9570 H   0  0  0  0  0  0  0  0  0  0  0  0
    9.3432   -0.5539   21.2319 H   0  0  0  0  0  0  0  0  0  0  0  0
    6.4438    0.1690   20.0068 C   0  0  0  0  0  0  0  0  0  0  0  0
    5.1932    0.8049   20.1033 C   0  0  0  0  0  0  0  0  0  0  0  0
    4.6439    1.3968   18.9596 C   0  0  0  0  0  0  0  0  0  0  0  0
    5.3630    1.3355   17.7617 C   0  0  0  0  0  0  0  0  0  0  0  0
    6.5615    0.7459   17.6528 N   0  0  0  0  0  0  0  0  0  0  0  0
    7.0877    0.2127   18.7609 C   0  0  0  0  0  0  0  0  0  0  0  0
    8.0888   -0.2000   18.6360 H   0  0  0  0  0  0  0  0  0  0  0  0
    4.9757    1.7873   16.8495 H   0  0  0  0  0  0  0  0  0  0  0  0
    3.6937    1.9223   18.9857 H   0  0  0  0  0  0  0  0  0  0  0  0
    4.6682    0.8746   21.0612 H   0  0  0  0  0  0  0  0  0  0  0  0
    6.6219   -0.2280   22.0985 H   0  0  0  0  0  0  0  0  0  0  0  0
    7.8052   -2.3527   22.0022 H   0  0  0  0  0  0  0  0  0  0  0  0
    7.9734   -2.2159   20.2644 H   0  0  0  0  0  0  0  0  0  0  0  0
    5.6100   -2.9309   19.9303 H   0  0  0  0  0  0  0  0  0  0  0  0
    5.6822   -3.0576   23.0032 H   0  0  0  0  0  0  0  0  0  0  0  0
    4.3406   -3.7255   21.9458 H   0  0  0  0  0  0  0  0  0  0  0  0
  1  2  2  3
  2  3  1  0
  3  4  1  0
  4  5  1  0
  5  6  1  0
  6  7  2  0
  7  8  1  0
  8  9  1  0
  9 10  1  0
  9 11  1  0
  9 12  1  0
  8 13  2  0
 13 14  1  0
 14 15  2  0
 14 16  1  0
 13 17  1  0
  5 18  1  0
  4 19  1  0
 19 20  2  0
 20 21  1  0
 21 22  2  0
 22 23  1  0
 23 24  2  0
 24 25  1  0
 22 26  1  0
 21 27  1  0
 20 28  1  0
  4 29  1  1
  3 30  1  0
  3 31  1  0
  2 32  1  0
  1 33  1  0
  1 34  1  0
 15  6  1  0
 24 19  1  0
M  END
>  <cnnaffinity>  (1) 
-5.04711

>  <filename>  (1) 
C=CC[C@@H](Nc1nccc(C(F)(F)F)n1)c1cccnc1

$$$$
