
     RDKit          3D

 43 44  0  0  0  0  0  0  0  0999 V2000
   -0.1777   -1.2924   29.1983 C   0  0  0  0  0  0  0  0  0  0  0  0
    0.6388   -2.1213   28.5543 C   0  0  0  0  0  0  0  0  0  0  0  0
    2.1460   -2.0851   28.6970 C   0  0  0  0  0  0  0  0  0  0  0  0
    2.8563   -3.1526   27.8690 C   0  0  0  0  0  0  0  0  0  0  0  0
    4.2573   -3.0717   28.0499 O   0  0  0  0  0  0  0  0  0  0  0  0
    4.9448   -2.2289   27.1421 C   0  0  0  0  0  0  0  0  0  0  0  0
    5.4150   -3.0756   25.9736 C   0  0  0  0  0  0  0  0  0  0  0  0
    6.1616   -2.2920   24.9659 N   0  0  0  0  0  4  0  0  0  0  0  0
    6.6426   -3.0987   23.8314 C   0  0  0  0  0  0  0  0  0  0  0  0
    7.3547   -2.1779   22.8976 C   0  0  0  0  0  0  0  0  0  0  0  0
    8.7381   -1.9759   23.0079 C   0  0  0  0  0  0  0  0  0  0  0  0
    9.4321   -1.1987   22.1699 N   0  0  0  0  0  0  0  0  0  0  0  0
    8.7668   -0.5866   21.1845 C   0  0  0  0  0  0  0  0  0  0  0  0
    7.3781   -0.7012   20.9783 C   0  0  0  0  0  0  0  0  0  0  0  0
    6.6610    0.0166   19.8899 C   0  0  0  0  0  0  0  0  0  0  0  0
    5.4368    0.6574   20.1360 C   0  0  0  0  0  0  0  0  0  0  0  0
    4.7997    1.3205   19.0886 C   0  0  0  0  0  0  0  0  0  0  0  0
    5.3858    1.3061   17.8192 C   0  0  0  0  0  0  0  0  0  0  0  0
    6.5460    0.6831   17.5555 N   0  0  0  0  0  0  0  0  0  0  0  0
    7.1592    0.0715   18.5728 C   0  0  0  0  0  0  0  0  0  0  0  0
    8.1025   -0.4208   18.3317 H   0  0  0  0  0  0  0  0  0  0  0  0
    4.9168    1.8087   16.9751 H   0  0  0  0  0  0  0  0  0  0  0  0
    3.8689    1.8504   19.2378 H   0  0  0  0  0  0  0  0  0  0  0  0
    5.0180    0.6471   21.1426 H   0  0  0  0  0  0  0  0  0  0  0  0
    6.6737   -1.5206   21.8658 C   0  0  0  0  0  0  0  0  0  0  0  0
    5.6041   -1.6637   21.7045 H   0  0  0  0  0  0  0  0  0  0  0  0
    9.3637    0.0449   20.5279 H   0  0  0  0  0  0  0  0  0  0  0  0
    9.3349   -2.4867   23.7688 H   0  0  0  0  0  0  0  0  0  0  0  0
    7.2997   -3.8982   24.1900 H   0  0  0  0  0  0  0  0  0  0  0  0
    5.7924   -3.5718   23.3292 H   0  0  0  0  0  0  0  0  0  0  0  0
    5.5725   -1.5225   24.5371 H   0  0  0  0  0  0  0  0  0  0  0  0
    7.0019   -1.8024   25.3725 H   0  0  0  0  0  0  0  0  0  0  0  0
    6.0182   -3.8954   26.3867 H   0  0  0  0  0  0  0  0  0  0  0  0
    4.5400   -3.5741   25.5277 H   0  0  0  0  0  0  0  0  0  0  0  0
    5.8028   -1.8105   27.6819 H   0  0  0  0  0  0  0  0  0  0  0  0
    4.3193   -1.3939   26.7800 H   0  0  0  0  0  0  0  0  0  0  0  0
    2.5560   -4.1551   28.2008 H   0  0  0  0  0  0  0  0  0  0  0  0
    2.5711   -3.0523   26.8042 H   0  0  0  0  0  0  0  0  0  0  0  0
    2.5284   -1.0896   28.4198 H   0  0  0  0  0  0  0  0  0  0  0  0
    2.4481   -2.2087   29.7466 H   0  0  0  0  0  0  0  0  0  0  0  0
    0.2093   -2.8791   27.8843 H   0  0  0  0  0  0  0  0  0  0  0  0
    0.2061   -0.5302   29.8770 H   0  0  0  0  0  0  0  0  0  0  0  0
   -1.2604   -1.3311   29.0961 H   0  0  0  0  0  0  0  0  0  0  0  0
  1  2  2  3
  2  3  1  0
  3  4  1  0
  4  5  1  0
  5  6  1  0
  6  7  1  0
  7  8  1  0
  8  9  1  0
  9 10  1  0
 10 11  2  0
 11 12  1  0
 12 13  2  0
 13 14  1  0
 14 15  1  0
 15 16  2  0
 16 17  1  0
 17 18  2  0
 18 19  1  0
 19 20  2  0
 20 21  1  0
 18 22  1  0
 17 23  1  0
 16 24  1  0
 14 25  2  0
 25 26  1  0
 13 27  1  0
 11 28  1  0
  9 29  1  0
  9 30  1  0
  8 31  1  0
  8 32  1  0
  7 33  1  0
  7 34  1  0
  6 35  1  0
  6 36  1  0
  4 37  1  0
  4 38  1  0
  3 39  1  0
  3 40  1  0
  2 41  1  0
  1 42  1  0
  1 43  1  0
 25 10  1  0
 20 15  1  0
M  CHG  1   8   1
M  END
>  <cnnaffinity>  (1) 
-4.65227

>  <filename>  (1) 
C=CCCOCC[NH2+]Cc1cncc(-c2cccnc2)c1

$$$$
