
     RDKit          3D

 43 46  0  0  0  0  0  0  0  0999 V2000
   12.4355   -1.5835   22.1014 C   0  0  0  0  0  0  0  0  0  0  0  0
   11.1419   -1.3324   22.2752 C   0  0  0  0  0  0  0  0  0  0  0  0
   10.0205   -2.3436   22.0822 C   0  0  0  0  0  0  0  0  0  0  0  0
    8.6982   -1.7253   21.9835 N   0  0  0  0  0  0  0  0  0  0  0  0
    8.3201   -1.2694   20.7716 N   0  0  0  0  0  0  0  0  0  0  0  0
    7.1800   -0.6474   21.0136 C   0  0  0  0  0  0  0  0  0  0  0  0
    6.4668    0.0432   19.9438 C   0  0  0  0  0  0  0  0  0  0  0  0
    5.2592    0.7406   20.1063 C   0  0  0  0  0  0  0  0  0  0  0  0
    4.7316    1.3842   18.9849 C   0  0  0  0  0  0  0  0  0  0  0  0
    5.4256    1.3159   17.7690 C   0  0  0  0  0  0  0  0  0  0  0  0
    6.5732    0.6435   17.6052 N   0  0  0  0  0  0  0  0  0  0  0  0
    7.0724    0.0275   18.6769 C   0  0  0  0  0  0  0  0  0  0  0  0
    8.0070   -0.5099   18.5386 H   0  0  0  0  0  0  0  0  0  0  0  0
    5.0480    1.8207   16.8826 H   0  0  0  0  0  0  0  0  0  0  0  0
    3.8097    1.9567   19.0300 H   0  0  0  0  0  0  0  0  0  0  0  0
    4.7491    0.7990   21.0718 H   0  0  0  0  0  0  0  0  0  0  0  0
    6.7887   -0.6972   22.3088 N   0  0  0  0  0  0  0  0  0  0  0  0
    7.7599   -1.3791   22.8954 C   0  0  0  0  0  0  0  0  0  0  0  0
    7.7517   -1.8313   24.3151 C   0  0  0  0  0  0  0  0  0  0  0  0
    7.1028   -3.2049   24.5140 C   0  0  0  0  0  0  0  0  0  0  0  0
    5.6036   -3.2615   24.1794 C   0  0  0  0  0  0  0  0  0  0  0  0
    5.0961   -4.5746   24.4224 O   0  0  0  0  0  0  0  0  0  0  0  0
    5.4237   -5.0652   25.6649 C   0  0  0  0  0  0  0  0  0  0  0  0
    4.6502   -6.0868   26.2190 C   0  0  0  0  0  0  0  0  0  0  0  0
    5.0066   -6.6406   27.4552 C   0  0  0  0  0  0  0  0  0  0  0  0
    6.1437   -6.1799   28.1302 C   0  0  0  0  0  0  0  0  0  0  0  0
    6.9059   -5.1360   27.5961 C   0  0  0  0  0  0  0  0  0  0  0  0
    6.5474   -4.5710   26.3719 C   0  0  0  0  0  0  0  0  0  0  0  0
    7.2784   -3.5104   25.9027 O   0  0  0  0  0  0  0  0  0  0  0  0
    7.7818   -4.7379   28.0975 H   0  0  0  0  0  0  0  0  0  0  0  0
    6.4407   -6.6298   29.0736 H   0  0  0  0  0  0  0  0  0  0  0  0
    4.4021   -7.4347   27.8872 H   0  0  0  0  0  0  0  0  0  0  0  0
    3.7751   -6.4212   25.6697 H   0  0  0  0  0  0  0  0  0  0  0  0
    5.0650   -2.5413   24.8129 H   0  0  0  0  0  0  0  0  0  0  0  0
    5.4112   -3.0304   23.1298 H   0  0  0  0  0  0  0  0  0  0  0  0
    7.6215   -3.9765   23.9240 H   0  0  0  0  0  0  0  0  0  0  0  0
    8.7631   -1.8621   24.7353 H   0  0  0  0  0  0  0  0  0  0  0  0
    7.1988   -1.0859   24.8911 H   0  0  0  0  0  0  0  0  0  0  0  0
   10.1468   -2.8580   21.1258 H   0  0  0  0  0  0  0  0  0  0  0  0
   10.0161   -3.0956   22.8818 H   0  0  0  0  0  0  0  0  0  0  0  0
   10.8390   -0.3182   22.5464 H   0  0  0  0  0  0  0  0  0  0  0  0
   13.1875   -0.8130   22.2557 H   0  0  0  0  0  0  0  0  0  0  0  0
   12.8377   -2.5652   21.8578 H   0  0  0  0  0  0  0  0  0  0  0  0
  1  2  2  3
  2  3  1  0
  3  4  1  0
  4  5  1  0
  5  6  2  0
  6  7  1  0
  7  8  2  0
  8  9  1  0
  9 10  2  0
 10 11  1  0
 11 12  2  0
 12 13  1  0
 10 14  1  0
  9 15  1  0
  8 16  1  0
  6 17  1  0
 17 18  2  0
 18 19  1  0
 19 20  1  0
 20 21  1  0
 21 22  1  0
 22 23  1  0
 23 24  2  0
 24 25  1  0
 25 26  2  0
 26 27  1  0
 27 28  2  0
 28 29  1  0
 27 30  1  0
 26 31  1  0
 25 32  1  0
 24 33  1  0
 21 34  1  0
 21 35  1  0
 20 36  1  0
 19 37  1  0
 19 38  1  0
  3 39  1  0
  3 40  1  0
  2 41  1  0
  1 42  1  0
  1 43  1  0
 18  4  1  0
 29 20  1  0
 12  7  1  0
 28 23  1  0
M  END
>  <cnnaffinity>  (1) 
-5.96864

>  <filename>  (1) 
C=CCn1nc(-c2cccnc2)nc1CC1COc2ccccc2O1

$$$$
