
     RDKit          3D

 34 35  0  0  0  0  0  0  0  0999 V2000
    5.3828   -3.4924   22.0732 C   0  0  0  0  0  0  0  0  0  0  0  0
    5.9131   -2.8789   21.0139 C   0  0  0  0  0  0  0  0  0  0  0  0
    7.1770   -2.0491   21.0821 C   0  0  0  0  0  0  0  0  0  0  0  0
    7.0142   -0.5135   21.2023 C   0  0  1  0  0  0  0  0  0  0  0  0
    8.3439    0.0229   21.3907 N   0  0  0  0  0  0  0  0  0  0  0  0
    8.7029    1.2379   21.8026 C   0  0  0  0  0  0  0  0  0  0  0  0
   10.0302    1.3722   21.8337 N   0  0  0  0  0  0  0  0  0  0  0  0
   10.5002    2.5156   22.3263 C   0  0  0  0  0  0  0  0  0  0  0  0
   12.0511    2.7358   22.2735 C   0  0  0  0  0  0  0  0  0  0  0  0
   12.4953    3.5525   23.2398 F   0  0  0  0  0  0  0  0  0  0  0  0
   12.3993    3.2959   21.0995 F   0  0  0  0  0  0  0  0  0  0  0  0
   12.7382    1.5856   22.3855 F   0  0  0  0  0  0  0  0  0  0  0  0
    9.7430    3.5087   22.8074 N   0  0  0  0  0  0  0  0  0  0  0  0
    8.4162    3.3586   22.7144 C   0  0  0  0  0  0  0  0  0  0  0  0
    7.8214    2.2368   22.1816 C   0  0  0  0  0  0  0  0  0  0  0  0
    6.7631    2.0962   22.0509 H   0  0  0  0  0  0  0  0  0  0  0  0
    7.8207    4.1828   23.0958 H   0  0  0  0  0  0  0  0  0  0  0  0
    9.1912   -0.4999   21.2601 H   0  0  0  0  0  0  0  0  0  0  0  0
    6.3673    0.1646   20.0063 C   0  0  0  0  0  0  0  0  0  0  0  0
    5.1219    0.8043   20.0664 C   0  0  0  0  0  0  0  0  0  0  0  0
    4.6147    1.4133   18.9164 C   0  0  0  0  0  0  0  0  0  0  0  0
    5.3647    1.3577   17.7398 C   0  0  0  0  0  0  0  0  0  0  0  0
    6.5644    0.7646   17.6642 N   0  0  0  0  0  0  0  0  0  0  0  0
    7.0523    0.2104   18.7806 C   0  0  0  0  0  0  0  0  0  0  0  0
    8.0562   -0.2071   18.6824 H   0  0  0  0  0  0  0  0  0  0  0  0
    5.0037    1.8340   16.8294 H   0  0  0  0  0  0  0  0  0  0  0  0
    3.6770    1.9542   18.9286 H   0  0  0  0  0  0  0  0  0  0  0  0
    4.5663    0.8470   21.0060 H   0  0  0  0  0  0  0  0  0  0  0  0
    6.3999   -0.3054   22.0950 H   0  0  0  0  0  0  0  0  0  0  0  0
    7.7944   -2.2070   20.1985 H   0  0  0  0  0  0  0  0  0  0  0  0
    7.7842   -2.3750   21.9376 H   0  0  0  0  0  0  0  0  0  0  0  0
    5.4195   -2.9451   20.0394 H   0  0  0  0  0  0  0  0  0  0  0  0
    4.4405   -4.0356   22.0398 H   0  0  0  0  0  0  0  0  0  0  0  0
    5.8915   -3.4890   23.0368 H   0  0  0  0  0  0  0  0  0  0  0  0
  1  2  2  3
  2  3  1  0
  3  4  1  0
  4  5  1  0
  5  6  1  0
  6  7  2  0
  7  8  1  0
  8  9  1  0
  9 10  1  0
  9 11  1  0
  9 12  1  0
  8 13  2  0
 13 14  1  0
 14 15  2  0
 15 16  1  0
 14 17  1  0
  5 18  1  0
  4 19  1  0
 19 20  2  0
 20 21  1  0
 21 22  2  0
 22 23  1  0
 23 24  2  0
 24 25  1  0
 22 26  1  0
 21 27  1  0
 20 28  1  0
  4 29  1  1
  3 30  1  0
  3 31  1  0
  2 32  1  0
  1 33  1  0
  1 34  1  0
 15  6  1  0
 24 19  1  0
M  END
>  <cnnaffinity>  (1) 
-4.76028

>  <filename>  (1) 
C=CC[C@@H](Nc1ccnc(C(F)(F)F)n1)c1cccnc1

$$$$
