
     RDKit          3D

 45 48  0  0  0  0  0  0  0  0999 V2000
   13.3278   -0.6880   22.3659 C   0  0  0  0  0  0  0  0  0  0  0  0
   12.3417   -0.0402   22.9882 C   0  0  0  0  0  0  0  0  0  0  0  0
   12.2785    1.4518   23.1913 C   0  0  0  0  0  0  0  0  0  0  0  0
   11.4005    2.1218   22.1043 C   0  0  0  0  0  0  0  0  0  0  0  0
   10.0096    1.5668   22.0169 C   0  0  0  0  0  0  0  0  0  0  0  0
    9.5911    0.6655   21.1406 N   0  0  0  0  0  0  0  0  0  0  0  0
    8.3634    0.3180   21.6145 C   0  0  0  0  0  0  0  0  0  0  0  0
    7.4383   -0.6594   20.9479 C   0  0  0  0  0  0  0  0  0  0  0  0
    6.6323   -0.0338   19.8194 C   0  0  0  0  0  0  0  0  0  0  0  0
    5.4268    0.6317   20.0757 C   0  0  0  0  0  0  0  0  0  0  0  0
    4.7979    1.3129   19.0313 C   0  0  0  0  0  0  0  0  0  0  0  0
    5.3956    1.3058   17.7680 C   0  0  0  0  0  0  0  0  0  0  0  0
    6.5350    0.6520   17.4926 N   0  0  0  0  0  0  0  0  0  0  0  0
    7.1233    0.0032   18.5039 C   0  0  0  0  0  0  0  0  0  0  0  0
    8.0503   -0.5195   18.2644 H   0  0  0  0  0  0  0  0  0  0  0  0
    4.9428    1.8450   16.9375 H   0  0  0  0  0  0  0  0  0  0  0  0
    3.8697    1.8522   19.1858 H   0  0  0  0  0  0  0  0  0  0  0  0
    4.9933    0.6184   21.0786 H   0  0  0  0  0  0  0  0  0  0  0  0
    8.0403   -1.4957   20.5820 H   0  0  0  0  0  0  0  0  0  0  0  0
    6.7622   -1.0337   21.7247 H   0  0  0  0  0  0  0  0  0  0  0  0
    7.9985    0.9390   22.7109 N   0  0  0  0  0  0  0  0  0  0  0  0
    9.0256    1.7980   22.9355 N   0  0  0  0  0  0  0  0  0  0  0  0
    8.9422    2.7327   24.0089 C   0  0  0  0  0  0  0  0  0  0  0  0
    8.7943    2.2473   25.2922 C   0  0  0  0  0  0  0  0  0  0  0  0
    8.7954    3.1315   26.3972 C   0  0  0  0  0  0  0  0  0  0  0  0
    8.9505    4.4856   26.2084 C   0  0  0  0  0  0  0  0  0  0  0  0
    9.0658    5.0173   24.8945 C   0  0  0  0  0  0  0  0  0  0  0  0
    9.2293    6.4072   24.6427 C   0  0  0  0  0  0  0  0  0  0  0  0
    9.1951    6.8666   23.3517 C   0  0  0  0  0  0  0  0  0  0  0  0
    8.9847    6.0734   22.2723 N   0  0  0  0  0  0  0  0  0  0  0  0
    8.8545    4.7720   22.4798 C   0  0  0  0  0  0  0  0  0  0  0  0
    8.9729    4.1484   23.7642 C   0  0  0  0  0  0  0  0  0  0  0  0
    8.6246    4.1597   21.6089 H   0  0  0  0  0  0  0  0  0  0  0  0
    9.3223    7.9248   23.1463 H   0  0  0  0  0  0  0  0  0  0  0  0
    9.3758    7.0908   25.4703 H   0  0  0  0  0  0  0  0  0  0  0  0
    8.9214    5.1756   27.0468 H   0  0  0  0  0  0  0  0  0  0  0  0
    8.6286    2.7141   27.3887 H   0  0  0  0  0  0  0  0  0  0  0  0
    8.6417    1.1847   25.4487 H   0  0  0  0  0  0  0  0  0  0  0  0
   11.3571    3.2051   22.2586 H   0  0  0  0  0  0  0  0  0  0  0  0
   11.8687    1.9563   21.1314 H   0  0  0  0  0  0  0  0  0  0  0  0
   11.8886    1.6885   24.1885 H   0  0  0  0  0  0  0  0  0  0  0  0
   13.2915    1.8694   23.1519 H   0  0  0  0  0  0  0  0  0  0  0  0
   11.4430   -0.5938   23.2712 H   0  0  0  0  0  0  0  0  0  0  0  0
   14.2038   -0.1693   21.9858 H   0  0  0  0  0  0  0  0  0  0  0  0
   13.2934   -1.7584   22.1884 H   0  0  0  0  0  0  0  0  0  0  0  0
  1  2  2  3
  2  3  1  0
  3  4  1  0
  4  5  1  0
  5  6  2  0
  6  7  1  0
  7  8  1  0
  8  9  1  0
  9 10  2  0
 10 11  1  0
 11 12  2  0
 12 13  1  0
 13 14  2  0
 14 15  1  0
 12 16  1  0
 11 17  1  0
 10 18  1  0
  8 19  1  0
  8 20  1  0
  7 21  2  0
 21 22  1  0
 22 23  1  0
 23 24  2  0
 24 25  1  0
 25 26  2  0
 26 27  1  0
 27 28  2  0
 28 29  1  0
 29 30  2  0
 30 31  1  0
 31 32  2  0
 31 33  1  0
 29 34  1  0
 28 35  1  0
 26 36  1  0
 25 37  1  0
 24 38  1  0
  4 39  1  0
  4 40  1  0
  3 41  1  0
  3 42  1  0
  2 43  1  0
  1 44  1  0
  1 45  1  0
 22  5  1  0
 32 23  1  0
 14  9  1  0
 32 27  1  0
M  END
>  <cnnaffinity>  (1) 
-6.26947

>  <filename>  (1) 
C=CCCc1nc(Cc2cccnc2)nn1-c1cccc2ccncc12

$$$$
