
     RDKit          3D

 45 47  0  0  0  0  0  0  0  0999 V2000
    7.3803   -0.5812   26.4627 C   0  0  0  0  0  0  0  0  0  0  0  0
    7.2391   -0.5739   25.1369 C   0  0  0  0  0  0  0  0  0  0  0  0
    7.4642   -1.7977   24.2595 C   0  0  0  0  0  0  0  0  0  0  0  0
    6.3723   -2.8575   24.4616 C   0  0  0  0  0  0  0  0  0  0  0  0
    6.3034   -3.1177   25.5242 H   0  0  0  0  0  0  0  0  0  0  0  0
    5.4008   -2.4672   24.1468 H   0  0  0  0  0  0  0  0  0  0  0  0
    6.5876   -3.7666   23.8940 H   0  0  0  0  0  0  0  0  0  0  0  0
    7.6053   -1.4244   22.8399 N   0  0  0  0  0  0  0  0  0  0  0  0
    6.6218   -0.7072   22.2308 N   0  0  0  0  0  0  0  0  0  0  0  0
    7.0316   -0.6324   20.9821 C   0  0  0  0  0  0  0  0  0  0  0  0
    6.3651    0.0945   19.9106 C   0  0  0  0  0  0  0  0  0  0  0  0
    5.1655    0.8097   20.0499 C   0  0  0  0  0  0  0  0  0  0  0  0
    4.6658    1.4501   18.9171 C   0  0  0  0  0  0  0  0  0  0  0  0
    5.3768    1.3669   17.7134 C   0  0  0  0  0  0  0  0  0  0  0  0
    6.5281    0.6933   17.5788 N   0  0  0  0  0  0  0  0  0  0  0  0
    7.0057    0.0798   18.6619 C   0  0  0  0  0  0  0  0  0  0  0  0
    7.9480   -0.4491   18.5354 H   0  0  0  0  0  0  0  0  0  0  0  0
    5.0042    1.8565   16.8172 H   0  0  0  0  0  0  0  0  0  0  0  0
    3.7428    2.0176   18.9485 H   0  0  0  0  0  0  0  0  0  0  0  0
    4.6534    0.8700   21.0134 H   0  0  0  0  0  0  0  0  0  0  0  0
    8.1986   -1.2699   20.7384 N   0  0  0  0  0  0  0  0  0  0  0  0
    8.5575   -1.7302   21.9206 C   0  0  0  0  0  0  0  0  0  0  0  0
    9.9243   -2.2999   22.0976 C   0  0  0  0  0  0  0  0  0  0  0  0
   10.9992   -1.1865   22.2143 C   0  0  0  0  0  0  0  0  0  0  0  0
   12.4060   -1.7733   22.0230 C   0  0  0  0  0  0  0  0  0  0  0  0
   12.5672   -2.0017   20.9621 H   0  0  0  0  0  0  0  0  0  0  0  0
   12.5293   -2.7131   22.5728 H   0  0  0  0  0  0  0  0  0  0  0  0
   13.1847   -1.0686   22.3298 H   0  0  0  0  0  0  0  0  0  0  0  0
   10.8201   -0.3320   23.4597 C   0  0  0  0  0  0  0  0  0  0  0  0
   10.7930    1.0686   23.3686 C   0  0  0  0  0  0  0  0  0  0  0  0
   10.6225    1.8273   24.5271 C   0  0  0  0  0  0  0  0  0  0  0  0
   10.4624    1.2995   25.7428 N   0  0  0  0  0  0  0  0  0  0  0  0
   10.4896   -0.0366   25.8316 C   0  0  0  0  0  0  0  0  0  0  0  0
   10.6658   -0.8808   24.7320 C   0  0  0  0  0  0  0  0  0  0  0  0
   10.6777   -1.9581   24.8498 H   0  0  0  0  0  0  0  0  0  0  0  0
   10.3110   -0.4193   26.8378 H   0  0  0  0  0  0  0  0  0  0  0  0
   10.6102    2.9145   24.4837 H   0  0  0  0  0  0  0  0  0  0  0  0
   10.9002    1.5479   22.4026 H   0  0  0  0  0  0  0  0  0  0  0  0
   10.8262   -0.5065   21.3715 H   0  0  0  0  0  0  0  0  0  0  0  0
   10.1257   -2.8316   21.1677 H   0  0  0  0  0  0  0  0  0  0  0  0
    9.9820   -3.0324   22.9066 H   0  0  0  0  0  0  0  0  0  0  0  0
    8.4121   -2.2478   24.5618 H   0  0  0  0  0  0  0  0  0  0  0  0
    6.9384    0.3334   24.6173 H   0  0  0  0  0  0  0  0  0  0  0  0
    7.7435   -1.4507   27.0176 H   0  0  0  0  0  0  0  0  0  0  0  0
    7.2067    0.3167   27.0541 H   0  0  0  0  0  0  0  0  0  0  0  0
  1  2  2  3
  2  3  1  0
  3  4  1  0
  4  5  1  0
  4  6  1  0
  4  7  1  0
  3  8  1  0
  8  9  1  0
  9 10  2  0
 10 11  1  0
 11 12  2  0
 12 13  1  0
 13 14  2  0
 14 15  1  0
 15 16  2  0
 16 17  1  0
 14 18  1  0
 13 19  1  0
 12 20  1  0
 10 21  1  0
 21 22  2  0
 22 23  1  0
 23 24  1  0
 24 25  1  0
 25 26  1  0
 25 27  1  0
 25 28  1  0
 24 29  1  0
 29 30  2  0
 30 31  1  0
 31 32  2  0
 32 33  1  0
 33 34  2  0
 34 35  1  0
 33 36  1  0
 31 37  1  0
 30 38  1  0
 24 39  1  0
 23 40  1  0
 23 41  1  0
  3 42  1  0
  2 43  1  0
  1 44  1  0
  1 45  1  0
 22  8  1  0
 34 29  1  0
 16 11  1  0
M  END
>  <cnnaffinity>  (1) 
-6.12573

>  <filename>  (1) 
C=CC(C)n1nc(-c2cccnc2)nc1CC(C)c1ccncc1

$$$$
