
     RDKit          3D

 25 25  0  0  0  0  0  0  0  0999 V2000
   10.7187    0.3438   23.8820 H   0  0  0  0  0  0  0  0  0  0  0  0
   11.2719    0.7258   23.0277 C   0  0  0  0  0  0  0  0  0  0  0  0
   11.6849    1.7279   23.1109 H   0  0  0  0  0  0  0  0  0  0  0  0
   11.3957    0.0047   21.9211 C   0  0  0  0  0  0  0  0  0  0  0  0
   11.9088    0.4284   21.0674 H   0  0  0  0  0  0  0  0  0  0  0  0
   10.7912   -1.3702   21.7672 C   0  0  0  0  0  0  0  0  0  0  0  0
   11.1100   -2.0238   22.5817 H   0  0  0  0  0  0  0  0  0  0  0  0
   11.0859   -1.8457   20.8312 H   0  0  0  0  0  0  0  0  0  0  0  0
    9.3665   -1.4178   21.9077 O   0  0  0  0  0  0  0  0  0  0  0  0
    8.7387   -0.7816   20.8463 N   0  0  0  0  0  0  0  0  0  0  0  0
    7.4619   -0.7081   20.9856 C   0  0  0  0  0  0  0  0  0  0  0  0
    6.6985    0.0152   19.9229 C   0  0  0  0  0  0  0  0  0  0  0  0
    7.1939    0.0617   18.6065 C   0  0  0  0  0  0  0  0  0  0  0  0
    8.1361   -0.4192   18.3663 H   0  0  0  0  0  0  0  0  0  0  0  0
    6.5671    0.6616   17.5871 N   0  0  0  0  0  0  0  0  0  0  0  0
    5.4088    1.2815   17.8478 C   0  0  0  0  0  0  0  0  0  0  0  0
    4.9311    1.7771   17.0034 H   0  0  0  0  0  0  0  0  0  0  0  0
    4.8220    1.3006   19.1156 C   0  0  0  0  0  0  0  0  0  0  0  0
    3.8899    1.8293   19.2611 H   0  0  0  0  0  0  0  0  0  0  0  0
    5.4638    0.6438   20.1673 C   0  0  0  0  0  0  0  0  0  0  0  0
    5.0056    0.6371   21.1593 H   0  0  0  0  0  0  0  0  0  0  0  0
    6.6826   -1.2899   22.1419 C   0  0  0  0  0  0  0  0  0  0  0  0
    6.5664   -0.5447   22.9376 H   0  0  0  0  0  0  0  0  0  0  0  0
    7.1882   -2.1574   22.5725 H   0  0  0  0  0  0  0  0  0  0  0  0
    5.6890   -1.5839   21.8051 H   0  0  0  0  0  0  0  0  0  0  0  0
  1  2  1  0
  2  3  1  0
  2  4  2  3
  4  5  1  0
  4  6  1  0
  6  7  1  0
  6  8  1  0
  6  9  1  0
  9 10  1  0
 10 11  2  3
 11 12  1  0
 12 13  2  0
 13 14  1  0
 13 15  1  0
 15 16  2  0
 16 17  1  0
 16 18  1  0
 18 19  1  0
 18 20  2  0
 20 21  1  0
 11 22  1  0
 22 23  1  0
 22 24  1  0
 22 25  1  0
 20 12  1  0
M  END
>  <cnnaffinity>  (1) 
-4.43754

>  <filename>  (1) 
C=CCON=C(C)c1cccnc1

$$$$
