
     RDKit          3D

 34 35  0  0  0  0  0  0  0  0999 V2000
    4.9789    1.7719   17.0195 H   0  0  0  0  0  0  0  0  0  0  0  0
    5.4142    1.2656   17.8798 C   0  0  0  0  0  0  0  0  0  0  0  0
    6.5731    0.6341   17.6490 N   0  0  0  0  0  0  0  0  0  0  0  0
    7.1544    0.0151   18.6781 C   0  0  0  0  0  0  0  0  0  0  0  0
    8.1202   -0.4458   18.4779 H   0  0  0  0  0  0  0  0  0  0  0  0
    6.6054   -0.0454   19.9628 C   0  0  0  0  0  0  0  0  0  0  0  0
    7.4383   -0.7594   20.9685 C   0  0  0  0  0  0  0  0  0  0  0  0
    8.6555   -0.8428   20.8536 O   0  0  0  0  0  0  0  0  0  0  0  0
    6.7601   -1.3217   21.9976 N   0  0  0  0  0  0  0  0  0  0  0  0
    5.7595   -1.2113   21.9902 H   0  0  0  0  0  0  0  0  0  0  0  0
    7.4127   -1.7678   23.2255 C   0  0  2  0  0  0  0  0  0  0  0  0
    8.3072   -2.3284   22.9219 H   0  0  0  0  0  0  0  0  0  0  0  0
    6.4773   -2.6734   24.0169 C   0  0  0  0  0  0  0  0  0  0  0  0
    6.9988   -3.0742   24.8959 H   0  0  0  0  0  0  0  0  0  0  0  0
    5.5936   -2.1286   24.3747 H   0  0  0  0  0  0  0  0  0  0  0  0
    6.1436   -3.5148   23.4013 H   0  0  0  0  0  0  0  0  0  0  0  0
    7.9601   -0.5934   24.0842 C   0  0  0  0  0  0  0  0  0  0  0  0
    8.4943   -1.0246   24.9395 H   0  0  0  0  0  0  0  0  0  0  0  0
    8.7093   -0.0773   23.4724 H   0  0  0  0  0  0  0  0  0  0  0  0
    6.9192    0.3960   24.5688 C   0  0  0  0  0  0  0  0  0  0  0  0
    6.5019    1.4314   23.7088 C   0  0  0  0  0  0  0  0  0  0  0  0
    6.9861    1.5187   22.7376 H   0  0  0  0  0  0  0  0  0  0  0  0
    5.5025    2.3368   24.0727 C   0  0  0  0  0  0  0  0  0  0  0  0
    5.2159    3.1282   23.3834 H   0  0  0  0  0  0  0  0  0  0  0  0
    4.8869    2.2285   25.3255 C   0  0  0  0  0  0  0  0  0  0  0  0
    4.1106    2.9324   25.6190 H   0  0  0  0  0  0  0  0  0  0  0  0
    5.2857    1.2214   26.2074 C   0  0  0  0  0  0  0  0  0  0  0  0
    4.8327    1.1093   27.1882 H   0  0  0  0  0  0  0  0  0  0  0  0
    6.2922    0.3254   25.8288 C   0  0  0  0  0  0  0  0  0  0  0  0
    6.7425   -0.8973   26.9995 Cl  0  0  0  0  0  0  0  0  0  0  0  0
    5.3957    0.6298   20.2007 C   0  0  0  0  0  0  0  0  0  0  0  0
    4.9386    0.6972   21.1928 H   0  0  0  0  0  0  0  0  0  0  0  0
    4.7899    1.2945   19.1324 C   0  0  0  0  0  0  0  0  0  0  0  0
    3.8645    1.8532   19.2410 H   0  0  0  0  0  0  0  0  0  0  0  0
  1  2  1  0
  2  3  2  0
  3  4  1  0
  4  5  1  0
  4  6  2  0
  6  7  1  0
  7  8  2  0
  7  9  1  0
  9 10  1  0
  9 11  1  0
 11 12  1  6
 11 13  1  0
 13 14  1  0
 13 15  1  0
 13 16  1  0
 11 17  1  0
 17 18  1  0
 17 19  1  0
 17 20  1  0
 20 21  2  0
 21 22  1  0
 21 23  1  0
 23 24  1  0
 23 25  2  0
 25 26  1  0
 25 27  1  0
 27 28  1  0
 27 29  2  0
 29 30  1  0
  6 31  1  0
 31 32  1  0
 31 33  2  0
 33 34  1  0
 33  2  1  0
 29 20  1  0
M  END
>  <cnnaffinity>  (1) 
-4.87499

>  <filename>  (1) 
C[C@H](Cc1ccccc1Cl)NC(=O)c1cccnc1

$$$$
