
     RDKit          3D

 47 50  0  0  0  0  0  0  0  0999 V2000
    4.9113    1.7971   16.9806 H   0  0  0  0  0  0  0  0  0  0  0  0
    5.3906    1.3049   17.8216 C   0  0  0  0  0  0  0  0  0  0  0  0
    6.5514    0.6907   17.5500 N   0  0  0  0  0  0  0  0  0  0  0  0
    7.1663    0.0859   18.5766 C   0  0  0  0  0  0  0  0  0  0  0  0
    8.1034   -0.4184   18.3498 H   0  0  0  0  0  0  0  0  0  0  0  0
    6.6578    0.0295   19.8879 C   0  0  0  0  0  0  0  0  0  0  0  0
    7.3769   -0.6873   20.9484 C   0  0  0  0  0  0  0  0  0  0  0  0
    8.6168   -0.4058   21.3953 C   0  0  0  0  0  0  0  0  0  0  0  0
    9.4484    0.7698   20.9816 C   0  0  0  0  0  0  0  0  0  0  0  0
    9.5861    0.7402   19.8949 H   0  0  0  0  0  0  0  0  0  0  0  0
   10.4472    0.7176   21.4305 H   0  0  0  0  0  0  0  0  0  0  0  0
    8.8414    2.1344   21.3378 C   0  0  0  0  0  0  0  0  0  0  0  0
    7.8922    2.2711   20.7914 H   0  0  0  0  0  0  0  0  0  0  0  0
    9.5197    2.8930   20.9342 H   0  0  0  0  0  0  0  0  0  0  0  0
    8.6619    2.3435   22.7751 N   0  0  0  0  0  0  0  0  0  0  0  0
    7.3295    1.9899   23.2619 C   0  0  0  0  0  0  0  0  0  0  0  0
    6.5405    2.3405   22.5684 H   0  0  0  0  0  0  0  0  0  0  0  0
    7.2083    0.9030   23.3509 H   0  0  0  0  0  0  0  0  0  0  0  0
    7.2030    2.7050   24.6072 C   0  0  0  0  0  0  0  0  0  0  0  0
    7.5424    2.0587   25.4232 H   0  0  0  0  0  0  0  0  0  0  0  0
    6.1646    2.9701   24.8249 H   0  0  0  0  0  0  0  0  0  0  0  0
    8.1003    3.9456   24.4719 C   0  0  0  0  0  0  0  0  0  0  0  0
    8.6902    4.1113   25.3801 H   0  0  0  0  0  0  0  0  0  0  0  0
    7.5243    4.8630   24.3186 H   0  0  0  0  0  0  0  0  0  0  0  0
    9.0004    3.6896   23.2458 C   0  0  1  0  0  0  0  0  0  0  0  0
    8.7606    4.4365   22.4666 H   0  0  0  0  0  0  0  0  0  0  0  0
   10.4869    3.7989   23.5669 C   0  0  0  0  0  0  0  0  0  0  0  0
   10.7598    3.0638   24.3312 H   0  0  0  0  0  0  0  0  0  0  0  0
   10.7208    4.7995   23.9478 H   0  0  0  0  0  0  0  0  0  0  0  0
   11.1052    3.6123   22.6820 H   0  0  0  0  0  0  0  0  0  0  0  0
    9.0236   -1.3244   22.5155 C   0  0  0  0  0  0  0  0  0  0  0  0
    9.2624   -0.7348   23.4130 H   0  0  0  0  0  0  0  0  0  0  0  0
    9.9363   -1.8675   22.2458 H   0  0  0  0  0  0  0  0  0  0  0  0
    7.8187   -2.2536   22.7142 C   0  0  0  0  0  0  0  0  0  0  0  0
    6.7567   -1.8460   21.6874 C   0  0  0  0  0  0  0  0  0  0  0  0
    6.4900   -2.6579   21.0006 H   0  0  0  0  0  0  0  0  0  0  0  0
    5.8128   -1.5524   22.1495 H   0  0  0  0  0  0  0  0  0  0  0  0
    7.4242   -2.7231   24.0855 C   0  0  0  0  0  0  0  0  0  0  0  0
    6.3639   -2.7827   24.3203 H   0  0  0  0  0  0  0  0  0  0  0  0
    8.0284   -2.3966   24.9286 H   0  0  0  0  0  0  0  0  0  0  0  0
    8.0139   -3.6942   23.0888 C   0  0  0  0  0  0  0  0  0  0  0  0
    9.0319   -4.0493   23.2316 H   0  0  0  0  0  0  0  0  0  0  0  0
    7.3651   -4.4334   22.6256 H   0  0  0  0  0  0  0  0  0  0  0  0
    5.4248    0.6537   20.1404 C   0  0  0  0  0  0  0  0  0  0  0  0
    5.0060    0.6297   21.1510 H   0  0  0  0  0  0  0  0  0  0  0  0
    4.7934    1.3183   19.0896 C   0  0  0  0  0  0  0  0  0  0  0  0
    3.8638    1.8482   19.2440 H   0  0  0  0  0  0  0  0  0  0  0  0
  1  2  1  0
  2  3  2  0
  3  4  1  0
  4  5  1  0
  4  6  2  0
  6  7  1  0
  7  8  2  0
  8  9  1  0
  9 10  1  0
  9 11  1  0
  9 12  1  0
 12 13  1  0
 12 14  1  0
 12 15  1  0
 15 16  1  0
 16 17  1  0
 16 18  1  0
 16 19  1  0
 19 20  1  0
 19 21  1  0
 19 22  1  0
 22 23  1  0
 22 24  1  0
 22 25  1  0
 25 26  1  6
 25 27  1  0
 27 28  1  0
 27 29  1  0
 27 30  1  0
  8 31  1  0
 31 32  1  0
 31 33  1  0
 31 34  1  0
 34 35  1  0
 35 36  1  0
 35 37  1  0
 34 38  1  0
 38 39  1  0
 38 40  1  0
 38 41  1  0
 41 42  1  0
 41 43  1  0
  6 44  1  0
 44 45  1  0
 44 46  2  0
 46 47  1  0
 46  2  1  0
 35  7  1  0
 25 15  1  0
 41 34  1  0
M  END
>  <cnnaffinity>  (1) 
-5.69605

>  <filename>  (1) 
C[C@@H]1CCCN1CCC1=C(c2cccnc2)CC2(CC2)C1

$$$$
