
     RDKit          3D

 41 44  0  0  0  0  0  0  0  0999 V2000
   10.9661   -0.3854   23.6995 C   0  0  0  0  0  0  0  0  0  0  0  0
   11.2494   -1.2621   22.4914 C   0  0  2  0  0  0  0  0  0  0  0  0
   11.5923   -0.4213   21.4362 F   0  0  0  0  0  0  0  0  0  0  0  0
   10.1127   -2.1773   22.0161 C   0  0  0  0  0  0  0  0  0  0  0  0
    8.8058   -1.5202   21.7254 C   0  0  0  0  0  0  0  0  0  0  0  0
    8.4441   -1.0527   20.5541 N   0  0  0  0  0  0  0  0  0  0  0  0
    7.2355   -0.4707   20.7949 C   0  0  0  0  0  0  0  0  0  0  0  0
    6.4729    0.1688   19.7279 C   0  0  0  0  0  0  0  0  0  0  0  0
    5.2402    0.8301   19.8876 C   0  0  0  0  0  0  0  0  0  0  0  0
    4.7032    1.4569   18.7630 C   0  0  0  0  0  0  0  0  0  0  0  0
    5.3886    1.3910   17.5446 C   0  0  0  0  0  0  0  0  0  0  0  0
    6.5334    0.7144   17.3775 N   0  0  0  0  0  0  0  0  0  0  0  0
    7.0481    0.1210   18.4536 C   0  0  0  0  0  0  0  0  0  0  0  0
    7.9702   -0.4347   18.3090 H   0  0  0  0  0  0  0  0  0  0  0  0
    5.0065    1.8908   16.6580 H   0  0  0  0  0  0  0  0  0  0  0  0
    3.7752    2.0151   18.8077 H   0  0  0  0  0  0  0  0  0  0  0  0
    4.7222    0.8554   20.8494 H   0  0  0  0  0  0  0  0  0  0  0  0
    6.8321   -0.5507   22.0452 N   0  0  0  0  0  0  0  0  0  0  0  0
    7.8258   -1.2726   22.6318 N   0  0  0  0  0  0  0  0  0  0  0  0
    7.7268   -1.7225   23.9788 C   0  0  0  0  0  0  0  0  0  0  0  0
    7.6685   -3.0740   24.2777 C   0  0  0  0  0  0  0  0  0  0  0  0
    7.4864   -3.4963   25.6201 C   0  0  0  0  0  0  0  0  0  0  0  0
    7.3493   -2.5713   26.6301 C   0  0  0  0  0  0  0  0  0  0  0  0
    7.4301   -1.1773   26.3474 C   0  0  0  0  0  0  0  0  0  0  0  0
    7.3063   -0.1741   27.3503 C   0  0  0  0  0  0  0  0  0  0  0  0
    7.4764    1.1473   27.0293 C   0  0  0  0  0  0  0  0  0  0  0  0
    7.7306    1.5929   25.7750 N   0  0  0  0  0  0  0  0  0  0  0  0
    7.8081    0.6844   24.8154 C   0  0  0  0  0  0  0  0  0  0  0  0
    7.6545   -0.7321   25.0073 C   0  0  0  0  0  0  0  0  0  0  0  0
    8.0258    1.0680   23.8190 H   0  0  0  0  0  0  0  0  0  0  0  0
    7.4133    1.9196   27.7957 H   0  0  0  0  0  0  0  0  0  0  0  0
    7.0812   -0.4538   28.3695 H   0  0  0  0  0  0  0  0  0  0  0  0
    7.1754   -2.8835   27.6531 H   0  0  0  0  0  0  0  0  0  0  0  0
    7.4525   -4.5607   25.8495 H   0  0  0  0  0  0  0  0  0  0  0  0
    7.6935   -3.8137   23.4801 H   0  0  0  0  0  0  0  0  0  0  0  0
   10.4486   -2.6162   21.0755 H   0  0  0  0  0  0  0  0  0  0  0  0
    9.9778   -2.9842   22.7421 H   0  0  0  0  0  0  0  0  0  0  0  0
   12.1211   -1.9076   22.6650 H   0  0  0  0  0  0  0  0  0  0  0  0
   10.1996    0.3524   23.4403 H   0  0  0  0  0  0  0  0  0  0  0  0
   11.8748    0.1548   23.9927 H   0  0  0  0  0  0  0  0  0  0  0  0
   10.6143   -0.9700   24.5584 H   0  0  0  0  0  0  0  0  0  0  0  0
  1  2  1  0
  2  3  1  0
  2  4  1  0
  4  5  1  0
  5  6  2  0
  6  7  1  0
  7  8  1  0
  8  9  2  0
  9 10  1  0
 10 11  2  0
 11 12  1  0
 12 13  2  0
 13 14  1  0
 11 15  1  0
 10 16  1  0
  9 17  1  0
  7 18  2  0
 18 19  1  0
 19 20  1  0
 20 21  2  0
 21 22  1  0
 22 23  2  0
 23 24  1  0
 24 25  2  0
 25 26  1  0
 26 27  2  0
 27 28  1  0
 28 29  2  0
 28 30  1  0
 26 31  1  0
 25 32  1  0
 23 33  1  0
 22 34  1  0
 21 35  1  0
  4 36  1  0
  4 37  1  0
  2 38  1  1
  1 39  1  0
  1 40  1  0
  1 41  1  0
 19  5  1  0
 29 20  1  0
 13  8  1  0
 29 24  1  0
M  END
>  <cnnaffinity>  (1) 
-6.23247

>  <filename>  (1) 
C[C@H](F)Cc1nc(-c2cccnc2)nn1-c1cccc2ccncc12

$$$$
