
     RDKit          3D

 33 34  0  0  0  0  0  0  0  0999 V2000
   10.4685   -1.1972   22.0450 C   0  0  0  0  0  0  0  0  0  0  0  0
    9.1986   -0.5957   22.6537 C   0  0  2  0  0  0  0  0  0  0  0  0
    8.3032    0.0287   21.6137 N   0  0  0  0  0  4  0  0  0  0  0  0
    7.3196   -0.8227   20.9103 C   0  0  0  0  0  0  0  0  0  0  0  0
    6.6332    0.0227   19.8754 C   0  0  0  0  0  0  0  0  0  0  0  0
    5.4170    0.6862   20.1036 C   0  0  0  0  0  0  0  0  0  0  0  0
    4.8039    1.3600   19.0432 C   0  0  0  0  0  0  0  0  0  0  0  0
    5.4332    1.3666   17.7954 C   0  0  0  0  0  0  0  0  0  0  0  0
    6.6083    0.7627   17.5616 N   0  0  0  0  0  0  0  0  0  0  0  0
    7.1796    0.1224   18.5874 C   0  0  0  0  0  0  0  0  0  0  0  0
    8.1227   -0.3751   18.3580 H   0  0  0  0  0  0  0  0  0  0  0  0
    4.9861    1.8852   16.9446 H   0  0  0  0  0  0  0  0  0  0  0  0
    3.8620    1.8802   19.1646 H   0  0  0  0  0  0  0  0  0  0  0  0
    4.9493    0.6660   21.0952 H   0  0  0  0  0  0  0  0  0  0  0  0
    6.5792   -1.2396   21.6100 H   0  0  0  0  0  0  0  0  0  0  0  0
    7.8054   -1.6832   20.4303 H   0  0  0  0  0  0  0  0  0  0  0  0
    8.9247    0.4889   20.8969 H   0  0  0  0  0  0  0  0  0  0  0  0
    7.7737    0.8046   22.0856 H   0  0  0  0  0  0  0  0  0  0  0  0
    9.4372    0.4470   23.7451 C   0  0  0  0  0  0  0  0  0  0  0  0
    8.9925    0.1583   25.0501 C   0  0  0  0  0  0  0  0  0  0  0  0
    8.9615    1.1278   26.0543 C   0  0  0  0  0  0  0  0  0  0  0  0
    9.4423    2.4072   25.7922 C   0  0  0  0  0  0  0  0  0  0  0  0
   10.0015    2.6972   24.5489 C   0  0  0  0  0  0  0  0  0  0  0  0
    9.9994    1.7212   23.5477 C   0  0  0  0  0  0  0  0  0  0  0  0
   10.7707    2.1571   22.0417 Cl  0  0  0  0  0  0  0  0  0  0  0  0
   10.4537    3.6643   24.3572 H   0  0  0  0  0  0  0  0  0  0  0  0
    9.3720    3.1848   26.5486 H   0  0  0  0  0  0  0  0  0  0  0  0
    8.5496    0.8967   27.0324 H   0  0  0  0  0  0  0  0  0  0  0  0
    8.6682   -0.8561   25.2778 H   0  0  0  0  0  0  0  0  0  0  0  0
    8.6418   -1.4071   23.1384 H   0  0  0  0  0  0  0  0  0  0  0  0
   10.2103   -1.9715   21.3125 H   0  0  0  0  0  0  0  0  0  0  0  0
   11.0491   -1.6749   22.8331 H   0  0  0  0  0  0  0  0  0  0  0  0
   11.1035   -0.4509   21.5607 H   0  0  0  0  0  0  0  0  0  0  0  0
  1  2  1  0
  2  3  1  0
  3  4  1  0
  4  5  1  0
  5  6  2  0
  6  7  1  0
  7  8  2  0
  8  9  1  0
  9 10  2  0
 10 11  1  0
  8 12  1  0
  7 13  1  0
  6 14  1  0
  4 15  1  0
  4 16  1  0
  3 17  1  0
  3 18  1  0
  2 19  1  0
 19 20  2  0
 20 21  1  0
 21 22  2  0
 22 23  1  0
 23 24  2  0
 24 25  1  0
 23 26  1  0
 22 27  1  0
 21 28  1  0
 20 29  1  0
  2 30  1  1
  1 31  1  0
  1 32  1  0
  1 33  1  0
 10  5  1  0
 24 19  1  0
M  CHG  1   3   1
M  END
>  <cnnaffinity>  (1) 
-4.62501

>  <filename>  (1) 
C[C@H]([NH2+]Cc1cccnc1)c1ccccc1Cl

$$$$
