
     RDKit          3D

 37 40  0  0  0  0  0  0  0  0999 V2000
    7.9369    6.7317   23.6576 C   0  0  0  0  0  0  0  0  0  0  0  0
    6.8708    5.7460   23.1882 C   0  0  1  0  0  0  0  0  0  0  0  0
    7.3630    4.8128   22.0525 C   0  0  0  0  0  0  0  0  0  0  0  0
    7.2129    3.4342   22.6208 C   0  0  0  0  0  0  0  0  0  0  0  0
    7.5079    2.2098   22.0603 C   0  0  0  0  0  0  0  0  0  0  0  0
    7.2515    1.0343   22.7893 C   0  0  0  0  0  0  0  0  0  0  0  0
    7.5612   -0.2957   22.2445 C   0  0  0  0  0  0  0  0  0  0  0  0
    8.1858   -1.3455   22.8800 C   0  0  0  0  0  0  0  0  0  0  0  0
    8.3496   -2.3192   21.8814 C   0  0  0  0  0  0  0  0  0  0  0  0
    7.8630   -1.9248   20.7147 N   0  0  0  0  0  0  0  0  0  0  0  0
    7.3614   -0.6920   20.9380 N   0  0  0  0  0  0  0  0  0  0  0  0
    6.6488   -0.0143   19.9106 C   0  0  0  0  0  0  0  0  0  0  0  0
    5.4274    0.6281   20.1629 C   0  0  0  0  0  0  0  0  0  0  0  0
    4.8078    1.2967   19.1058 C   0  0  0  0  0  0  0  0  0  0  0  0
    5.4083    1.2894   17.8432 C   0  0  0  0  0  0  0  0  0  0  0  0
    6.5762    0.6701   17.5962 N   0  0  0  0  0  0  0  0  0  0  0  0
    7.1759    0.0355   18.6080 C   0  0  0  0  0  0  0  0  0  0  0  0
    8.1239   -0.4425   18.3795 H   0  0  0  0  0  0  0  0  0  0  0  0
    4.9306    1.7818   16.9978 H   0  0  0  0  0  0  0  0  0  0  0  0
    3.8808    1.8359   19.2567 H   0  0  0  0  0  0  0  0  0  0  0  0
    5.0118    0.6405   21.1725 H   0  0  0  0  0  0  0  0  0  0  0  0
    8.8050   -3.2968   21.9724 H   0  0  0  0  0  0  0  0  0  0  0  0
    8.5196   -1.3550   23.9078 H   0  0  0  0  0  0  0  0  0  0  0  0
    6.7394    1.1349   24.0999 C   0  0  0  0  0  0  0  0  0  0  0  0
    6.4472    2.3661   24.6870 C   0  0  0  0  0  0  0  0  0  0  0  0
    6.6858    3.5125   23.9202 C   0  0  0  0  0  0  0  0  0  0  0  0
    6.4898    4.8226   24.2439 N   0  0  0  0  0  0  0  0  0  0  0  0
    6.1219    5.1167   25.1224 H   0  0  0  0  0  0  0  0  0  0  0  0
    6.0537    2.4388   25.7003 H   0  0  0  0  0  0  0  0  0  0  0  0
    6.5649    0.2164   24.6540 H   0  0  0  0  0  0  0  0  0  0  0  0
    7.9136    2.1420   21.0553 H   0  0  0  0  0  0  0  0  0  0  0  0
    6.7762    4.9451   21.1401 H   0  0  0  0  0  0  0  0  0  0  0  0
    8.4021    5.0101   21.7727 H   0  0  0  0  0  0  0  0  0  0  0  0
    5.9857    6.3040   22.8483 H   0  0  0  0  0  0  0  0  0  0  0  0
    8.8171    6.1886   24.0177 H   0  0  0  0  0  0  0  0  0  0  0  0
    7.5646    7.3667   24.4673 H   0  0  0  0  0  0  0  0  0  0  0  0
    8.2492    7.3731   22.8282 H   0  0  0  0  0  0  0  0  0  0  0  0
  1  2  1  0
  2  3  1  0
  3  4  1  0
  4  5  2  0
  5  6  1  0
  6  7  1  0
  7  8  2  0
  8  9  1  0
  9 10  2  0
 10 11  1  0
 11 12  1  0
 12 13  2  0
 13 14  1  0
 14 15  2  0
 15 16  1  0
 16 17  2  0
 17 18  1  0
 15 19  1  0
 14 20  1  0
 13 21  1  0
  9 22  1  0
  8 23  1  0
  6 24  2  0
 24 25  1  0
 25 26  2  0
 26 27  1  0
 27 28  1  0
 25 29  1  0
 24 30  1  0
  5 31  1  0
  3 32  1  0
  3 33  1  0
  2 34  1  6
  1 35  1  0
  1 36  1  0
  1 37  1  0
 27  2  1  0
 26  4  1  0
 11  7  1  0
 17 12  1  0
M  END
>  <cnnaffinity>  (1) 
-5.20933

>  <filename>  (1) 
C[C@H]1Cc2cc(-c3ccnn3-c3cccnc3)ccc2N1

$$$$
