
     RDKit          3D

 31 32  0  0  0  0  0  0  0  0999 V2000
    4.9542    1.7804   16.9979 H   0  0  0  0  0  0  0  0  0  0  0  0
    5.4272    1.2745   17.8377 C   0  0  0  0  0  0  0  0  0  0  0  0
    6.5920    0.6507   17.5920 N   0  0  0  0  0  0  0  0  0  0  0  0
    7.2213    0.0574   18.6207 C   0  0  0  0  0  0  0  0  0  0  0  0
    8.1636   -0.4441   18.4042 H   0  0  0  0  0  0  0  0  0  0  0  0
    6.6913    0.0481   19.9251 C   0  0  0  0  0  0  0  0  0  0  0  0
    7.4173   -0.5176   20.9845 O   0  0  0  0  0  0  0  0  0  0  0  0
    6.8056   -1.4174   21.8319 C   0  0  0  0  0  0  0  0  0  0  0  0
    5.7770   -1.9856   21.5694 O   0  0  0  0  0  0  0  0  0  0  0  0
    7.6893   -1.6908   23.0900 C   0  0  1  0  0  0  0  0  0  0  0  0
    8.6593   -1.2421   22.8626 H   0  0  0  0  0  0  0  0  0  0  0  0
    7.2342   -1.0748   24.3573 N   0  0  0  0  0  0  0  0  0  0  0  0
    6.2648   -1.0760   24.6304 H   0  0  0  0  0  0  0  0  0  0  0  0
    8.0925   -0.8308   25.4042 C   0  0  0  0  0  0  0  0  0  0  0  0
    9.2840   -1.0681   25.3446 O   0  0  0  0  0  0  0  0  0  0  0  0
    7.4248   -0.2459   26.6259 C   0  0  0  0  0  0  0  0  0  0  0  0
    7.1212   -1.0117   27.3356 H   0  0  0  0  0  0  0  0  0  0  0  0
    7.9491    1.0425   27.2036 C   0  0  0  0  0  0  0  0  0  0  0  0
    8.7463    1.5409   26.6540 H   0  0  0  0  0  0  0  0  0  0  0  0
    8.0238    1.1273   28.2865 H   0  0  0  0  0  0  0  0  0  0  0  0
    6.5839    1.0019   26.5780 C   0  0  0  0  0  0  0  0  0  0  0  0
    5.7193    1.0459   27.2345 H   0  0  0  0  0  0  0  0  0  0  0  0
    6.4402    1.4848   25.6129 H   0  0  0  0  0  0  0  0  0  0  0  0
    7.8593   -3.2123   23.2495 C   0  0  0  0  0  0  0  0  0  0  0  0
    8.5429   -3.4252   24.0743 H   0  0  0  0  0  0  0  0  0  0  0  0
    6.8929   -3.6860   23.4515 H   0  0  0  0  0  0  0  0  0  0  0  0
    8.2731   -3.6616   22.3387 H   0  0  0  0  0  0  0  0  0  0  0  0
    5.4639    0.6640   20.1673 C   0  0  0  0  0  0  0  0  0  0  0  0
    5.0280    0.6189   21.1657 H   0  0  0  0  0  0  0  0  0  0  0  0
    4.8271    1.3080   19.1018 C   0  0  0  0  0  0  0  0  0  0  0  0
    3.8860    1.8296   19.2516 H   0  0  0  0  0  0  0  0  0  0  0  0
  1  2  1  0
  2  3  2  0
  3  4  1  0
  4  5  1  0
  4  6  2  0
  6  7  1  0
  7  8  1  0
  8  9  2  0
  8 10  1  0
 10 11  1  6
 10 12  1  0
 12 13  1  0
 12 14  1  0
 14 15  2  0
 14 16  1  0
 16 17  1  0
 16 18  1  0
 18 19  1  0
 18 20  1  0
 18 21  1  0
 21 22  1  0
 21 23  1  0
 10 24  1  0
 24 25  1  0
 24 26  1  0
 24 27  1  0
  6 28  1  0
 28 29  1  0
 28 30  2  0
 30 31  1  0
 30  2  1  0
 21 16  1  0
M  END
>  <cnnaffinity>  (1) 
-4.39016

>  <filename>  (1) 
C[C@H](NC(=O)C1CC1)C(=O)Oc1cccnc1

$$$$
