
     RDKit          3D

 30 31  0  0  0  0  0  0  0  0999 V2000
    4.9177    1.8863   16.9127 H   0  0  0  0  0  0  0  0  0  0  0  0
    5.3596    1.3405   17.7448 C   0  0  0  0  0  0  0  0  0  0  0  0
    6.5064    0.6938   17.4837 N   0  0  0  0  0  0  0  0  0  0  0  0
    7.0892    0.0539   18.5049 C   0  0  0  0  0  0  0  0  0  0  0  0
    8.0293   -0.4486   18.2736 H   0  0  0  0  0  0  0  0  0  0  0  0
    6.5809    0.0074   19.8159 C   0  0  0  0  0  0  0  0  0  0  0  0
    7.3637   -0.6312   20.9300 C   0  0  0  0  0  0  0  0  0  0  0  0
    6.6821   -0.9404   21.7352 H   0  0  0  0  0  0  0  0  0  0  0  0
    7.8348   -1.5548   20.5621 H   0  0  0  0  0  0  0  0  0  0  0  0
    8.4692    0.2815   21.5405 C   0  0  2  0  0  0  0  0  0  0  0  0
    9.1021    0.6146   20.7055 H   0  0  0  0  0  0  0  0  0  0  0  0
    9.3106   -0.5846   22.4692 C   0  0  0  0  0  0  0  0  0  0  0  0
   10.5808   -1.0279   22.0688 C   0  0  0  0  0  0  0  0  0  0  0  0
   11.0927   -0.4964   21.2681 H   0  0  0  0  0  0  0  0  0  0  0  0
   11.1879   -2.1308   22.6871 C   0  0  0  0  0  0  0  0  0  0  0  0
   12.1364   -2.5542   22.3586 H   0  0  0  0  0  0  0  0  0  0  0  0
   10.5508   -2.7207   23.7764 C   0  0  0  0  0  0  0  0  0  0  0  0
   11.1086   -3.7818   24.3803 F   0  0  0  0  0  0  0  0  0  0  0  0
    9.3646   -2.1843   24.2844 C   0  0  0  0  0  0  0  0  0  0  0  0
    8.8153   -2.7288   25.3826 F   0  0  0  0  0  0  0  0  0  0  0  0
    8.7330   -1.1291   23.6344 C   0  0  0  0  0  0  0  0  0  0  0  0
    7.7691   -0.7934   24.0167 H   0  0  0  0  0  0  0  0  0  0  0  0
    7.9371    1.5299   22.2501 C   0  0  0  0  0  0  0  0  0  0  0  0
    7.2647    1.2704   23.0762 H   0  0  0  0  0  0  0  0  0  0  0  0
    8.7729    2.1055   22.6627 H   0  0  0  0  0  0  0  0  0  0  0  0
    7.3853    2.1880   21.5708 H   0  0  0  0  0  0  0  0  0  0  0  0
    5.3671    0.6632   20.0541 C   0  0  0  0  0  0  0  0  0  0  0  0
    4.9365    0.6632   21.0590 H   0  0  0  0  0  0  0  0  0  0  0  0
    4.7470    1.3407   19.0020 C   0  0  0  0  0  0  0  0  0  0  0  0
    3.8253    1.8895   19.1527 H   0  0  0  0  0  0  0  0  0  0  0  0
  1  2  1  0
  2  3  2  0
  3  4  1  0
  4  5  1  0
  4  6  2  0
  6  7  1  0
  7  8  1  0
  7  9  1  0
  7 10  1  0
 10 11  1  6
 10 12  1  0
 12 13  2  0
 13 14  1  0
 13 15  1  0
 15 16  1  0
 15 17  2  0
 17 18  1  0
 17 19  1  0
 19 20  1  0
 19 21  2  0
 21 22  1  0
 10 23  1  0
 23 24  1  0
 23 25  1  0
 23 26  1  0
  6 27  1  0
 27 28  1  0
 27 29  2  0
 29 30  1  0
 29  2  1  0
 21 12  1  0
M  END
>  <cnnaffinity>  (1) 
-4.71413

>  <filename>  (1) 
C[C@H](Cc1cccnc1)c1ccc(F)c(F)c1

$$$$
