
     RDKit          3D

 36 38  0  0  0  0  0  0  0  0999 V2000
    5.0707    1.7459   16.9220 H   0  0  0  0  0  0  0  0  0  0  0  0
    5.4806    1.2952   17.8231 C   0  0  0  0  0  0  0  0  0  0  0  0
    6.6771    0.7071   17.6921 N   0  0  0  0  0  0  0  0  0  0  0  0
    7.2134    0.1583   18.7900 C   0  0  0  0  0  0  0  0  0  0  0  0
    8.1891   -0.2940   18.6392 H   0  0  0  0  0  0  0  0  0  0  0  0
    6.6008    0.1350   20.0510 C   0  0  0  0  0  0  0  0  0  0  0  0
    7.2482   -0.6278   21.2082 C   0  0  2  0  0  0  0  0  0  0  0  0
    6.8537   -0.1902   22.1393 H   0  0  0  0  0  0  0  0  0  0  0  0
    8.7023   -0.4803   21.2693 N   0  0  0  0  0  0  0  0  0  0  0  0
    9.2971    0.6280   21.8918 C   0  0  0  0  0  0  0  0  0  0  0  0
   10.5437    0.4572   22.5729 C   0  0  0  0  0  0  0  0  0  0  0  0
   10.9424   -0.5438   22.6403 H   0  0  0  0  0  0  0  0  0  0  0  0
   11.2177    1.5142   23.1598 C   0  0  0  0  0  0  0  0  0  0  0  0
   12.2022    1.3637   23.5922 H   0  0  0  0  0  0  0  0  0  0  0  0
   10.6356    2.7955   23.1355 C   0  0  0  0  0  0  0  0  0  0  0  0
   11.0211    4.0965   23.6169 C   0  0  0  0  0  0  0  0  0  0  0  0
   11.9373    4.3495   24.1359 H   0  0  0  0  0  0  0  0  0  0  0  0
   10.0339    4.9596   23.2446 C   0  0  0  0  0  0  0  0  0  0  0  0
    9.9527    6.0250   23.4091 H   0  0  0  0  0  0  0  0  0  0  0  0
    9.0307    4.2700   22.5802 N   0  0  0  0  0  0  0  0  0  0  0  0
    8.3470    4.6907   21.9727 H   0  0  0  0  0  0  0  0  0  0  0  0
    9.3916    2.9503   22.4751 C   0  0  0  0  0  0  0  0  0  0  0  0
    8.7150    1.8951   21.8432 C   0  0  0  0  0  0  0  0  0  0  0  0
    7.7877    2.0540   21.3105 H   0  0  0  0  0  0  0  0  0  0  0  0
    9.5459   -1.4697   20.6247 C   0  0  0  0  0  0  0  0  0  0  0  0
    9.2526   -1.6475   19.5841 H   0  0  0  0  0  0  0  0  0  0  0  0
    9.5398   -2.4470   21.1266 H   0  0  0  0  0  0  0  0  0  0  0  0
   10.5728   -1.1086   20.6144 H   0  0  0  0  0  0  0  0  0  0  0  0
    6.8238   -2.1077   21.1717 C   0  0  0  0  0  0  0  0  0  0  0  0
    7.4081   -2.6882   21.8921 H   0  0  0  0  0  0  0  0  0  0  0  0
    6.9712   -2.5449   20.1774 H   0  0  0  0  0  0  0  0  0  0  0  0
    5.7630   -2.2070   21.4199 H   0  0  0  0  0  0  0  0  0  0  0  0
    5.3439    0.7560   20.1652 C   0  0  0  0  0  0  0  0  0  0  0  0
    4.8155    0.7845   21.1217 H   0  0  0  0  0  0  0  0  0  0  0  0
    4.7749    1.3477   19.0314 C   0  0  0  0  0  0  0  0  0  0  0  0
    3.8138    1.8544   19.0698 H   0  0  0  0  0  0  0  0  0  0  0  0
  1  2  1  0
  2  3  2  0
  3  4  1  0
  4  5  1  0
  4  6  2  0
  6  7  1  0
  7  8  1  1
  7  9  1  0
  9 10  1  0
 10 11  2  0
 11 12  1  0
 11 13  1  0
 13 14  1  0
 13 15  2  0
 15 16  1  0
 16 17  1  0
 16 18  2  0
 18 19  1  0
 18 20  1  0
 20 21  1  0
 20 22  1  0
 22 23  2  0
 23 24  1  0
  9 25  1  0
 25 26  1  0
 25 27  1  0
 25 28  1  0
  7 29  1  0
 29 30  1  0
 29 31  1  0
 29 32  1  0
  6 33  1  0
 33 34  1  0
 33 35  2  0
 35 36  1  0
 35  2  1  0
 23 10  1  0
 22 15  1  0
M  END
>  <cnnaffinity>  (1) 
-4.80214

>  <filename>  (1) 
C[C@H](c1cccnc1)N(C)c1ccc2cc[nH]c2c1

$$$$
