
     RDKit          3D

 31 33  0  0  0  0  0  0  0  0999 V2000
    4.9204    1.7790   16.9960 H   0  0  0  0  0  0  0  0  0  0  0  0
    5.4038    1.2898   17.8389 C   0  0  0  0  0  0  0  0  0  0  0  0
    6.5704    0.6756   17.5859 N   0  0  0  0  0  0  0  0  0  0  0  0
    7.1738    0.0719   18.6156 C   0  0  0  0  0  0  0  0  0  0  0  0
    8.1190   -0.4178   18.3808 H   0  0  0  0  0  0  0  0  0  0  0  0
    6.6492    0.0083   19.9115 C   0  0  0  0  0  0  0  0  0  0  0  0
    7.4584   -0.6775   20.9837 C   0  0  1  0  0  0  0  0  0  0  0  0
    7.9423   -1.5456   20.5162 H   0  0  0  0  0  0  0  0  0  0  0  0
    8.5303    0.1961   21.4277 N   0  0  0  0  0  0  0  0  0  0  0  0
    9.4956   -0.0581   21.3422 H   0  0  0  0  0  0  0  0  0  0  0  0
    8.4250    1.4056   22.0071 C   0  0  0  0  0  0  0  0  0  0  0  0
    9.4365    2.1215   22.3842 N   0  0  0  0  0  0  0  0  0  0  0  0
    8.8184    3.2707   22.9078 C   0  0  0  0  0  0  0  0  0  0  0  0
    9.3459    4.4379   23.4807 C   0  0  0  0  0  0  0  0  0  0  0  0
   10.4215    4.5492   23.5709 H   0  0  0  0  0  0  0  0  0  0  0  0
    8.4660    5.4394   23.9209 C   0  0  0  0  0  0  0  0  0  0  0  0
    8.8636    6.3571   24.3667 H   0  0  0  0  0  0  0  0  0  0  0  0
    7.0711    5.2770   23.7898 C   0  0  0  0  0  0  0  0  0  0  0  0
    6.4062    6.0738   24.1367 H   0  0  0  0  0  0  0  0  0  0  0  0
    6.5242    4.1140   23.2195 C   0  0  0  0  0  0  0  0  0  0  0  0
    5.4491    3.9925   23.1145 H   0  0  0  0  0  0  0  0  0  0  0  0
    7.4280    3.1444   22.7993 C   0  0  0  0  0  0  0  0  0  0  0  0
    7.1816    1.9148   22.2172 O   0  0  0  0  0  0  0  0  0  0  0  0
    6.6418   -1.2097   22.1579 C   0  0  0  0  0  0  0  0  0  0  0  0
    7.2693   -1.8493   22.7847 H   0  0  0  0  0  0  0  0  0  0  0  0
    6.2641   -0.3865   22.7689 H   0  0  0  0  0  0  0  0  0  0  0  0
    5.7984   -1.8008   21.7882 H   0  0  0  0  0  0  0  0  0  0  0  0
    5.4305    0.6476   20.1555 C   0  0  0  0  0  0  0  0  0  0  0  0
    4.9979    0.6439   21.1585 H   0  0  0  0  0  0  0  0  0  0  0  0
    4.8023    1.3066   19.0995 C   0  0  0  0  0  0  0  0  0  0  0  0
    3.8749    1.8429   19.2568 H   0  0  0  0  0  0  0  0  0  0  0  0
  1  2  1  0
  2  3  2  0
  3  4  1  0
  4  5  1  0
  4  6  2  0
  6  7  1  0
  7  8  1  6
  7  9  1  0
  9 10  1  0
  9 11  1  0
 11 12  2  0
 12 13  1  0
 13 14  2  0
 14 15  1  0
 14 16  1  0
 16 17  1  0
 16 18  2  0
 18 19  1  0
 18 20  1  0
 20 21  1  0
 20 22  2  0
 22 23  1  0
  7 24  1  0
 24 25  1  0
 24 26  1  0
 24 27  1  0
  6 28  1  0
 28 29  1  0
 28 30  2  0
 30 31  1  0
 30  2  1  0
 23 11  1  0
 22 13  1  0
M  END
>  <cnnaffinity>  (1) 
-4.69844

>  <filename>  (1) 
C[C@H](Nc1nc2ccccc2o1)c1cccnc1

$$$$
