
     RDKit          3D

 35 37  0  0  0  0  0  0  0  0999 V2000
    4.9980    1.8491   16.9131 H   0  0  0  0  0  0  0  0  0  0  0  0
    5.4301    1.3367   17.7716 C   0  0  0  0  0  0  0  0  0  0  0  0
    6.5884    0.6933   17.5597 N   0  0  0  0  0  0  0  0  0  0  0  0
    7.1245    0.0311   18.5927 C   0  0  0  0  0  0  0  0  0  0  0  0
    8.0689   -0.4761   18.3966 H   0  0  0  0  0  0  0  0  0  0  0  0
    6.5590   -0.0253   19.8886 C   0  0  0  0  0  0  0  0  0  0  0  0
    7.2143   -0.7354   21.0148 C   0  0  0  0  0  0  0  0  0  0  0  0
    7.8538   -0.1709   22.0644 C   0  0  0  0  0  0  0  0  0  0  0  0
    7.8808    1.2650   22.5376 C   0  0  1  0  0  0  0  0  0  0  0  0
    7.2334    1.8546   21.8736 H   0  0  0  0  0  0  0  0  0  0  0  0
    7.2919    1.4003   23.9523 C   0  0  0  0  0  0  0  0  0  0  0  0
    5.9560    1.8103   24.1015 C   0  0  0  0  0  0  0  0  0  0  0  0
    5.3764    2.0528   23.2116 H   0  0  0  0  0  0  0  0  0  0  0  0
    5.3613    1.9187   25.3593 C   0  0  0  0  0  0  0  0  0  0  0  0
    4.3261    2.2482   25.4430 H   0  0  0  0  0  0  0  0  0  0  0  0
    6.0985    1.6114   26.5091 C   0  0  0  0  0  0  0  0  0  0  0  0
    5.6393    1.6937   27.4896 H   0  0  0  0  0  0  0  0  0  0  0  0
    7.4306    1.1934   26.3829 C   0  0  0  0  0  0  0  0  0  0  0  0
    8.0053    0.9438   27.2737 H   0  0  0  0  0  0  0  0  0  0  0  0
    8.0179    1.0916   25.1168 C   0  0  0  0  0  0  0  0  0  0  0  0
    9.0523    0.7517   25.0507 H   0  0  0  0  0  0  0  0  0  0  0  0
    9.2723    1.9133   22.4394 C   0  0  0  0  0  0  0  0  0  0  0  0
    9.2181    2.9520   22.7818 H   0  0  0  0  0  0  0  0  0  0  0  0
   10.0265    1.4023   23.0451 H   0  0  0  0  0  0  0  0  0  0  0  0
    9.6164    1.9194   21.4010 H   0  0  0  0  0  0  0  0  0  0  0  0
    8.5186   -1.2616   22.8468 C   0  0  0  0  0  0  0  0  0  0  0  0
    9.6140   -1.1779   22.8469 H   0  0  0  0  0  0  0  0  0  0  0  0
    8.1787   -1.2938   23.8922 H   0  0  0  0  0  0  0  0  0  0  0  0
    8.1450   -2.4689   22.2060 O   0  0  0  0  0  0  0  0  0  0  0  0
    7.2812   -2.2215   21.1786 C   0  0  0  0  0  0  0  0  0  0  0  0
    6.7214   -3.1048   20.5854 O   0  0  0  0  0  0  0  0  0  0  0  0
    5.3451    0.6531   20.0745 C   0  0  0  0  0  0  0  0  0  0  0  0
    4.8564    0.6280   21.0525 H   0  0  0  0  0  0  0  0  0  0  0  0
    4.7696    1.3395   19.0043 C   0  0  0  0  0  0  0  0  0  0  0  0
    3.8266    1.8664   19.1040 H   0  0  0  0  0  0  0  0  0  0  0  0
  1  2  1  0
  2  3  2  0
  3  4  1  0
  4  5  1  0
  4  6  2  0
  6  7  1  0
  7  8  2  0
  8  9  1  0
  9 10  1  6
  9 11  1  0
 11 12  2  0
 12 13  1  0
 12 14  1  0
 14 15  1  0
 14 16  2  0
 16 17  1  0
 16 18  1  0
 18 19  1  0
 18 20  2  0
 20 21  1  0
  9 22  1  0
 22 23  1  0
 22 24  1  0
 22 25  1  0
  8 26  1  0
 26 27  1  0
 26 28  1  0
 26 29  1  0
 29 30  1  0
 30 31  2  0
  6 32  1  0
 32 33  1  0
 32 34  2  0
 34 35  1  0
 34  2  1  0
 30  7  1  0
 20 11  1  0
M  END
>  <cnnaffinity>  (1) 
-4.89689

>  <filename>  (1) 
C[C@@H](C1=C(c2cccnc2)C(=O)OC1)c1ccccc1

$$$$
