
     RDKit          3D

 33 34  0  0  0  0  0  0  0  0999 V2000
    4.9260    1.7791   16.9946 H   0  0  0  0  0  0  0  0  0  0  0  0
    5.4062    1.2858   17.8378 C   0  0  0  0  0  0  0  0  0  0  0  0
    6.5652    0.6640   17.5880 N   0  0  0  0  0  0  0  0  0  0  0  0
    7.1649    0.0476   18.6171 C   0  0  0  0  0  0  0  0  0  0  0  0
    8.1155   -0.4212   18.3667 H   0  0  0  0  0  0  0  0  0  0  0  0
    6.6609    0.0059   19.9260 C   0  0  0  0  0  0  0  0  0  0  0  0
    7.4596   -0.7303   20.9997 C   0  0  1  0  0  0  0  0  0  0  0  0
    7.5173   -2.1658   20.6649 N   0  0  0  0  0  0  0  0  0  0  0  0
    6.5805   -2.4848   20.4213 H   0  0  0  0  0  0  0  0  0  0  0  0
    8.0177   -2.2516   19.7842 H   0  0  0  0  0  0  0  0  0  0  0  0
    8.8895   -0.2073   21.0881 C   0  0  0  0  0  0  0  0  0  0  0  0
    9.4533   -0.3992   20.1733 H   0  0  0  0  0  0  0  0  0  0  0  0
    9.4133   -0.6929   21.9159 H   0  0  0  0  0  0  0  0  0  0  0  0
    8.8692    0.8691   21.2673 H   0  0  0  0  0  0  0  0  0  0  0  0
    6.8318   -0.6549   22.4104 C   0  0  0  0  0  0  0  0  0  0  0  0
    5.8478   -1.1022   22.2960 H   0  0  0  0  0  0  0  0  0  0  0  0
    7.4016   -1.3113   23.0784 H   0  0  0  0  0  0  0  0  0  0  0  0
    6.7841    0.6927   22.8996 O   0  0  0  0  0  0  0  0  0  0  0  0
    6.2587    1.0104   24.1170 C   0  0  0  0  0  0  0  0  0  0  0  0
    5.7001    0.0995   25.0222 C   0  0  0  0  0  0  0  0  0  0  0  0
    5.6619   -0.9545   24.7714 H   0  0  0  0  0  0  0  0  0  0  0  0
    5.1919    0.5495   26.2483 C   0  0  0  0  0  0  0  0  0  0  0  0
    4.7592   -0.1549   26.9524 H   0  0  0  0  0  0  0  0  0  0  0  0
    5.2422    1.9038   26.5690 C   0  0  0  0  0  0  0  0  0  0  0  0
    4.6089    2.4544   28.0935 Cl  0  0  0  0  0  0  0  0  0  0  0  0
    5.7979    2.8245   25.6735 C   0  0  0  0  0  0  0  0  0  0  0  0
    5.8287    3.8762   25.9420 H   0  0  0  0  0  0  0  0  0  0  0  0
    6.3026    2.3789   24.4524 C   0  0  0  0  0  0  0  0  0  0  0  0
    6.7383    3.0803   23.7487 H   0  0  0  0  0  0  0  0  0  0  0  0
    5.4346    0.6483   20.1576 C   0  0  0  0  0  0  0  0  0  0  0  0
    4.9988    0.6515   21.1566 H   0  0  0  0  0  0  0  0  0  0  0  0
    4.8062    1.3042   19.1012 C   0  0  0  0  0  0  0  0  0  0  0  0
    3.8773    1.8392   19.2566 H   0  0  0  0  0  0  0  0  0  0  0  0
  1  2  1  0
  2  3  2  0
  3  4  1  0
  4  5  1  0
  4  6  2  0
  6  7  1  0
  7  8  1  6
  8  9  1  0
  8 10  1  0
  7 11  1  0
 11 12  1  0
 11 13  1  0
 11 14  1  0
  7 15  1  0
 15 16  1  0
 15 17  1  0
 15 18  1  0
 18 19  1  0
 19 20  2  0
 20 21  1  0
 20 22  1  0
 22 23  1  0
 22 24  2  0
 24 25  1  0
 24 26  1  0
 26 27  1  0
 26 28  2  0
 28 29  1  0
  6 30  1  0
 30 31  1  0
 30 32  2  0
 32 33  1  0
 32  2  1  0
 28 19  1  0
M  END
>  <cnnaffinity>  (1) 
-4.74182

>  <filename>  (1) 
C[C@@](N)(COc1ccc(Cl)cc1)c1cccnc1

$$$$
