
     RDKit          3D

 37 38  0  0  0  0  0  0  0  0999 V2000
    5.0163    1.7541   16.9423 H   0  0  0  0  0  0  0  0  0  0  0  0
    5.4514    1.2968   17.8293 C   0  0  0  0  0  0  0  0  0  0  0  0
    6.6344    0.6830   17.6666 N   0  0  0  0  0  0  0  0  0  0  0  0
    7.1866    0.1225   18.7505 C   0  0  0  0  0  0  0  0  0  0  0  0
    8.1381   -0.3920   18.5917 H   0  0  0  0  0  0  0  0  0  0  0  0
    6.6018    0.1311   20.0214 C   0  0  0  0  0  0  0  0  0  0  0  0
    7.2817   -0.5518   21.1673 C   0  0  2  0  0  0  0  0  0  0  0  0
    6.6572   -0.4415   22.0634 H   0  0  0  0  0  0  0  0  0  0  0  0
    8.5569    0.1040   21.4042 N   0  0  0  0  0  0  0  0  0  0  0  0
    8.9904    0.6354   20.6671 H   0  0  0  0  0  0  0  0  0  0  0  0
    9.3158   -0.2326   22.4746 C   0  0  0  0  0  0  0  0  0  0  0  0
    8.8803   -0.9232   23.3836 O   0  0  0  0  0  0  0  0  0  0  0  0
   10.7234    0.3687   22.4449 C   0  0  1  0  0  0  0  0  0  0  0  0
   11.0466    0.3562   21.3922 H   0  0  0  0  0  0  0  0  0  0  0  0
   10.6450    1.8148   22.9230 C   0  0  0  0  0  0  0  0  0  0  0  0
   11.2354    2.8440   22.1805 C   0  0  0  0  0  0  0  0  0  0  0  0
   11.7473    2.6143   21.2475 H   0  0  0  0  0  0  0  0  0  0  0  0
   11.1537    4.1716   22.6160 C   0  0  0  0  0  0  0  0  0  0  0  0
   11.6199    4.9590   22.0294 H   0  0  0  0  0  0  0  0  0  0  0  0
   10.4683    4.4823   23.7939 C   0  0  0  0  0  0  0  0  0  0  0  0
   10.3981    5.5155   24.1234 H   0  0  0  0  0  0  0  0  0  0  0  0
    9.8826    3.4594   24.5479 C   0  0  0  0  0  0  0  0  0  0  0  0
    9.3602    3.6956   25.4715 H   0  0  0  0  0  0  0  0  0  0  0  0
    9.9723    2.1338   24.1159 C   0  0  0  0  0  0  0  0  0  0  0  0
    9.4891    1.3409   24.6866 H   0  0  0  0  0  0  0  0  0  0  0  0
   11.6850   -0.4821   23.2773 C   0  0  0  0  0  0  0  0  0  0  0  0
   11.2795   -0.5860   24.2907 H   0  0  0  0  0  0  0  0  0  0  0  0
   11.7711   -1.4870   22.8465 H   0  0  0  0  0  0  0  0  0  0  0  0
   12.6832   -0.0389   23.3516 H   0  0  0  0  0  0  0  0  0  0  0  0
    7.5108   -2.0455   20.9313 C   0  0  0  0  0  0  0  0  0  0  0  0
    7.7243   -2.5377   21.8805 H   0  0  0  0  0  0  0  0  0  0  0  0
    6.6368   -2.5070   20.4686 H   0  0  0  0  0  0  0  0  0  0  0  0
    8.3911   -2.1732   20.2967 H   0  0  0  0  0  0  0  0  0  0  0  0
    5.3689    0.7711   20.1723 C   0  0  0  0  0  0  0  0  0  0  0  0
    4.8905    0.8031   21.1537 H   0  0  0  0  0  0  0  0  0  0  0  0
    4.7801    1.3588   19.0549 C   0  0  0  0  0  0  0  0  0  0  0  0
    3.8229    1.8610   19.1262 H   0  0  0  0  0  0  0  0  0  0  0  0
  1  2  1  0
  2  3  2  0
  3  4  1  0
  4  5  1  0
  4  6  2  0
  6  7  1  0
  7  8  1  1
  7  9  1  0
  9 10  1  0
  9 11  1  0
 11 12  2  0
 11 13  1  0
 13 14  1  6
 13 15  1  0
 15 16  2  0
 16 17  1  0
 16 18  1  0
 18 19  1  0
 18 20  2  0
 20 21  1  0
 20 22  1  0
 22 23  1  0
 22 24  2  0
 24 25  1  0
 13 26  1  0
 26 27  1  0
 26 28  1  0
 26 29  1  0
  7 30  1  0
 30 31  1  0
 30 32  1  0
 30 33  1  0
  6 34  1  0
 34 35  1  0
 34 36  2  0
 36 37  1  0
 36  2  1  0
 24 15  1  0
M  END
>  <cnnaffinity>  (1) 
-4.49852

>  <filename>  (1) 
C[C@@H](NC(=O)[C@H](C)c1ccccc1)c1cccnc1

$$$$
