
     RDKit          3D

 26 27  0  0  0  0  0  0  0  0999 V2000
    4.9523    1.7908   17.0092 H   0  0  0  0  0  0  0  0  0  0  0  0
    5.4220    1.2708   17.8395 C   0  0  0  0  0  0  0  0  0  0  0  0
    6.5810    0.6431   17.5744 N   0  0  0  0  0  0  0  0  0  0  0  0
    7.2026    0.0152   18.5837 C   0  0  0  0  0  0  0  0  0  0  0  0
    8.1548   -0.4573   18.3312 H   0  0  0  0  0  0  0  0  0  0  0  0
    6.7068   -0.0162   19.9102 C   0  0  0  0  0  0  0  0  0  0  0  0
    7.3784   -0.6621   20.9854 N   0  0  0  0  0  0  0  0  0  0  0  0
    7.9755   -1.4574   20.7910 H   0  0  0  0  0  0  0  0  0  0  0  0
    7.4197   -0.2211   22.2886 C   0  0  0  0  0  0  0  0  0  0  0  0
    7.0957    0.8962   22.6319 O   0  0  0  0  0  0  0  0  0  0  0  0
    7.9324   -1.2491   23.3022 C   0  0  2  0  0  0  0  0  0  0  0  0
    7.8782   -0.7193   24.2586 H   0  0  0  0  0  0  0  0  0  0  0  0
    9.3740   -1.3942   22.9579 C   0  0  0  0  0  0  0  0  0  0  0  0
   10.3333   -0.5586   23.4125 N   0  0  0  0  0  0  0  0  0  0  0  0
   11.4624   -0.9817   22.9231 N   0  0  0  0  0  0  0  0  0  0  0  0
   11.1619   -2.0317   22.1894 N   0  0  0  0  0  0  0  0  0  0  0  0
   11.8790   -2.6140   21.7806 H   0  0  0  0  0  0  0  0  0  0  0  0
    9.8635   -2.3177   22.1441 N   0  0  0  0  0  0  0  0  0  0  0  0
    7.1364   -2.5764   23.3909 C   0  0  0  0  0  0  0  0  0  0  0  0
    7.1992   -3.1668   22.4692 H   0  0  0  0  0  0  0  0  0  0  0  0
    6.0749   -2.3839   23.5905 H   0  0  0  0  0  0  0  0  0  0  0  0
    7.5263   -3.1995   24.2030 H   0  0  0  0  0  0  0  0  0  0  0  0
    5.4874    0.6310   20.1586 C   0  0  0  0  0  0  0  0  0  0  0  0
    5.0898    0.6399   21.1699 H   0  0  0  0  0  0  0  0  0  0  0  0
    4.8319    1.2795   19.1067 C   0  0  0  0  0  0  0  0  0  0  0  0
    3.8982    1.8103   19.2656 H   0  0  0  0  0  0  0  0  0  0  0  0
  1  2  1  0
  2  3  2  0
  3  4  1  0
  4  5  1  0
  4  6  2  0
  6  7  1  0
  7  8  1  0
  7  9  1  0
  9 10  2  0
  9 11  1  0
 11 12  1  1
 11 13  1  0
 13 14  1  0
 14 15  2  0
 15 16  1  0
 16 17  1  0
 16 18  1  0
 11 19  1  0
 19 20  1  0
 19 21  1  0
 19 22  1  0
  6 23  1  0
 23 24  1  0
 23 25  2  0
 25 26  1  0
 25  2  1  0
 18 13  2  0
M  END
>  <cnnaffinity>  (1) 
-4.79827

>  <filename>  (1) 
C[C@H](C(=O)Nc1cccnc1)c1nn[nH]n1

$$$$
