
     RDKit          3D

 32 33  0  0  0  0  0  0  0  0999 V2000
    5.0667    1.6935   16.8846 H   0  0  0  0  0  0  0  0  0  0  0  0
    5.4994    1.2776   17.7949 C   0  0  0  0  0  0  0  0  0  0  0  0
    6.6843    0.6637   17.6619 N   0  0  0  0  0  0  0  0  0  0  0  0
    7.2439    0.1513   18.7676 C   0  0  0  0  0  0  0  0  0  0  0  0
    8.2194   -0.3050   18.6147 H   0  0  0  0  0  0  0  0  0  0  0  0
    6.6581    0.1898   20.0457 C   0  0  0  0  0  0  0  0  0  0  0  0
    7.2853   -0.5220   21.2270 C   0  0  2  0  0  0  0  0  0  0  0  0
    6.9604   -0.0342   22.1580 H   0  0  0  0  0  0  0  0  0  0  0  0
    8.7252   -0.3606   21.1073 O   0  0  0  0  0  0  0  0  0  0  0  0
    9.4722   -0.5765   22.2086 C   0  0  0  0  0  0  0  0  0  0  0  0
    9.0406   -0.9703   23.2649 O   0  0  0  0  0  0  0  0  0  0  0  0
   10.9437   -0.3060   21.9576 C   0  0  0  0  0  0  0  0  0  0  0  0
   11.4687   -0.9291   22.6853 H   0  0  0  0  0  0  0  0  0  0  0  0
   11.2175   -0.6382   20.9529 H   0  0  0  0  0  0  0  0  0  0  0  0
   11.3335    1.1390   22.1803 C   0  0  0  0  0  0  0  0  0  0  0  0
   11.4470    2.0701   21.1435 C   0  0  0  0  0  0  0  0  0  0  0  0
   11.1706    1.8448   20.1356 H   0  0  0  0  0  0  0  0  0  0  0  0
   11.9276    3.3565   21.4040 C   0  0  0  0  0  0  0  0  0  0  0  0
   12.0465    4.0831   20.5941 H   0  0  0  0  0  0  0  0  0  0  0  0
   12.2324    3.7793   22.6345 N   0  0  0  0  0  0  0  0  0  0  0  0
   12.0331    2.9184   23.6398 C   0  0  0  0  0  0  0  0  0  0  0  0
   12.2227    3.3034   24.6342 H   0  0  0  0  0  0  0  0  0  0  0  0
   11.5984    1.6021   23.4696 C   0  0  0  0  0  0  0  0  0  0  0  0
   11.4323    0.9735   24.3377 H   0  0  0  0  0  0  0  0  0  0  0  0
    6.9309   -2.0120   21.2556 C   0  0  0  0  0  0  0  0  0  0  0  0
    5.8734   -2.1403   21.5024 H   0  0  0  0  0  0  0  0  0  0  0  0
    7.5234   -2.5487   22.0024 H   0  0  0  0  0  0  0  0  0  0  0  0
    7.1031   -2.4560   20.2699 H   0  0  0  0  0  0  0  0  0  0  0  0
    5.4244    0.8487   20.1590 C   0  0  0  0  0  0  0  0  0  0  0  0
    4.9306    0.9408   21.1283 H   0  0  0  0  0  0  0  0  0  0  0  0
    4.8375    1.4016   19.0185 C   0  0  0  0  0  0  0  0  0  0  0  0
    3.8967    1.9396   19.0664 H   0  0  0  0  0  0  0  0  0  0  0  0
  1  2  1  0
  2  3  2  0
  3  4  1  0
  4  5  1  0
  4  6  2  0
  6  7  1  0
  7  8  1  1
  7  9  1  0
  9 10  1  0
 10 11  2  0
 10 12  1  0
 12 13  1  0
 12 14  1  0
 12 15  1  0
 15 16  2  0
 16 17  1  0
 16 18  1  0
 18 19  1  0
 18 20  2  0
 20 21  1  0
 21 22  1  0
 21 23  2  0
 23 24  1  0
  7 25  1  0
 25 26  1  0
 25 27  1  0
 25 28  1  0
  6 29  1  0
 29 30  1  0
 29 31  2  0
 31 32  1  0
 31  2  1  0
 23 15  1  0
M  END
>  <cnnaffinity>  (1) 
-4.71941

>  <filename>  (1) 
C[C@@H](OC(=O)Cc1ccncc1)c1cccnc1

$$$$
