
     RDKit          3D

 43 45  0  0  0  0  0  0  0  0999 V2000
    6.4714    1.1834   25.6348 C   0  0  0  0  0  0  0  0  0  0  0  0
    6.9389    0.6344   24.2901 C   0  0  2  0  0  0  0  0  0  0  0  0
    7.0371   -0.9398   24.3936 N   0  0  0  0  0  4  0  0  0  0  0  0
    7.5664   -1.7075   23.1429 C   0  0  0  0  0  0  0  0  0  0  0  0
    6.8385   -1.5864   21.7722 C   0  0  0  0  0  0  0  0  0  0  0  0
    5.8920   -2.2831   21.4793 O   0  0  0  0  0  0  0  0  0  0  0  0
    7.4439   -0.7231   20.8775 N   0  0  0  0  0  0  0  0  0  0  0  0
    6.7412   -0.0312   19.8355 C   0  0  0  0  0  0  0  0  0  0  0  0
    5.5131    0.5916   20.0989 C   0  0  0  0  0  0  0  0  0  0  0  0
    4.8721    1.2861   19.0642 C   0  0  0  0  0  0  0  0  0  0  0  0
    5.4735    1.3219   17.8013 C   0  0  0  0  0  0  0  0  0  0  0  0
    6.6520    0.7344   17.5320 N   0  0  0  0  0  0  0  0  0  0  0  0
    7.2698    0.0869   18.5299 C   0  0  0  0  0  0  0  0  0  0  0  0
    8.2273   -0.3769   18.2949 H   0  0  0  0  0  0  0  0  0  0  0  0
    4.9966    1.8501   16.9783 H   0  0  0  0  0  0  0  0  0  0  0  0
    3.9288    1.7996   19.2298 H   0  0  0  0  0  0  0  0  0  0  0  0
    5.0746    0.5259   21.0979 H   0  0  0  0  0  0  0  0  0  0  0  0
    8.2141   -0.2019   21.2669 H   0  0  0  0  0  0  0  0  0  0  0  0
    8.5954   -1.3811   22.9910 H   0  0  0  0  0  0  0  0  0  0  0  0
    7.5669   -2.7763   23.3518 H   0  0  0  0  0  0  0  0  0  0  0  0
    7.6751   -1.1171   25.1979 H   0  0  0  0  0  0  0  0  0  0  0  0
    6.0861   -1.2888   24.6541 H   0  0  0  0  0  0  0  0  0  0  0  0
    8.2078    1.2501   23.7194 C   0  0  0  0  0  0  0  0  0  0  0  0
    8.1158    1.9870   22.5467 C   0  0  0  0  0  0  0  0  0  0  0  0
    9.2599    2.5410   21.9240 C   0  0  0  0  0  0  0  0  0  0  0  0
   10.5159    2.3352   22.4513 C   0  0  0  0  0  0  0  0  0  0  0  0
   10.6756    1.5293   23.6202 C   0  0  0  0  0  0  0  0  0  0  0  0
   11.9696    1.1680   24.1140 C   0  0  0  0  0  0  0  0  0  0  0  0
   12.1121    0.4121   25.2506 C   0  0  0  0  0  0  0  0  0  0  0  0
   10.9627    0.0329   25.9904 C   0  0  0  0  0  0  0  0  0  0  0  0
    9.7055    0.3584   25.5424 C   0  0  0  0  0  0  0  0  0  0  0  0
    9.5033    1.0427   24.3051 C   0  0  0  0  0  0  0  0  0  0  0  0
    8.8634    0.0703   26.1528 H   0  0  0  0  0  0  0  0  0  0  0  0
   11.0180   -0.5019   26.9284 H   0  0  0  0  0  0  0  0  0  0  0  0
   13.1083    0.1613   25.6079 H   0  0  0  0  0  0  0  0  0  0  0  0
   12.8474    1.4827   23.5550 H   0  0  0  0  0  0  0  0  0  0  0  0
   11.3996    2.7818   21.9998 H   0  0  0  0  0  0  0  0  0  0  0  0
    9.1271    3.1365   21.0262 H   0  0  0  0  0  0  0  0  0  0  0  0
    7.1542    2.0830   22.0432 H   0  0  0  0  0  0  0  0  0  0  0  0
    6.1608    0.8260   23.5425 H   0  0  0  0  0  0  0  0  0  0  0  0
    6.3460    2.2658   25.5558 H   0  0  0  0  0  0  0  0  0  0  0  0
    7.1710    1.0040   26.4594 H   0  0  0  0  0  0  0  0  0  0  0  0
    5.5038    0.7464   25.9060 H   0  0  0  0  0  0  0  0  0  0  0  0
  1  2  1  0
  2  3  1  0
  3  4  1  0
  4  5  1  0
  5  6  2  0
  5  7  1  0
  7  8  1  0
  8  9  2  0
  9 10  1  0
 10 11  2  0
 11 12  1  0
 12 13  2  0
 13 14  1  0
 11 15  1  0
 10 16  1  0
  9 17  1  0
  7 18  1  0
  4 19  1  0
  4 20  1  0
  3 21  1  0
  3 22  1  0
  2 23  1  0
 23 24  2  0
 24 25  1  0
 25 26  2  0
 26 27  1  0
 27 28  2  0
 28 29  1  0
 29 30  2  0
 30 31  1  0
 31 32  2  0
 31 33  1  0
 30 34  1  0
 29 35  1  0
 28 36  1  0
 26 37  1  0
 25 38  1  0
 24 39  1  0
  2 40  1  6
  1 41  1  0
  1 42  1  0
  1 43  1  0
 13  8  1  0
 32 23  1  0
 32 27  1  0
M  CHG  1   3   1
M  END
>  <cnnaffinity>  (1) 
-5.10989

>  <filename>  (1) 
C[C@H]([NH2+]CC(=O)Nc1cccnc1)c1cccc2ccccc12

$$$$
