
     RDKit          3D

 29 30  0  0  0  0  0  0  0  0999 V2000
    4.9447    1.7966   16.9903 H   0  0  0  0  0  0  0  0  0  0  0  0
    5.4031    1.2866   17.8350 C   0  0  0  0  0  0  0  0  0  0  0  0
    6.5634    0.6617   17.5806 N   0  0  0  0  0  0  0  0  0  0  0  0
    7.1735    0.0584   18.6010 C   0  0  0  0  0  0  0  0  0  0  0  0
    8.1282   -0.4172   18.3809 H   0  0  0  0  0  0  0  0  0  0  0  0
    6.6480    0.0137   19.8998 C   0  0  0  0  0  0  0  0  0  0  0  0
    7.4742   -0.6837   20.9261 C   0  0  0  0  0  0  0  0  0  0  0  0
    8.6858   -0.6894   20.8360 O   0  0  0  0  0  0  0  0  0  0  0  0
    6.7394   -1.4097   22.0701 C   0  0  1  0  0  0  0  0  0  0  0  0
    5.6877   -1.4669   21.7675 H   0  0  0  0  0  0  0  0  0  0  0  0
    7.2499   -2.8387   22.1406 C   0  0  0  0  0  0  0  0  0  0  0  0
    8.3513   -3.1707   22.9442 C   0  0  0  0  0  0  0  0  0  0  0  0
    8.8603   -2.3789   23.4781 H   0  0  0  0  0  0  0  0  0  0  0  0
    8.7992   -4.4816   23.0803 C   0  0  0  0  0  0  0  0  0  0  0  0
    9.6779   -4.7121   23.6738 H   0  0  0  0  0  0  0  0  0  0  0  0
    8.1202   -5.4918   22.3989 C   0  0  0  0  0  0  0  0  0  0  0  0
    8.5849   -7.1392   22.6717 Cl  0  0  0  0  0  0  0  0  0  0  0  0
    7.0848   -5.1975   21.5075 C   0  0  0  0  0  0  0  0  0  0  0  0
    6.6087   -5.9819   20.9242 H   0  0  0  0  0  0  0  0  0  0  0  0
    6.6923   -3.8656   21.3572 C   0  0  0  0  0  0  0  0  0  0  0  0
    5.5237   -3.5106   20.1111 Cl  0  0  0  0  0  0  0  0  0  0  0  0
    6.8286   -0.6279   23.3986 C   0  0  0  0  0  0  0  0  0  0  0  0
    7.8632   -0.3810   23.6617 H   0  0  0  0  0  0  0  0  0  0  0  0
    6.2731    0.3144   23.3349 H   0  0  0  0  0  0  0  0  0  0  0  0
    6.4001   -1.2053   24.2266 H   0  0  0  0  0  0  0  0  0  0  0  0
    5.4217    0.6509   20.1483 C   0  0  0  0  0  0  0  0  0  0  0  0
    4.9708    0.6544   21.1454 H   0  0  0  0  0  0  0  0  0  0  0  0
    4.7935    1.3076   19.0938 C   0  0  0  0  0  0  0  0  0  0  0  0
    3.8616    1.8468   19.2312 H   0  0  0  0  0  0  0  0  0  0  0  0
  1  2  1  0
  2  3  2  0
  3  4  1  0
  4  5  1  0
  4  6  2  0
  6  7  1  0
  7  8  2  0
  7  9  1  0
  9 10  1  6
  9 11  1  0
 11 12  2  0
 12 13  1  0
 12 14  1  0
 14 15  1  0
 14 16  2  0
 16 17  1  0
 16 18  1  0
 18 19  1  0
 18 20  2  0
 20 21  1  0
  9 22  1  0
 22 23  1  0
 22 24  1  0
 22 25  1  0
  6 26  1  0
 26 27  1  0
 26 28  2  0
 28 29  1  0
 28  2  1  0
 20 11  1  0
M  END
>  <cnnaffinity>  (1) 
-4.30445

>  <filename>  (1) 
C[C@@H](C(=O)c1cccnc1)c1ccc(Cl)cc1Cl

$$$$
