
     RDKit          3D

 34 35  0  0  0  0  0  0  0  0999 V2000
    5.8155   -7.1216   21.8069 H   0  0  0  0  0  0  0  0  0  0  0  0
    5.5960   -6.2177   22.3701 C   0  0  0  0  0  0  0  0  0  0  0  0
    6.4103   -5.1770   22.1431 N   0  0  0  0  0  0  0  0  0  0  0  0
    6.1797   -4.0482   22.8331 C   0  0  0  0  0  0  0  0  0  0  0  0
    7.0700   -2.8643   22.5535 C   0  0  0  0  0  0  0  0  0  0  0  0
    8.0603   -3.2089   22.2492 H   0  0  0  0  0  0  0  0  0  0  0  0
    7.2028   -2.2753   23.4697 H   0  0  0  0  0  0  0  0  0  0  0  0
    6.5007   -1.9570   21.4488 C   0  0  0  0  0  0  0  0  0  0  0  0
    5.5204   -1.5827   21.7489 H   0  0  0  0  0  0  0  0  0  0  0  0
    6.2996   -2.5509   20.5495 H   0  0  0  0  0  0  0  0  0  0  0  0
    7.3718   -0.7425   21.0463 C   0  0  2  0  0  0  0  0  0  0  0  0
    6.6649    0.0018   19.9150 C   0  0  0  0  0  0  0  0  0  0  0  0
    7.1705    0.0584   18.6112 C   0  0  0  0  0  0  0  0  0  0  0  0
    8.1137   -0.4206   18.3658 H   0  0  0  0  0  0  0  0  0  0  0  0
    6.5635    0.6741   17.5843 N   0  0  0  0  0  0  0  0  0  0  0  0
    5.4035    1.2903   17.8375 C   0  0  0  0  0  0  0  0  0  0  0  0
    4.9191    1.7797   16.9955 H   0  0  0  0  0  0  0  0  0  0  0  0
    4.8059    1.3114   19.1027 C   0  0  0  0  0  0  0  0  0  0  0  0
    3.8749    1.8430   19.2560 H   0  0  0  0  0  0  0  0  0  0  0  0
    5.4402    0.6514   20.1532 C   0  0  0  0  0  0  0  0  0  0  0  0
    4.9938    0.6452   21.1519 H   0  0  0  0  0  0  0  0  0  0  0  0
    8.6928   -1.2416   20.6763 N   0  0  0  0  0  0  0  0  0  0  0  0
    9.2539   -0.4734   20.3281 H   0  0  0  0  0  0  0  0  0  0  0  0
    8.5995   -1.9137   19.9216 H   0  0  0  0  0  0  0  0  0  0  0  0
    7.5717    0.2168   22.2311 C   0  0  0  0  0  0  0  0  0  0  0  0
    7.9880    1.1716   21.8913 H   0  0  0  0  0  0  0  0  0  0  0  0
    8.2599   -0.2156   22.9616 H   0  0  0  0  0  0  0  0  0  0  0  0
    6.6298    0.4406   22.7439 H   0  0  0  0  0  0  0  0  0  0  0  0
    5.1099   -3.9227   23.7339 C   0  0  0  0  0  0  0  0  0  0  0  0
    4.9501   -2.9780   24.2423 H   0  0  0  0  0  0  0  0  0  0  0  0
    4.2634   -5.0073   23.9569 C   0  0  0  0  0  0  0  0  0  0  0  0
    3.4332   -4.9327   24.6599 H   0  0  0  0  0  0  0  0  0  0  0  0
    4.5182   -6.1871   23.2576 C   0  0  0  0  0  0  0  0  0  0  0  0
    3.8996   -7.0666   23.3906 H   0  0  0  0  0  0  0  0  0  0  0  0
  1  2  1  0
  2  3  2  0
  3  4  1  0
  4  5  1  0
  5  6  1  0
  5  7  1  0
  5  8  1  0
  8  9  1  0
  8 10  1  0
  8 11  1  0
 11 12  1  0
 12 13  2  0
 13 14  1  0
 13 15  1  0
 15 16  2  0
 16 17  1  0
 16 18  1  0
 18 19  1  0
 18 20  2  0
 20 21  1  0
 11 22  1  6
 22 23  1  0
 22 24  1  0
 11 25  1  0
 25 26  1  0
 25 27  1  0
 25 28  1  0
  4 29  2  0
 29 30  1  0
 29 31  1  0
 31 32  1  0
 31 33  2  0
 33 34  1  0
 33  2  1  0
 20 12  1  0
M  END
>  <cnnaffinity>  (1) 
-4.79974

>  <filename>  (1) 
C[C@@](N)(CCc1ccccn1)c1cccnc1

$$$$
