
     RDKit          3D

 33 35  0  0  0  0  0  0  0  0999 V2000
    4.9649    1.7840   16.8973 H   0  0  0  0  0  0  0  0  0  0  0  0
    5.3963    1.3161   17.7787 C   0  0  0  0  0  0  0  0  0  0  0  0
    6.5618    0.6794   17.5990 N   0  0  0  0  0  0  0  0  0  0  0  0
    7.1240    0.1156   18.6785 C   0  0  0  0  0  0  0  0  0  0  0  0
    8.0558   -0.4216   18.4972 H   0  0  0  0  0  0  0  0  0  0  0  0
    6.5912    0.1668   19.9796 C   0  0  0  0  0  0  0  0  0  0  0  0
    7.3350   -0.4563   21.1535 C   0  0  2  0  0  0  0  0  0  0  0  0
    6.7322   -0.2827   22.0546 H   0  0  0  0  0  0  0  0  0  0  0  0
    8.7340    0.1573   21.3674 C   0  0  0  0  0  0  0  0  0  0  0  0
    9.3961   -0.0582   20.5152 H   0  0  0  0  0  0  0  0  0  0  0  0
    9.1992   -0.2727   22.2603 H   0  0  0  0  0  0  0  0  0  0  0  0
    8.7043    1.2417   21.5014 H   0  0  0  0  0  0  0  0  0  0  0  0
    7.4764   -1.9873   20.9524 C   0  0  0  0  0  0  0  0  0  0  0  0
    8.2752   -2.0986   20.2159 H   0  0  0  0  0  0  0  0  0  0  0  0
    6.5723   -2.3965   20.4887 H   0  0  0  0  0  0  0  0  0  0  0  0
    7.8699   -2.7854   22.1791 C   0  0  0  0  0  0  0  0  0  0  0  0
    6.9335   -3.3919   23.0285 C   0  0  0  0  0  0  0  0  0  0  0  0
    5.8711   -3.3078   22.8050 H   0  0  0  0  0  0  0  0  0  0  0  0
    7.3296   -4.1251   24.1762 C   0  0  0  0  0  0  0  0  0  0  0  0
    6.6072   -4.5812   24.8433 H   0  0  0  0  0  0  0  0  0  0  0  0
    8.6850   -4.2325   24.4295 C   0  0  0  0  0  0  0  0  0  0  0  0
    9.6252   -3.6545   23.5763 C   0  0  0  0  0  0  0  0  0  0  0  0
    9.2502   -2.9291   22.4711 C   0  0  0  0  0  0  0  0  0  0  0  0
    9.9990   -2.4899   21.8227 H   0  0  0  0  0  0  0  0  0  0  0  0
   10.8844   -3.8953   24.0497 O   0  0  0  0  0  0  0  0  0  0  0  0
   10.6996   -4.8926   25.0436 C   0  0  0  0  0  0  0  0  0  0  0  0
   11.3757   -4.6835   25.8659 H   0  0  0  0  0  0  0  0  0  0  0  0
   10.8794   -5.8974   24.6286 H   0  0  0  0  0  0  0  0  0  0  0  0
    9.3505   -4.8067   25.4867 O   0  0  0  0  0  0  0  0  0  0  0  0
    5.3422    0.7910   20.1257 C   0  0  0  0  0  0  0  0  0  0  0  0
    4.8523    0.8128   21.1032 H   0  0  0  0  0  0  0  0  0  0  0  0
    4.7367    1.3800   19.0124 C   0  0  0  0  0  0  0  0  0  0  0  0
    3.7828    1.8912   19.0856 H   0  0  0  0  0  0  0  0  0  0  0  0
  1  2  1  0
  2  3  2  0
  3  4  1  0
  4  5  1  0
  4  6  2  0
  6  7  1  0
  7  8  1  1
  7  9  1  0
  9 10  1  0
  9 11  1  0
  9 12  1  0
  7 13  1  0
 13 14  1  0
 13 15  1  0
 13 16  1  0
 16 17  2  0
 17 18  1  0
 17 19  1  0
 19 20  1  0
 19 21  2  0
 21 22  1  0
 22 23  2  0
 23 24  1  0
 22 25  1  0
 25 26  1  0
 26 27  1  0
 26 28  1  0
 26 29  1  0
  6 30  1  0
 30 31  1  0
 30 32  2  0
 32 33  1  0
 32  2  1  0
 23 16  1  0
 29 21  1  0
M  END
>  <cnnaffinity>  (1) 
-4.86273

>  <filename>  (1) 
C[C@H](Cc1ccc2c(c1)OCO2)c1cccnc1

$$$$
