
     RDKit          3D

 38 40  0  0  0  0  0  0  0  0999 V2000
    5.2105    1.8629   16.9693 H   0  0  0  0  0  0  0  0  0  0  0  0
    5.5107    1.3074   17.8524 C   0  0  0  0  0  0  0  0  0  0  0  0
    6.5889    0.5199   17.7125 N   0  0  0  0  0  0  0  0  0  0  0  0
    6.9809   -0.1597   18.7972 C   0  0  0  0  0  0  0  0  0  0  0  0
    7.8802   -0.7693   18.6805 H   0  0  0  0  0  0  0  0  0  0  0  0
    6.3554   -0.1035   20.0583 C   0  0  0  0  0  0  0  0  0  0  0  0
    6.9540   -0.8985   21.1557 C   0  0  0  0  0  0  0  0  0  0  0  0
    7.2996   -2.2291   21.1043 C   0  0  0  0  0  0  0  0  0  0  0  0
    7.0118   -2.8798   20.2919 H   0  0  0  0  0  0  0  0  0  0  0  0
    8.0236   -2.5486   22.2827 C   0  0  0  0  0  0  0  0  0  0  0  0
    8.4870   -3.4953   22.5356 H   0  0  0  0  0  0  0  0  0  0  0  0
    8.0966   -1.3913   23.0186 C   0  0  0  0  0  0  0  0  0  0  0  0
    8.6246   -1.1634   23.9356 H   0  0  0  0  0  0  0  0  0  0  0  0
    7.4252   -0.3933   22.3514 N   0  0  0  0  0  0  0  0  0  0  0  0
    7.4443    0.9925   22.7914 C   0  0  0  0  0  0  0  0  0  0  0  0
    6.5671    1.4915   22.3730 H   0  0  0  0  0  0  0  0  0  0  0  0
    7.3307    0.9825   23.8781 H   0  0  0  0  0  0  0  0  0  0  0  0
    8.6917    1.8192   22.3985 C   0  0  1  0  0  0  0  0  0  0  0  0
    8.5091    2.8231   22.8071 H   0  0  0  0  0  0  0  0  0  0  0  0
   10.0025    1.3346   23.0078 C   0  0  0  0  0  0  0  0  0  0  0  0
   10.7355    0.2571   22.4778 C   0  0  0  0  0  0  0  0  0  0  0  0
   10.2910   -0.3553   21.6957 H   0  0  0  0  0  0  0  0  0  0  0  0
   12.0146   -0.0446   22.9583 C   0  0  0  0  0  0  0  0  0  0  0  0
   12.5732   -0.8611   22.5138 H   0  0  0  0  0  0  0  0  0  0  0  0
   12.5732    0.6866   24.0111 C   0  0  0  0  0  0  0  0  0  0  0  0
   13.5783    0.4724   24.3716 H   0  0  0  0  0  0  0  0  0  0  0  0
   11.8212    1.7112   24.5844 C   0  0  0  0  0  0  0  0  0  0  0  0
   12.2107    2.2831   25.4087 H   0  0  0  0  0  0  0  0  0  0  0  0
   10.5534    2.0233   24.0999 C   0  0  0  0  0  0  0  0  0  0  0  0
    9.9836    2.8215   24.5690 H   0  0  0  0  0  0  0  0  0  0  0  0
    8.7818    1.9699   20.8807 C   0  0  0  0  0  0  0  0  0  0  0  0
    9.5317    2.7279   20.6457 H   0  0  0  0  0  0  0  0  0  0  0  0
    9.0814    1.0323   20.4010 H   0  0  0  0  0  0  0  0  0  0  0  0
    7.8154    2.2686   20.4586 H   0  0  0  0  0  0  0  0  0  0  0  0
    5.2109    0.7064   20.1663 C   0  0  0  0  0  0  0  0  0  0  0  0
    4.6619    0.7441   21.1080 H   0  0  0  0  0  0  0  0  0  0  0  0
    4.7866    1.4272   19.0440 C   0  0  0  0  0  0  0  0  0  0  0  0
    3.9298    2.0932   19.0846 H   0  0  0  0  0  0  0  0  0  0  0  0
  1  2  1  0
  2  3  2  0
  3  4  1  0
  4  5  1  0
  4  6  2  0
  6  7  1  0
  7  8  2  0
  8  9  1  0
  8 10  1  0
 10 11  1  0
 10 12  2  0
 12 13  1  0
 12 14  1  0
 14 15  1  0
 15 16  1  0
 15 17  1  0
 15 18  1  0
 18 19  1  1
 18 20  1  0
 20 21  2  0
 21 22  1  0
 21 23  1  0
 23 24  1  0
 23 25  2  0
 25 26  1  0
 25 27  1  0
 27 28  1  0
 27 29  2  0
 29 30  1  0
 18 31  1  0
 31 32  1  0
 31 33  1  0
 31 34  1  0
  6 35  1  0
 35 36  1  0
 35 37  2  0
 37 38  1  0
 37  2  1  0
 14  7  1  0
 29 20  1  0
M  END
>  <cnnaffinity>  (1) 
-5.02262

>  <filename>  (1) 
C[C@@H](Cn1cccc1-c1cccnc1)c1ccccc1

$$$$
