
     RDKit          3D

 29 30  0  0  0  0  0  0  0  0999 V2000
    4.9480    1.8165   16.9343 H   0  0  0  0  0  0  0  0  0  0  0  0
    5.3702    1.3183   17.7991 C   0  0  0  0  0  0  0  0  0  0  0  0
    6.5268    0.6729   17.5830 N   0  0  0  0  0  0  0  0  0  0  0  0
    7.1090    0.0988   18.6431 C   0  0  0  0  0  0  0  0  0  0  0  0
    8.0477   -0.4213   18.4381 H   0  0  0  0  0  0  0  0  0  0  0  0
    6.5882    0.1322   19.9479 C   0  0  0  0  0  0  0  0  0  0  0  0
    7.2896   -0.5526   21.0916 C   0  0  2  0  0  0  0  0  0  0  0  0
    6.7464   -0.3312   22.0209 H   0  0  0  0  0  0  0  0  0  0  0  0
    9.0290    0.0724   21.3645 S   0  0  0  0  0  0  0  0  0  0  0  0
    9.3837   -0.7801   22.8121 O   0  0  0  0  0  0  0  0  0  0  0  0
    8.8019   -0.2563   24.0689 C   0  0  0  0  0  0  0  0  0  0  0  0
    8.1440    0.9670   24.0961 C   0  0  0  0  0  0  0  0  0  0  0  0
    8.0568    1.5349   23.1791 H   0  0  0  0  0  0  0  0  0  0  0  0
    7.6114    1.4246   25.3030 C   0  0  0  0  0  0  0  0  0  0  0  0
    7.0754    2.3682   25.3467 H   0  0  0  0  0  0  0  0  0  0  0  0
    7.7726    0.6479   26.4545 C   0  0  0  0  0  0  0  0  0  0  0  0
    7.1343    1.2458   27.9605 Cl  0  0  0  0  0  0  0  0  0  0  0  0
    8.4416   -0.5816   26.4181 C   0  0  0  0  0  0  0  0  0  0  0  0
    8.5413   -1.1451   27.3439 H   0  0  0  0  0  0  0  0  0  0  0  0
    8.9613   -1.0440   25.1968 C   0  0  0  0  0  0  0  0  0  0  0  0
    9.4758   -1.9888   25.0702 H   0  0  0  0  0  0  0  0  0  0  0  0
    7.4719   -2.0622   20.9515 C   0  0  0  0  0  0  0  0  0  0  0  0
    6.5466   -2.5607   20.6455 H   0  0  0  0  0  0  0  0  0  0  0  0
    7.8681   -2.4660   21.8929 H   0  0  0  0  0  0  0  0  0  0  0  0
    8.2398   -2.2189   20.2031 H   0  0  0  0  0  0  0  0  0  0  0  0
    5.3452    0.7667   20.1332 C   0  0  0  0  0  0  0  0  0  0  0  0
    4.8670    0.7796   21.1178 H   0  0  0  0  0  0  0  0  0  0  0  0
    4.7269    1.3736   19.0402 C   0  0  0  0  0  0  0  0  0  0  0  0
    3.7818    1.9022   19.1382 H   0  0  0  0  0  0  0  0  0  0  0  0
  1  2  1  0
  2  3  2  0
  3  4  1  0
  4  5  1  0
  4  6  2  0
  6  7  1  0
  7  8  1  1
  7  9  1  0
  9 10  1  0
 10 11  1  0
 11 12  2  0
 12 13  1  0
 12 14  1  0
 14 15  1  0
 14 16  2  0
 16 17  1  0
 16 18  1  0
 18 19  1  0
 18 20  2  0
 20 21  1  0
  7 22  1  0
 22 23  1  0
 22 24  1  0
 22 25  1  0
  6 26  1  0
 26 27  1  0
 26 28  2  0
 28 29  1  0
 28  2  1  0
 20 11  1  0
M  END
>  <cnnaffinity>  (1) 
-4.55556

>  <filename>  (1) 
C[C@@H](SOc1ccc(Cl)cc1)c1cccnc1

$$$$
