
     RDKit          3D

 39 41  0  0  0  0  0  0  0  0999 V2000
    5.6760   -1.5612   21.9626 H   0  0  0  0  0  0  0  0  0  0  0  0
    6.7527   -1.4604   21.9710 C   0  0  0  0  0  0  0  0  0  0  0  0
    7.4069   -2.0770   22.9382 N   0  0  0  0  0  0  0  0  0  0  0  0
    8.7580   -2.0224   22.9165 N   0  0  0  0  0  0  0  0  0  0  0  0
    9.3762   -1.4200   21.9032 C   0  0  0  0  0  0  0  0  0  0  0  0
   10.8726   -1.4661   21.8603 C   0  0  0  0  0  0  0  0  0  0  0  0
   11.2478   -1.9980   22.7366 H   0  0  0  0  0  0  0  0  0  0  0  0
   11.1857   -2.0071   20.9614 H   0  0  0  0  0  0  0  0  0  0  0  0
   11.4596   -0.0673   21.8097 C   0  0  0  0  0  0  0  0  0  0  0  0
   12.5468   -0.1849   21.7084 H   0  0  0  0  0  0  0  0  0  0  0  0
   11.1143    0.4807   20.9173 H   0  0  0  0  0  0  0  0  0  0  0  0
   11.2286    0.7001   23.0168 N   0  0  0  0  0  0  0  0  0  0  0  0
    9.8769    1.1192   23.3912 C   0  0  0  0  0  0  0  0  0  0  0  0
    9.2903    0.2941   23.8033 H   0  0  0  0  0  0  0  0  0  0  0  0
    9.3308    1.5111   22.5193 H   0  0  0  0  0  0  0  0  0  0  0  0
   10.1168    2.2190   24.4207 C   0  0  0  0  0  0  0  0  0  0  0  0
   10.3646    1.7661   25.3918 H   0  0  0  0  0  0  0  0  0  0  0  0
    9.2539    2.8853   24.5499 H   0  0  0  0  0  0  0  0  0  0  0  0
   11.3226    2.9419   23.8302 C   0  0  0  0  0  0  0  0  0  0  0  0
   10.9811    3.6405   23.0596 H   0  0  0  0  0  0  0  0  0  0  0  0
   11.8965    3.5296   24.5538 H   0  0  0  0  0  0  0  0  0  0  0  0
   12.1513    1.8210   23.1748 C   0  0  1  0  0  0  0  0  0  0  0  0
   12.5326    2.1816   22.2003 H   0  0  0  0  0  0  0  0  0  0  0  0
   13.3430    1.3564   23.9935 C   0  0  0  0  0  0  0  0  0  0  0  0
   13.0027    0.8788   24.9191 H   0  0  0  0  0  0  0  0  0  0  0  0
   13.9374    0.6210   23.4407 H   0  0  0  0  0  0  0  0  0  0  0  0
   13.9703    2.2203   24.1994 H   0  0  0  0  0  0  0  0  0  0  0  0
    8.7630   -0.7554   20.8933 N   0  0  0  0  0  0  0  0  0  0  0  0
    7.4319   -0.7433   20.9439 C   0  0  0  0  0  0  0  0  0  0  0  0
    6.7089    0.0123   19.8980 C   0  0  0  0  0  0  0  0  0  0  0  0
    7.2542    0.0750   18.6049 C   0  0  0  0  0  0  0  0  0  0  0  0
    8.2122   -0.4020   18.3908 H   0  0  0  0  0  0  0  0  0  0  0  0
    6.6538    0.6753   17.5754 N   0  0  0  0  0  0  0  0  0  0  0  0
    5.4782    1.2776   17.8070 C   0  0  0  0  0  0  0  0  0  0  0  0
    5.0071    1.7578   16.9498 H   0  0  0  0  0  0  0  0  0  0  0  0
    4.8598    1.3062   19.0610 C   0  0  0  0  0  0  0  0  0  0  0  0
    3.9167    1.8303   19.1844 H   0  0  0  0  0  0  0  0  0  0  0  0
    5.4869    0.6661   20.1287 C   0  0  0  0  0  0  0  0  0  0  0  0
    5.0396    0.6938   21.1256 H   0  0  0  0  0  0  0  0  0  0  0  0
  1  2  1  0
  2  3  2  0
  3  4  1  0
  4  5  2  0
  5  6  1  0
  6  7  1  0
  6  8  1  0
  6  9  1  0
  9 10  1  0
  9 11  1  0
  9 12  1  0
 12 13  1  0
 13 14  1  0
 13 15  1  0
 13 16  1  0
 16 17  1  0
 16 18  1  0
 16 19  1  0
 19 20  1  0
 19 21  1  0
 19 22  1  0
 22 23  1  6
 22 24  1  0
 24 25  1  0
 24 26  1  0
 24 27  1  0
  5 28  1  0
 28 29  2  0
 29 30  1  0
 30 31  2  0
 31 32  1  0
 31 33  1  0
 33 34  2  0
 34 35  1  0
 34 36  1  0
 36 37  1  0
 36 38  2  0
 38 39  1  0
 29  2  1  0
 38 30  1  0
 22 12  1  0
M  END
>  <cnnaffinity>  (1) 
-5.20094

>  <filename>  (1) 
C[C@@H]1CCCN1CCc1nncc(-c2cccnc2)n1

$$$$
