
     RDKit          3D

 29 30  0  0  0  0  0  0  0  0999 V2000
    7.0188   -1.0262   22.9106 H   0  0  0  0  0  0  0  0  0  0  0  0
    6.7269   -0.2956   22.3466 O   0  0  0  0  0  0  0  0  0  0  0  0
    7.4278   -0.4382   21.1478 C   0  0  1  0  0  0  0  0  0  0  0  0
    7.5527   -2.2490   20.7618 S   0  0  0  0  0  0  0  0  0  0  0  0
    8.5108   -2.8747   22.1095 C   0  0  0  0  0  0  0  0  0  0  0  0
    9.9020   -2.6846   22.1477 C   0  0  0  0  0  0  0  0  0  0  0  0
   10.3967   -2.1260   21.3559 H   0  0  0  0  0  0  0  0  0  0  0  0
   10.6515   -3.2272   23.1949 C   0  0  0  0  0  0  0  0  0  0  0  0
   11.7299   -3.1014   23.1934 H   0  0  0  0  0  0  0  0  0  0  0  0
   10.0245   -3.9646   24.2024 C   0  0  0  0  0  0  0  0  0  0  0  0
   10.6145   -4.3939   25.0092 H   0  0  0  0  0  0  0  0  0  0  0  0
    8.6390   -4.1634   24.1609 C   0  0  0  0  0  0  0  0  0  0  0  0
    8.1447   -4.7393   24.9386 H   0  0  0  0  0  0  0  0  0  0  0  0
    7.8802   -3.6209   23.1167 C   0  0  0  0  0  0  0  0  0  0  0  0
    6.8050   -3.7932   23.0674 H   0  0  0  0  0  0  0  0  0  0  0  0
    6.6138    0.1318   20.0082 C   0  0  0  0  0  0  0  0  0  0  0  0
    7.1334    0.0608   18.7111 C   0  0  0  0  0  0  0  0  0  0  0  0
    8.0476   -0.4992   18.5123 H   0  0  0  0  0  0  0  0  0  0  0  0
    6.5718    0.6282   17.6382 N   0  0  0  0  0  0  0  0  0  0  0  0
    5.4174    1.2829   17.8281 C   0  0  0  0  0  0  0  0  0  0  0  0
    4.9897    1.7723   16.9538 H   0  0  0  0  0  0  0  0  0  0  0  0
    4.7637    1.3368   19.0625 C   0  0  0  0  0  0  0  0  0  0  0  0
    3.8187    1.8576   19.1463 H   0  0  0  0  0  0  0  0  0  0  0  0
    5.3593    0.7361   20.1704 C   0  0  0  0  0  0  0  0  0  0  0  0
    4.8855    0.7234   21.1518 H   0  0  0  0  0  0  0  0  0  0  0  0
    8.8005    0.2309   21.2969 C   0  0  0  0  0  0  0  0  0  0  0  0
    9.3311   -0.2028   22.1490 H   0  0  0  0  0  0  0  0  0  0  0  0
    8.6567    1.2963   21.4918 H   0  0  0  0  0  0  0  0  0  0  0  0
    9.4202    0.1226   20.4030 H   0  0  0  0  0  0  0  0  0  0  0  0
  1  2  1  0
  3  2  1  1
  3  4  1  0
  4  5  1  0
  5  6  2  0
  6  7  1  0
  6  8  1  0
  8  9  1  0
  8 10  2  0
 10 11  1  0
 10 12  1  0
 12 13  1  0
 12 14  2  0
 14 15  1  0
  3 16  1  0
 16 17  2  0
 17 18  1  0
 17 19  1  0
 19 20  2  0
 20 21  1  0
 20 22  1  0
 22 23  1  0
 22 24  2  0
 24 25  1  0
  3 26  1  0
 26 27  1  0
 26 28  1  0
 26 29  1  0
 14  5  1  0
 24 16  1  0
M  END
>  <cnnaffinity>  (1) 
-4.5727

>  <filename>  (1) 
C[C@](O)(Sc1ccccc1)c1cccnc1

$$$$
