
     RDKit          3D

 37 38  0  0  0  0  0  0  0  0999 V2000
    4.6907    2.0517   16.8222 H   0  0  0  0  0  0  0  0  0  0  0  0
    5.1646    1.4685   17.6050 C   0  0  0  0  0  0  0  0  0  0  0  0
    6.2847    0.8194   17.2463 N   0  0  0  0  0  0  0  0  0  0  0  0
    6.9386    0.1407   18.1961 C   0  0  0  0  0  0  0  0  0  0  0  0
    7.8364   -0.3884   17.8863 H   0  0  0  0  0  0  0  0  0  0  0  0
    6.5149    0.0700   19.5451 C   0  0  0  0  0  0  0  0  0  0  0  0
    7.2612   -0.5948   20.5562 N   0  0  0  0  0  0  0  0  0  0  0  0
    6.7209   -0.9023   21.3493 H   0  0  0  0  0  0  0  0  0  0  0  0
    8.6262   -0.4338   20.7493 C   0  0  0  0  0  0  0  0  0  0  0  0
    9.3048    0.2371   19.9949 O   0  0  0  0  0  0  0  0  0  0  0  0
    9.2201   -1.2756   21.9158 C   0  0  2  0  0  0  0  0  0  0  0  0
    8.3853   -1.8111   22.3962 H   0  0  0  0  0  0  0  0  0  0  0  0
    9.9257   -0.4853   22.8573 O   0  0  0  0  0  0  0  0  0  0  0  0
    9.2068   -0.0307   23.9885 C   0  0  0  0  0  0  0  0  0  0  0  0
    8.1613    0.1963   23.7106 H   0  0  0  0  0  0  0  0  0  0  0  0
    9.2250   -1.0911   25.0976 C   0  0  0  0  0  0  0  0  0  0  0  0
    8.7072   -2.0042   24.7733 H   0  0  0  0  0  0  0  0  0  0  0  0
   10.2715   -1.3636   25.2705 H   0  0  0  0  0  0  0  0  0  0  0  0
    8.5824   -0.5593   26.3882 C   0  0  0  0  0  0  0  0  0  0  0  0
    7.4888   -0.6101   26.3010 H   0  0  0  0  0  0  0  0  0  0  0  0
    8.8538   -1.2125   27.2279 H   0  0  0  0  0  0  0  0  0  0  0  0
    8.9606    0.8046   26.7572 N   0  0  0  0  0  0  0  0  0  0  0  0
    9.8252    0.7818   27.2900 H   0  0  0  0  0  0  0  0  0  0  0  0
    9.1122    1.7842   25.6821 C   0  0  0  0  0  0  0  0  0  0  0  0
    9.6232    2.6581   26.0970 H   0  0  0  0  0  0  0  0  0  0  0  0
    8.1220    2.1387   25.3566 H   0  0  0  0  0  0  0  0  0  0  0  0
    9.8894    1.2411   24.4812 C   0  0  0  0  0  0  0  0  0  0  0  0
    9.9588    1.9772   23.6695 H   0  0  0  0  0  0  0  0  0  0  0  0
   10.9142    0.9863   24.7917 H   0  0  0  0  0  0  0  0  0  0  0  0
   10.2057   -2.3234   21.4313 C   0  0  0  0  0  0  0  0  0  0  0  0
   10.4970   -2.9445   22.2863 H   0  0  0  0  0  0  0  0  0  0  0  0
    9.7443   -2.9498   20.6641 H   0  0  0  0  0  0  0  0  0  0  0  0
   11.1092   -1.8577   21.0309 H   0  0  0  0  0  0  0  0  0  0  0  0
    5.2993    0.6795   19.8793 C   0  0  0  0  0  0  0  0  0  0  0  0
    4.9149    0.6055   20.8973 H   0  0  0  0  0  0  0  0  0  0  0  0
    4.6222    1.4074   18.8936 C   0  0  0  0  0  0  0  0  0  0  0  0
    3.6947    1.9288   19.1101 H   0  0  0  0  0  0  0  0  0  0  0  0
  1  2  1  0
  2  3  2  0
  3  4  1  0
  4  5  1  0
  4  6  2  0
  6  7  1  0
  7  8  1  0
  7  9  1  0
  9 10  2  0
  9 11  1  0
 11 12  1  1
 11 13  1  0
 13 14  1  0
 14 15  1  0
 14 16  1  0
 16 17  1  0
 16 18  1  0
 16 19  1  0
 19 20  1  0
 19 21  1  0
 19 22  1  0
 22 23  1  0
 22 24  1  0
 24 25  1  0
 24 26  1  0
 24 27  1  0
 27 28  1  0
 27 29  1  0
 11 30  1  0
 30 31  1  0
 30 32  1  0
 30 33  1  0
  6 34  1  0
 34 35  1  0
 34 36  2  0
 36 37  1  0
 36  2  1  0
 27 14  1  0
M  END
>  <cnnaffinity>  (1) 
-4.30159

>  <filename>  (1) 
C[C@@H](OC1CCNCC1)C(=O)Nc1cccnc1

$$$$
