
     RDKit          3D

 35 36  0  0  0  0  0  0  0  0999 V2000
    4.9315    1.8371   16.9706 H   0  0  0  0  0  0  0  0  0  0  0  0
    5.4036    1.3191   17.8022 C   0  0  0  0  0  0  0  0  0  0  0  0
    6.5693    0.7061   17.5375 N   0  0  0  0  0  0  0  0  0  0  0  0
    7.1925    0.0797   18.5491 C   0  0  0  0  0  0  0  0  0  0  0  0
    8.1391   -0.4024   18.2990 H   0  0  0  0  0  0  0  0  0  0  0  0
    6.6860   -0.0060   19.8779 C   0  0  0  0  0  0  0  0  0  0  0  0
    7.3641   -0.6702   20.9307 N   0  0  0  0  0  0  0  0  0  0  0  0
    8.7501   -0.3226   21.1947 C   0  0  0  0  0  0  0  0  0  0  0  0
    8.8727    0.7588   21.3611 H   0  0  0  0  0  0  0  0  0  0  0  0
    9.1052   -0.8278   22.0987 H   0  0  0  0  0  0  0  0  0  0  0  0
    9.4338   -0.6176   20.3816 H   0  0  0  0  0  0  0  0  0  0  0  0
    6.6927   -1.6603   21.7936 C   0  0  2  0  0  0  0  0  0  0  0  0
    5.6617   -1.7538   21.4267 H   0  0  0  0  0  0  0  0  0  0  0  0
    6.6356   -1.2358   23.2624 C   0  0  0  0  0  0  0  0  0  0  0  0
    6.0489   -1.9614   23.8357 H   0  0  0  0  0  0  0  0  0  0  0  0
    7.6330   -1.1904   23.7100 H   0  0  0  0  0  0  0  0  0  0  0  0
    6.1610   -0.2565   23.3848 H   0  0  0  0  0  0  0  0  0  0  0  0
    7.3637   -3.0520   21.6427 C   0  0  0  0  0  0  0  0  0  0  0  0
    8.3615   -3.0058   22.0944 H   0  0  0  0  0  0  0  0  0  0  0  0
    7.5216   -3.1932   20.5753 H   0  0  0  0  0  0  0  0  0  0  0  0
    6.5750   -4.2120   22.2136 C   0  0  0  0  0  0  0  0  0  0  0  0
    5.5309   -4.7826   21.4680 C   0  0  0  0  0  0  0  0  0  0  0  0
    5.3942   -4.4461   20.4445 H   0  0  0  0  0  0  0  0  0  0  0  0
    4.7076   -5.7776   22.0054 C   0  0  0  0  0  0  0  0  0  0  0  0
    3.8407   -6.1747   21.4992 H   0  0  0  0  0  0  0  0  0  0  0  0
    4.9874   -6.2547   23.2814 C   0  0  0  0  0  0  0  0  0  0  0  0
    4.2267   -7.2400   23.7912 F   0  0  0  0  0  0  0  0  0  0  0  0
    6.0256   -5.7337   24.0441 C   0  0  0  0  0  0  0  0  0  0  0  0
    6.1828   -6.1277   25.0402 H   0  0  0  0  0  0  0  0  0  0  0  0
    6.8081   -4.7038   23.5092 C   0  0  0  0  0  0  0  0  0  0  0  0
    7.6020   -4.2654   24.1116 H   0  0  0  0  0  0  0  0  0  0  0  0
    5.4491    0.6317   20.1076 C   0  0  0  0  0  0  0  0  0  0  0  0
    5.0349    0.6095   21.1136 H   0  0  0  0  0  0  0  0  0  0  0  0
    4.8047    1.3085   19.0655 C   0  0  0  0  0  0  0  0  0  0  0  0
    3.8616    1.8244   19.2224 H   0  0  0  0  0  0  0  0  0  0  0  0
  1  2  1  0
  2  3  2  0
  3  4  1  0
  4  5  1  0
  4  6  2  0
  6  7  1  0
  7  8  1  0
  8  9  1  0
  8 10  1  0
  8 11  1  0
  7 12  1  0
 12 13  1  6
 12 14  1  0
 14 15  1  0
 14 16  1  0
 14 17  1  0
 12 18  1  0
 18 19  1  0
 18 20  1  0
 18 21  1  0
 21 22  2  0
 22 23  1  0
 22 24  1  0
 24 25  1  0
 24 26  2  0
 26 27  1  0
 26 28  1  0
 28 29  1  0
 28 30  2  0
 30 31  1  0
  6 32  1  0
 32 33  1  0
 32 34  2  0
 34 35  1  0
 34  2  1  0
 30 21  1  0
M  END
>  <cnnaffinity>  (1) 
-4.54568

>  <filename>  (1) 
C[C@H](Cc1ccc(F)cc1)N(C)c1cccnc1

$$$$
