
     RDKit          3D

 33 34  0  0  0  0  0  0  0  0999 V2000
    7.5671    1.1455   23.1763 C   0  0  0  0  0  0  0  0  0  0  0  0
    8.1820   -0.2490   23.3509 C   0  0  2  0  0  0  0  0  0  0  0  0
    7.2041   -1.2854   22.9967 N   0  0  0  0  0  0  0  0  0  0  0  0
    6.7007   -1.4538   21.7283 C   0  0  0  0  0  0  0  0  0  0  0  0
    5.5459   -2.6239   21.5065 S   0  0  0  0  0  0  0  0  0  0  0  0
    7.3500   -0.8240   20.6748 N   0  0  0  0  0  0  0  0  0  0  0  0
    6.6832   -0.1261   19.6488 C   0  0  0  0  0  0  0  0  0  0  0  0
    5.4487    0.4619   19.9245 C   0  0  0  0  0  0  0  0  0  0  0  0
    4.8370    1.2303   18.9343 C   0  0  0  0  0  0  0  0  0  0  0  0
    5.4484    1.3752   17.6832 C   0  0  0  0  0  0  0  0  0  0  0  0
    6.6340    0.8117   17.3949 N   0  0  0  0  0  0  0  0  0  0  0  0
    7.2419    0.0918   18.3630 C   0  0  0  0  0  0  0  0  0  0  0  0
    8.2161   -0.3304   18.1307 H   0  0  0  0  0  0  0  0  0  0  0  0
    4.9440    1.9678   16.9262 H   0  0  0  0  0  0  0  0  0  0  0  0
    3.8998    1.7361   19.1244 H   0  0  0  0  0  0  0  0  0  0  0  0
    5.0162    0.3391   20.9154 H   0  0  0  0  0  0  0  0  0  0  0  0
    8.2232   -0.4111   20.9860 H   0  0  0  0  0  0  0  0  0  0  0  0
    6.6960   -1.7541   23.7384 H   0  0  0  0  0  0  0  0  0  0  0  0
    8.6533   -0.3978   24.7816 C   0  0  0  0  0  0  0  0  0  0  0  0
    7.7789   -0.8319   25.8002 C   0  0  0  0  0  0  0  0  0  0  0  0
    8.1851   -0.8322   27.1411 C   0  0  0  0  0  0  0  0  0  0  0  0
    9.4792   -0.4252   27.4775 C   0  0  0  0  0  0  0  0  0  0  0  0
   10.3552   -0.0114   26.4718 C   0  0  0  0  0  0  0  0  0  0  0  0
    9.9594    0.0066   25.1321 C   0  0  0  0  0  0  0  0  0  0  0  0
   11.2291    0.5839   23.8130 Br  0  0  0  0  0  0  0  0  0  0  0  0
   11.3442    0.3306   26.7467 H   0  0  0  0  0  0  0  0  0  0  0  0
    9.8219   -0.3948   28.5115 H   0  0  0  0  0  0  0  0  0  0  0  0
    7.4865   -1.1456   27.9111 H   0  0  0  0  0  0  0  0  0  0  0  0
    6.7789   -1.1793   25.5498 H   0  0  0  0  0  0  0  0  0  0  0  0
    9.0429   -0.3478   22.6808 H   0  0  0  0  0  0  0  0  0  0  0  0
    8.3091    1.9182   23.4174 H   0  0  0  0  0  0  0  0  0  0  0  0
    7.2261    1.2888   22.1438 H   0  0  0  0  0  0  0  0  0  0  0  0
    6.7137    1.2714   23.8529 H   0  0  0  0  0  0  0  0  0  0  0  0
  1  2  1  0
  2  3  1  0
  3  4  1  0
  4  5  2  0
  4  6  1  0
  6  7  1  0
  7  8  2  0
  8  9  1  0
  9 10  2  0
 10 11  1  0
 11 12  2  0
 12 13  1  0
 10 14  1  0
  9 15  1  0
  8 16  1  0
  6 17  1  0
  3 18  1  0
  2 19  1  0
 19 20  2  0
 20 21  1  0
 21 22  2  0
 22 23  1  0
 23 24  2  0
 24 25  1  0
 23 26  1  0
 22 27  1  0
 21 28  1  0
 20 29  1  0
  2 30  1  6
  1 31  1  0
  1 32  1  0
  1 33  1  0
 12  7  1  0
 24 19  1  0
M  END
>  <cnnaffinity>  (1) 
-4.9615

>  <filename>  (1) 
C[C@H](NC(=S)Nc1cccnc1)c1ccccc1Br

$$$$
