
     RDKit          3D

 28 29  0  0  0  0  0  0  0  0999 V2000
    7.0845   -2.0336   21.1302 C   0  0  0  0  0  0  0  0  0  0  0  0
    7.2016   -0.5237   21.2169 C   0  0  1  0  0  0  0  0  0  0  0  0
    8.6140   -0.1417   21.1520 N   0  0  0  0  0  0  0  0  0  0  0  0
    9.0253    1.0754   21.6392 C   0  0  0  0  0  0  0  0  0  0  0  0
    8.0226    1.9245   21.8492 N   0  0  0  0  0  0  0  0  0  0  0  0
    8.3070    3.1484   22.2679 C   0  0  0  0  0  0  0  0  0  0  0  0
    9.6185    3.5392   22.5309 C   0  0  0  0  0  0  0  0  0  0  0  0
   10.6785    2.6628   22.3149 C   0  0  0  0  0  0  0  0  0  0  0  0
   12.7934    3.3061   22.7299 I   0  0  0  0  0  0  0  0  0  0  0  0
   10.3778    1.3825   21.8550 C   0  0  0  0  0  0  0  0  0  0  0  0
   11.6435    0.1859   21.6281 Cl  0  0  0  0  0  0  0  0  0  0  0  0
    9.8094    4.5432   22.8767 H   0  0  0  0  0  0  0  0  0  0  0  0
    7.4833    3.8488   22.3811 H   0  0  0  0  0  0  0  0  0  0  0  0
    9.3131   -0.8266   20.8963 H   0  0  0  0  0  0  0  0  0  0  0  0
    6.5216    0.1401   20.0557 C   0  0  0  0  0  0  0  0  0  0  0  0
    5.2869    0.7907   20.1690 C   0  0  0  0  0  0  0  0  0  0  0  0
    4.7567    1.3743   19.0191 C   0  0  0  0  0  0  0  0  0  0  0  0
    5.4556    1.3025   17.8095 C   0  0  0  0  0  0  0  0  0  0  0  0
    6.6383    0.6701   17.7005 N   0  0  0  0  0  0  0  0  0  0  0  0
    7.1545    0.1098   18.8085 C   0  0  0  0  0  0  0  0  0  0  0  0
    8.1100   -0.3996   18.7347 H   0  0  0  0  0  0  0  0  0  0  0  0
    5.0150    1.7481   16.9225 H   0  0  0  0  0  0  0  0  0  0  0  0
    3.8080    1.8975   19.0493 H   0  0  0  0  0  0  0  0  0  0  0  0
    4.7637    0.8600   21.1218 H   0  0  0  0  0  0  0  0  0  0  0  0
    6.7684   -0.2002   22.1712 H   0  0  0  0  0  0  0  0  0  0  0  0
    7.4000   -2.3510   20.1449 H   0  0  0  0  0  0  0  0  0  0  0  0
    7.7215   -2.5133   21.8780 H   0  0  0  0  0  0  0  0  0  0  0  0
    6.0514   -2.3594   21.2828 H   0  0  0  0  0  0  0  0  0  0  0  0
  1  2  1  0
  2  3  1  0
  3  4  1  0
  4  5  2  0
  5  6  1  0
  6  7  2  0
  7  8  1  0
  8  9  1  0
  8 10  2  0
 10 11  1  0
  7 12  1  0
  6 13  1  0
  3 14  1  0
  2 15  1  0
 15 16  2  0
 16 17  1  0
 17 18  2  0
 18 19  1  0
 19 20  2  0
 20 21  1  0
 18 22  1  0
 17 23  1  0
 16 24  1  0
  2 25  1  1
  1 26  1  0
  1 27  1  0
  1 28  1  0
 10  4  1  0
 20 15  1  0
M  END
>  <cnnaffinity>  (1) 
-5.62461

>  <filename>  (1) 
C[C@@H](Nc1nccc(I)c1Cl)c1cccnc1

$$$$
