
     RDKit          3D

 37 38  0  0  0  0  0  0  0  0999 V2000
    4.9974    1.5904   16.7556 H   0  0  0  0  0  0  0  0  0  0  0  0
    5.4347    1.1887   17.6695 C   0  0  0  0  0  0  0  0  0  0  0  0
    6.5417    0.4521   17.5262 N   0  0  0  0  0  0  0  0  0  0  0  0
    7.1081   -0.0406   18.6400 C   0  0  0  0  0  0  0  0  0  0  0  0
    8.0108   -0.6218   18.4632 H   0  0  0  0  0  0  0  0  0  0  0  0
    6.6216    0.1605   19.9429 C   0  0  0  0  0  0  0  0  0  0  0  0
    7.2969   -0.4235   21.1913 C   0  0  1  0  0  0  0  0  0  0  0  0
    6.5274   -1.5858   21.6842 N   0  0  0  0  0  0  0  0  0  0  0  0
    6.5076   -2.2731   20.9375 H   0  0  0  0  0  0  0  0  0  0  0  0
    5.5554   -1.3138   21.8417 H   0  0  0  0  0  0  0  0  0  0  0  0
    8.7081   -0.9668   20.9363 C   0  0  0  0  0  0  0  0  0  0  0  0
    9.0912   -1.3948   21.8672 H   0  0  0  0  0  0  0  0  0  0  0  0
    8.6791   -1.7795   20.2059 H   0  0  0  0  0  0  0  0  0  0  0  0
    9.3968   -0.1876   20.5926 H   0  0  0  0  0  0  0  0  0  0  0  0
    7.3778    0.6360   22.3537 C   0  0  0  0  0  0  0  0  0  0  0  0
    6.3646    0.9526   22.6468 H   0  0  0  0  0  0  0  0  0  0  0  0
    7.8025    0.1156   23.2196 H   0  0  0  0  0  0  0  0  0  0  0  0
    8.2211    1.8074   22.0415 N   0  0  0  0  0  0  0  0  0  0  0  0
    7.8199    2.5504   21.4779 H   0  0  0  0  0  0  0  0  0  0  0  0
    8.7145    2.7527   23.3079 S   0  0  0  0  0  0  0  0  0  0  0  0
    9.1185    3.9428   22.5929 O   0  0  0  0  0  0  0  0  0  0  0  0
    7.6756    2.7944   24.3215 O   0  0  0  0  0  0  0  0  0  0  0  0
   10.0845    1.8354   23.9638 C   0  0  0  0  0  0  0  0  0  0  0  0
    9.9837    1.3210   25.2677 C   0  0  0  0  0  0  0  0  0  0  0  0
    9.1004    1.5102   25.8796 H   0  0  0  0  0  0  0  0  0  0  0  0
   11.0273    0.5540   25.7829 C   0  0  0  0  0  0  0  0  0  0  0  0
   10.9306    0.1478   26.7882 H   0  0  0  0  0  0  0  0  0  0  0  0
   12.1887    0.3333   25.0316 C   0  0  0  0  0  0  0  0  0  0  0  0
   13.0129   -0.2419   25.4517 H   0  0  0  0  0  0  0  0  0  0  0  0
   12.2890    0.8763   23.7458 C   0  0  0  0  0  0  0  0  0  0  0  0
   13.1876    0.7320   23.1515 H   0  0  0  0  0  0  0  0  0  0  0  0
   11.2428    1.6260   23.1976 C   0  0  0  0  0  0  0  0  0  0  0  0
   11.3615    2.0345   22.1929 H   0  0  0  0  0  0  0  0  0  0  0  0
    5.4355    0.9069   20.0563 C   0  0  0  0  0  0  0  0  0  0  0  0
    4.9650    1.0654   21.0310 H   0  0  0  0  0  0  0  0  0  0  0  0
    4.8438    1.4410   18.9114 C   0  0  0  0  0  0  0  0  0  0  0  0
    3.9550    2.0610   18.9715 H   0  0  0  0  0  0  0  0  0  0  0  0
  1  2  1  0
  2  3  2  0
  3  4  1  0
  4  5  1  0
  4  6  2  0
  6  7  1  0
  7  8  1  1
  8  9  1  0
  8 10  1  0
  7 11  1  0
 11 12  1  0
 11 13  1  0
 11 14  1  0
  7 15  1  0
 15 16  1  0
 15 17  1  0
 15 18  1  0
 18 19  1  0
 18 20  1  0
 20 21  2  0
 20 22  2  0
 20 23  1  0
 23 24  2  0
 24 25  1  0
 24 26  1  0
 26 27  1  0
 26 28  2  0
 28 29  1  0
 28 30  1  0
 30 31  1  0
 30 32  2  0
 32 33  1  0
  6 34  1  0
 34 35  1  0
 34 36  2  0
 36 37  1  0
 36  2  1  0
 32 23  1  0
M  END
>  <cnnaffinity>  (1) 
-4.74244

>  <filename>  (1) 
C[C@@](N)(CNS(=O)(=O)c1ccccc1)c1cccnc1

$$$$
