
     RDKit          3D

 25 26  0  0  0  0  0  0  0  0999 V2000
    4.9904    1.7933   16.9407 H   0  0  0  0  0  0  0  0  0  0  0  0
    5.4407    1.2870   17.7930 C   0  0  0  0  0  0  0  0  0  0  0  0
    6.6014    0.6526   17.5673 N   0  0  0  0  0  0  0  0  0  0  0  0
    7.1839    0.0528   18.6150 C   0  0  0  0  0  0  0  0  0  0  0  0
    8.1121   -0.4801   18.3988 H   0  0  0  0  0  0  0  0  0  0  0  0
    6.6805    0.0697   19.9257 C   0  0  0  0  0  0  0  0  0  0  0  0
    7.4422   -0.5972   21.0568 C   0  0  2  0  0  0  0  0  0  0  0  0
    8.2643   -1.1735   20.6262 H   0  0  0  0  0  0  0  0  0  0  0  0
    6.4229   -1.8327   21.9595 S   0  0  0  0  0  0  0  0  0  0  0  0
    6.1030   -3.0000   20.6823 C   0  0  0  0  0  0  0  0  0  0  0  0
    5.4013   -2.8005   19.4708 C   0  0  0  0  0  0  0  0  0  0  0  0
    4.8777   -1.9138   19.1487 H   0  0  0  0  0  0  0  0  0  0  0  0
    5.3553   -3.9083   18.7518 N   0  0  0  0  0  0  0  0  0  0  0  0
    6.0252   -4.8081   19.4739 N   0  0  0  0  0  0  0  0  0  0  0  0
    6.0826   -5.7593   19.1359 H   0  0  0  0  0  0  0  0  0  0  0  0
    6.4956   -4.3223   20.6471 C   0  0  0  0  0  0  0  0  0  0  0  0
    7.0375   -4.9252   21.3673 H   0  0  0  0  0  0  0  0  0  0  0  0
    7.9877    0.3690   22.1084 C   0  0  0  0  0  0  0  0  0  0  0  0
    8.5457   -0.1925   22.8656 H   0  0  0  0  0  0  0  0  0  0  0  0
    7.1748    0.9100   22.6064 H   0  0  0  0  0  0  0  0  0  0  0  0
    8.6587    1.1023   21.6479 H   0  0  0  0  0  0  0  0  0  0  0  0
    5.4388    0.6880   20.1231 C   0  0  0  0  0  0  0  0  0  0  0  0
    4.9656    0.6549   21.1056 H   0  0  0  0  0  0  0  0  0  0  0  0
    4.8123    1.3100   19.0417 C   0  0  0  0  0  0  0  0  0  0  0  0
    3.8644    1.8188   19.1647 H   0  0  0  0  0  0  0  0  0  0  0  0
  1  2  1  0
  2  3  2  0
  3  4  1  0
  4  5  1  0
  4  6  2  0
  6  7  1  0
  7  8  1  6
  7  9  1  0
  9 10  1  0
 10 11  1  0
 11 12  1  0
 11 13  2  0
 13 14  1  0
 14 15  1  0
 14 16  1  0
 16 17  1  0
  7 18  1  0
 18 19  1  0
 18 20  1  0
 18 21  1  0
  6 22  1  0
 22 23  1  0
 22 24  2  0
 24 25  1  0
 24  2  1  0
 16 10  2  0
M  END
>  <cnnaffinity>  (1) 
-4.47219

>  <filename>  (1) 
C[C@@H](Sc1cn[nH]c1)c1cccnc1

$$$$
