
     RDKit          3D

 32 32  0  0  0  0  0  0  0  0999 V2000
    4.9991    1.7653   16.9441 H   0  0  0  0  0  0  0  0  0  0  0  0
    5.4392    1.2709   17.8058 C   0  0  0  0  0  0  0  0  0  0  0  0
    6.5705    0.5902   17.5828 N   0  0  0  0  0  0  0  0  0  0  0  0
    7.1357   -0.0321   18.6319 C   0  0  0  0  0  0  0  0  0  0  0  0
    8.0498   -0.5839   18.4048 H   0  0  0  0  0  0  0  0  0  0  0  0
    6.6249    0.0164   19.9485 C   0  0  0  0  0  0  0  0  0  0  0  0
    7.2829   -0.5959   21.1891 C   0  0  2  0  0  0  0  0  0  0  0  0
    6.4896   -0.8198   21.9157 H   0  0  0  0  0  0  0  0  0  0  0  0
    8.1789    0.4335   21.9263 C   0  0  0  0  0  0  0  0  0  0  0  0
    7.9904    0.7581   23.0745 O   0  0  0  0  0  0  0  0  0  0  0  0
    9.3394    1.0129   21.1618 C   0  0  0  0  0  0  0  0  0  0  0  0
    9.2952    2.1014   21.2377 H   0  0  0  0  0  0  0  0  0  0  0  0
    9.3166    0.7075   20.1134 H   0  0  0  0  0  0  0  0  0  0  0  0
   10.6064    0.4336   21.7619 C   0  0  0  0  0  0  0  0  0  0  0  0
   10.6244   -0.7251   22.1459 O   0  0  0  0  0  0  0  0  0  0  0  0
   11.7056    1.2468   21.7990 N   0  0  0  0  0  0  0  0  0  0  0  0
   12.9102    0.7357   22.4575 C   0  0  0  0  0  0  0  0  0  0  0  0
   13.7080    1.4785   22.3915 H   0  0  0  0  0  0  0  0  0  0  0  0
   13.2741   -0.1861   21.9941 H   0  0  0  0  0  0  0  0  0  0  0  0
   12.7381    0.5015   23.5131 H   0  0  0  0  0  0  0  0  0  0  0  0
   11.6842    2.6264   21.3133 C   0  0  0  0  0  0  0  0  0  0  0  0
   11.0821    3.2896   21.9535 H   0  0  0  0  0  0  0  0  0  0  0  0
   11.3018    2.6882   20.2912 H   0  0  0  0  0  0  0  0  0  0  0  0
   12.7036    3.0120   21.3036 H   0  0  0  0  0  0  0  0  0  0  0  0
    8.0691   -1.8765   20.8964 C   0  0  0  0  0  0  0  0  0  0  0  0
    8.5928   -2.2405   21.7861 H   0  0  0  0  0  0  0  0  0  0  0  0
    7.3844   -2.6476   20.5342 H   0  0  0  0  0  0  0  0  0  0  0  0
    8.8344   -1.6958   20.1351 H   0  0  0  0  0  0  0  0  0  0  0  0
    5.4448    0.7367   20.1440 C   0  0  0  0  0  0  0  0  0  0  0  0
    5.0339    0.7982   21.1535 H   0  0  0  0  0  0  0  0  0  0  0  0
    4.8269    1.3615   19.0615 C   0  0  0  0  0  0  0  0  0  0  0  0
    3.8971    1.9029   19.1802 H   0  0  0  0  0  0  0  0  0  0  0  0
  1  2  1  0
  2  3  2  0
  3  4  1  0
  4  5  1  0
  4  6  2  0
  6  7  1  0
  7  8  1  1
  7  9  1  0
  9 10  2  0
  9 11  1  0
 11 12  1  0
 11 13  1  0
 11 14  1  0
 14 15  2  0
 14 16  1  0
 16 17  1  0
 17 18  1  0
 17 19  1  0
 17 20  1  0
 16 21  1  0
 21 22  1  0
 21 23  1  0
 21 24  1  0
  7 25  1  0
 25 26  1  0
 25 27  1  0
 25 28  1  0
  6 29  1  0
 29 30  1  0
 29 31  2  0
 31 32  1  0
 31  2  1  0
M  END
>  <cnnaffinity>  (1) 
-4.10849

>  <filename>  (1) 
C[C@@H](C(=O)CC(=O)N(C)C)c1cccnc1

$$$$
