
     RDKit          3D

 31 32  0  0  0  0  0  0  0  0999 V2000
    7.4771   -2.0578   20.8972 C   0  0  0  0  0  0  0  0  0  0  0  0
    7.3086   -0.5596   21.1718 C   0  0  1  0  0  0  0  0  0  0  0  0
    8.6035    0.0581   21.3693 N   0  0  0  0  0  0  0  0  0  0  0  0
    9.4384   -0.2561   22.3952 C   0  0  0  0  0  0  0  0  0  0  0  0
    8.9912   -0.9699   23.5156 C   0  0  0  0  0  0  0  0  0  0  0  0
    9.8549   -1.0625   24.5925 C   0  0  0  0  0  0  0  0  0  0  0  0
   11.0995   -0.5815   24.6032 N   0  0  0  0  0  0  0  0  0  0  0  0
   11.5563   -0.0094   23.4755 C   0  0  0  0  0  0  0  0  0  0  0  0
   13.0232    0.3868   23.5385 C   0  0  0  0  0  0  0  0  0  0  0  0
   13.7299   -0.2232   22.5393 F   0  0  0  0  0  0  0  0  0  0  0  0
   13.1849    1.7310   23.3711 F   0  0  0  0  0  0  0  0  0  0  0  0
   13.4376    0.0963   24.5090 H   0  0  0  0  0  0  0  0  0  0  0  0
   10.7664    0.1850   22.3489 C   0  0  0  0  0  0  0  0  0  0  0  0
   11.1840    0.6067   21.4437 H   0  0  0  0  0  0  0  0  0  0  0  0
    9.5295   -1.5644   25.4994 H   0  0  0  0  0  0  0  0  0  0  0  0
    8.0287   -1.4601   23.5436 H   0  0  0  0  0  0  0  0  0  0  0  0
    9.0417    0.4647   20.5651 H   0  0  0  0  0  0  0  0  0  0  0  0
    6.6050    0.1342   20.0380 C   0  0  0  0  0  0  0  0  0  0  0  0
    5.3663    0.7655   20.1802 C   0  0  0  0  0  0  0  0  0  0  0  0
    4.7843    1.3550   19.0573 C   0  0  0  0  0  0  0  0  0  0  0  0
    5.4630    1.2938   17.8336 C   0  0  0  0  0  0  0  0  0  0  0  0
    6.6504    0.6868   17.6816 N   0  0  0  0  0  0  0  0  0  0  0  0
    7.1951    0.1304   18.7699 C   0  0  0  0  0  0  0  0  0  0  0  0
    8.1475   -0.3791   18.6232 H   0  0  0  0  0  0  0  0  0  0  0  0
    5.0311    1.7496   16.9438 H   0  0  0  0  0  0  0  0  0  0  0  0
    3.8282    1.8631   19.1195 H   0  0  0  0  0  0  0  0  0  0  0  0
    4.8743    0.7998   21.1554 H   0  0  0  0  0  0  0  0  0  0  0  0
    6.7136   -0.4350   22.0849 H   0  0  0  0  0  0  0  0  0  0  0  0
    6.5738   -2.4904   20.4586 H   0  0  0  0  0  0  0  0  0  0  0  0
    7.7118   -2.6180   21.8046 H   0  0  0  0  0  0  0  0  0  0  0  0
    8.3299   -2.1752   20.2278 H   0  0  0  0  0  0  0  0  0  0  0  0
  1  2  1  0
  2  3  1  0
  3  4  1  0
  4  5  2  0
  5  6  1  0
  6  7  2  0
  7  8  1  0
  8  9  1  0
  9 10  1  0
  9 11  1  0
  9 12  1  0
  8 13  2  0
 13 14  1  0
  6 15  1  0
  5 16  1  0
  3 17  1  0
  2 18  1  0
 18 19  2  0
 19 20  1  0
 20 21  2  0
 21 22  1  0
 22 23  2  0
 23 24  1  0
 21 25  1  0
 20 26  1  0
 19 27  1  0
  2 28  1  1
  1 29  1  0
  1 30  1  0
  1 31  1  0
 13  4  1  0
 23 18  1  0
M  END
>  <cnnaffinity>  (1) 
-4.91293

>  <filename>  (1) 
C[C@@H](Nc1ccnc(C(F)F)c1)c1cccnc1

$$$$
