
     RDKit          3D

 28 29  0  0  0  0  0  0  0  0999 V2000
    6.7122   -3.6440   25.9476 H   0  0  0  0  0  0  0  0  0  0  0  0
    6.8815   -2.6906   25.8634 O   0  0  0  0  0  0  0  0  0  0  0  0
    7.9076   -2.7372   25.0058 C   0  0  0  0  0  0  0  0  0  0  0  0
    8.3379   -3.8166   24.6553 O   0  0  0  0  0  0  0  0  0  0  0  0
    8.4163   -1.3604   24.5069 C   0  0  2  0  0  0  0  0  0  0  0  0
    7.8616   -0.5773   25.0278 H   0  0  0  0  0  0  0  0  0  0  0  0
    8.0727   -1.2393   23.0871 N   0  0  0  0  0  0  0  0  0  0  0  0
    7.2564   -0.2933   22.4634 C   0  0  0  0  0  0  0  0  0  0  0  0
    6.5873    0.5381   23.0619 O   0  0  0  0  0  0  0  0  0  0  0  0
    7.4435   -0.5648   21.0031 C   0  0  0  0  0  0  0  0  0  0  0  0
    6.6987    0.0730   19.8854 C   0  0  0  0  0  0  0  0  0  0  0  0
    7.1621    0.0728   18.5453 C   0  0  0  0  0  0  0  0  0  0  0  0
    8.0935   -0.4262   18.2873 H   0  0  0  0  0  0  0  0  0  0  0  0
    6.5442    0.6664   17.5171 N   0  0  0  0  0  0  0  0  0  0  0  0
    5.3905    1.3056   17.7765 C   0  0  0  0  0  0  0  0  0  0  0  0
    4.9159    1.8118   16.9344 H   0  0  0  0  0  0  0  0  0  0  0  0
    4.8075    1.3345   19.0467 C   0  0  0  0  0  0  0  0  0  0  0  0
    3.8605    1.8487   19.1838 H   0  0  0  0  0  0  0  0  0  0  0  0
    5.4705    0.7234   20.1136 C   0  0  0  0  0  0  0  0  0  0  0  0
    5.0603    0.7516   21.1231 H   0  0  0  0  0  0  0  0  0  0  0  0
    8.3951   -1.5335   20.9315 C   0  0  0  0  0  0  0  0  0  0  0  0
    8.8821   -1.9248   20.0534 H   0  0  0  0  0  0  0  0  0  0  0  0
    8.8417   -1.9483   22.1698 N   0  0  0  0  0  0  0  0  0  0  0  0
    8.9376   -2.9412   22.4007 H   0  0  0  0  0  0  0  0  0  0  0  0
    9.9305   -1.1797   24.7131 C   0  0  0  0  0  0  0  0  0  0  0  0
   10.1562   -1.0236   25.7710 H   0  0  0  0  0  0  0  0  0  0  0  0
   10.4803   -2.0551   24.3477 H   0  0  0  0  0  0  0  0  0  0  0  0
   10.2810   -0.3083   24.1501 H   0  0  0  0  0  0  0  0  0  0  0  0
  1  2  1  0
  2  3  1  0
  3  4  2  0
  3  5  1  0
  5  6  1  1
  5  7  1  0
  7  8  1  0
  8  9  2  0
  8 10  1  0
 10 11  1  0
 11 12  2  0
 12 13  1  0
 12 14  1  0
 14 15  2  0
 15 16  1  0
 15 17  1  0
 17 18  1  0
 17 19  2  0
 19 20  1  0
 10 21  2  0
 21 22  1  0
 21 23  1  0
 23 24  1  0
  5 25  1  0
 25 26  1  0
 25 27  1  0
 25 28  1  0
 23  7  1  0
 19 11  1  0
M  END
>  <cnnaffinity>  (1) 
-4.48815

>  <filename>  (1) 
C[C@H](C(=O)O)n1[nH]cc(-c2cccnc2)c1=O

$$$$
