
     RDKit          3D

 38 40  0  0  0  0  0  0  0  0999 V2000
    5.4292    1.2442   24.3222 C   0  0  0  0  0  0  0  0  0  0  0  0
    6.9052    1.5101   24.0039 C   0  0  1  0  0  0  0  0  0  0  0  0
    7.2315    1.0185   22.6628 N   0  0  0  0  0  0  0  0  0  0  0  0
    7.4349   -0.2618   22.3369 C   0  0  0  0  0  0  0  0  0  0  0  0
    7.7487   -1.5080   23.3927 S   0  0  0  0  0  0  0  0  0  0  0  0
    7.4749   -0.5157   20.9850 N   0  0  0  0  0  0  0  0  0  0  0  0
    6.7053    0.0745   19.9298 C   0  0  0  0  0  0  0  0  0  0  0  0
    5.4587    0.6793   20.1528 C   0  0  0  0  0  0  0  0  0  0  0  0
    4.7987    1.3109   19.0874 C   0  0  0  0  0  0  0  0  0  0  0  0
    5.3891    1.2951   17.8209 C   0  0  0  0  0  0  0  0  0  0  0  0
    6.5489    0.6628   17.5707 N   0  0  0  0  0  0  0  0  0  0  0  0
    7.1757    0.0733   18.5961 C   0  0  0  0  0  0  0  0  0  0  0  0
    8.1140   -0.4285   18.3658 H   0  0  0  0  0  0  0  0  0  0  0  0
    4.9240    1.8028   16.9747 H   0  0  0  0  0  0  0  0  0  0  0  0
    3.8603    1.8417   19.2336 H   0  0  0  0  0  0  0  0  0  0  0  0
    4.9994    0.6381   21.1387 H   0  0  0  0  0  0  0  0  0  0  0  0
    7.7792   -1.4760   20.8867 H   0  0  0  0  0  0  0  0  0  0  0  0
    7.2248    1.6456   21.8732 H   0  0  0  0  0  0  0  0  0  0  0  0
    7.3265    2.9663   24.1389 C   0  0  0  0  0  0  0  0  0  0  0  0
    6.4106    4.0069   24.1071 C   0  0  0  0  0  0  0  0  0  0  0  0
    6.8005    5.3603   24.2814 C   0  0  0  0  0  0  0  0  0  0  0  0
    8.1182    5.6889   24.4742 C   0  0  0  0  0  0  0  0  0  0  0  0
    9.1094    4.6608   24.4630 C   0  0  0  0  0  0  0  0  0  0  0  0
   10.5068    4.9462   24.5844 C   0  0  0  0  0  0  0  0  0  0  0  0
   11.4643    4.0455   24.5224 N   0  0  0  0  0  0  0  0  0  0  0  0
   11.0866    2.7410   24.3957 C   0  0  0  0  0  0  0  0  0  0  0  0
    9.7812    2.3294   24.2815 C   0  0  0  0  0  0  0  0  0  0  0  0
    8.7248    3.2933   24.2907 C   0  0  0  0  0  0  0  0  0  0  0  0
    9.5672    1.2695   24.1737 H   0  0  0  0  0  0  0  0  0  0  0  0
   11.9005    2.0172   24.4221 H   0  0  0  0  0  0  0  0  0  0  0  0
   10.8178    5.9794   24.7534 H   0  0  0  0  0  0  0  0  0  0  0  0
    8.4279    6.7221   24.6071 H   0  0  0  0  0  0  0  0  0  0  0  0
    6.0412    6.1368   24.2586 H   0  0  0  0  0  0  0  0  0  0  0  0
    5.3537    3.7978   23.9761 H   0  0  0  0  0  0  0  0  0  0  0  0
    7.4982    0.9138   24.7104 H   0  0  0  0  0  0  0  0  0  0  0  0
    4.7739    1.6633   23.5485 H   0  0  0  0  0  0  0  0  0  0  0  0
    5.2501    0.1686   24.3763 H   0  0  0  0  0  0  0  0  0  0  0  0
    5.1662    1.6855   25.2893 H   0  0  0  0  0  0  0  0  0  0  0  0
  1  2  1  0
  2  3  1  0
  3  4  1  0
  4  5  2  0
  4  6  1  0
  6  7  1  0
  7  8  2  0
  8  9  1  0
  9 10  2  0
 10 11  1  0
 11 12  2  0
 12 13  1  0
 10 14  1  0
  9 15  1  0
  8 16  1  0
  6 17  1  0
  3 18  1  0
  2 19  1  0
 19 20  2  0
 20 21  1  0
 21 22  2  0
 22 23  1  0
 23 24  2  0
 24 25  1  0
 25 26  2  0
 26 27  1  0
 27 28  2  0
 27 29  1  0
 26 30  1  0
 24 31  1  0
 22 32  1  0
 21 33  1  0
 20 34  1  0
  2 35  1  1
  1 36  1  0
  1 37  1  0
  1 38  1  0
 12  7  1  0
 28 19  1  0
 28 23  1  0
M  END
>  <cnnaffinity>  (1) 
-5.28876

>  <filename>  (1) 
C[C@@H](NC(=S)Nc1cccnc1)c1cccc2cnccc12

$$$$
