
     RDKit          3D

 36 38  0  0  0  0  0  0  0  0999 V2000
    5.1327    1.7867   16.9442 H   0  0  0  0  0  0  0  0  0  0  0  0
    5.5311    1.2641   17.8132 C   0  0  0  0  0  0  0  0  0  0  0  0
    6.6553    0.5540   17.6138 N   0  0  0  0  0  0  0  0  0  0  0  0
    7.1652   -0.1108   18.6573 C   0  0  0  0  0  0  0  0  0  0  0  0
    8.0834   -0.6740   18.5005 H   0  0  0  0  0  0  0  0  0  0  0  0
    6.5808   -0.0995   19.9362 C   0  0  0  0  0  0  0  0  0  0  0  0
    7.1641   -0.9115   20.9022 O   0  0  0  0  0  0  0  0  0  0  0  0
    7.2695   -0.5351   22.2180 C   0  0  0  0  0  0  0  0  0  0  0  0
    6.9341    0.5344   22.6497 O   0  0  0  0  0  0  0  0  0  0  0  0
    7.8356   -1.6644   23.0866 C   0  0  1  0  0  0  0  0  0  0  0  0
    8.1817   -1.1140   23.9696 H   0  0  0  0  0  0  0  0  0  0  0  0
    6.7018   -2.6067   23.5056 C   0  0  0  0  0  0  0  0  0  0  0  0
    5.7383   -3.0044   22.6054 C   0  0  0  0  0  0  0  0  0  0  0  0
    5.8414   -2.7488   21.5563 H   0  0  0  0  0  0  0  0  0  0  0  0
    4.5959   -3.7369   23.0146 C   0  0  0  0  0  0  0  0  0  0  0  0
    3.8344   -3.9690   22.2771 H   0  0  0  0  0  0  0  0  0  0  0  0
    4.4374   -4.1128   24.3279 C   0  0  0  0  0  0  0  0  0  0  0  0
    3.5591   -4.6613   24.6597 H   0  0  0  0  0  0  0  0  0  0  0  0
    5.4612   -3.8324   25.2850 C   0  0  0  0  0  0  0  0  0  0  0  0
    5.3619   -4.2506   26.6531 C   0  0  0  0  0  0  0  0  0  0  0  0
    4.4339   -4.7042   27.0058 H   0  0  0  0  0  0  0  0  0  0  0  0
    6.4137   -4.0635   27.5178 C   0  0  0  0  0  0  0  0  0  0  0  0
    6.3318   -4.3755   28.5587 H   0  0  0  0  0  0  0  0  0  0  0  0
    7.6113   -3.4472   27.0702 C   0  0  0  0  0  0  0  0  0  0  0  0
    8.4509   -3.3564   27.7528 H   0  0  0  0  0  0  0  0  0  0  0  0
    7.7111   -2.9662   25.7843 C   0  0  0  0  0  0  0  0  0  0  0  0
    8.6255   -2.4712   25.4617 H   0  0  0  0  0  0  0  0  0  0  0  0
    6.6378   -3.1297   24.8518 C   0  0  0  0  0  0  0  0  0  0  0  0
    9.0316   -2.4308   22.4814 C   0  0  0  0  0  0  0  0  0  0  0  0
    9.4966   -3.0687   23.2423 H   0  0  0  0  0  0  0  0  0  0  0  0
    9.8043   -1.7532   22.1089 H   0  0  0  0  0  0  0  0  0  0  0  0
    8.7158   -3.0852   21.6640 H   0  0  0  0  0  0  0  0  0  0  0  0
    5.4198    0.6433   20.1515 C   0  0  0  0  0  0  0  0  0  0  0  0
    4.9693    0.6777   21.1412 H   0  0  0  0  0  0  0  0  0  0  0  0
    4.8898    1.3352   19.0536 C   0  0  0  0  0  0  0  0  0  0  0  0
    3.9992    1.9447   19.1530 H   0  0  0  0  0  0  0  0  0  0  0  0
  1  2  1  0
  2  3  2  0
  3  4  1  0
  4  5  1  0
  4  6  2  0
  6  7  1  0
  7  8  1  0
  8  9  2  0
  8 10  1  0
 10 11  1  1
 10 12  1  0
 12 13  2  0
 13 14  1  0
 13 15  1  0
 15 16  1  0
 15 17  2  0
 17 18  1  0
 17 19  1  0
 19 20  2  0
 20 21  1  0
 20 22  1  0
 22 23  1  0
 22 24  2  0
 24 25  1  0
 24 26  1  0
 26 27  1  0
 26 28  2  0
 10 29  1  0
 29 30  1  0
 29 31  1  0
 29 32  1  0
  6 33  1  0
 33 34  1  0
 33 35  2  0
 35 36  1  0
 35  2  1  0
 28 12  1  0
 28 19  1  0
M  END
>  <cnnaffinity>  (1) 
-4.83958

>  <filename>  (1) 
C[C@@H](C(=O)Oc1cccnc1)c1cccc2ccccc12

$$$$
