
     RDKit          3D

 36 37  0  0  0  0  0  0  0  0999 V2000
    5.0492    1.7505   16.9111 H   0  0  0  0  0  0  0  0  0  0  0  0
    5.4645    1.3076   17.8147 C   0  0  0  0  0  0  0  0  0  0  0  0
    6.6605    0.7212   17.6783 N   0  0  0  0  0  0  0  0  0  0  0  0
    7.2126    0.1864   18.7757 C   0  0  0  0  0  0  0  0  0  0  0  0
    8.1849   -0.2736   18.6213 H   0  0  0  0  0  0  0  0  0  0  0  0
    6.6143    0.1767   20.0430 C   0  0  0  0  0  0  0  0  0  0  0  0
    7.2730   -0.5786   21.1971 C   0  0  2  0  0  0  0  0  0  0  0  0
    6.9032   -0.1151   22.1246 H   0  0  0  0  0  0  0  0  0  0  0  0
    8.7291   -0.4502   21.2340 N   0  0  0  0  0  0  0  0  0  0  0  0
    9.3312    0.6319   21.8913 C   0  0  0  0  0  0  0  0  0  0  0  0
   10.5330    0.4490   22.6090 C   0  0  0  0  0  0  0  0  0  0  0  0
   10.9358   -0.5517   22.7099 H   0  0  0  0  0  0  0  0  0  0  0  0
   11.1821    1.5296   23.1943 C   0  0  0  0  0  0  0  0  0  0  0  0
   12.1415    1.3848   23.6843 H   0  0  0  0  0  0  0  0  0  0  0  0
   10.6428    2.8171   23.1116 C   0  0  0  0  0  0  0  0  0  0  0  0
   11.1603    3.6609   23.5415 H   0  0  0  0  0  0  0  0  0  0  0  0
    9.4323    2.9821   22.4338 C   0  0  0  0  0  0  0  0  0  0  0  0
    8.7926    4.2083   22.2878 O   0  0  0  0  0  0  0  0  0  0  0  0
    9.2525    5.3378   22.8645 C   0  0  0  0  0  0  0  0  0  0  0  0
    8.4761    6.3289   22.4507 F   0  0  0  0  0  0  0  0  0  0  0  0
   10.5249    5.6410   22.5432 F   0  0  0  0  0  0  0  0  0  0  0  0
    9.2084    5.2857   24.2066 F   0  0  0  0  0  0  0  0  0  0  0  0
    8.7757    1.9170   21.8250 C   0  0  0  0  0  0  0  0  0  0  0  0
    7.8559    2.0688   21.2729 H   0  0  0  0  0  0  0  0  0  0  0  0
    9.5727   -1.4700   20.6328 C   0  0  0  0  0  0  0  0  0  0  0  0
   10.6094   -1.1245   20.6233 H   0  0  0  0  0  0  0  0  0  0  0  0
    9.2721   -1.6733   19.5972 H   0  0  0  0  0  0  0  0  0  0  0  0
    9.5482   -2.4326   21.1660 H   0  0  0  0  0  0  0  0  0  0  0  0
    6.8515   -2.0538   21.1895 C   0  0  0  0  0  0  0  0  0  0  0  0
    6.9973   -2.4943   20.1987 H   0  0  0  0  0  0  0  0  0  0  0  0
    5.7941   -2.1560   21.4375 H   0  0  0  0  0  0  0  0  0  0  0  0
    7.4440   -2.6174   21.9159 H   0  0  0  0  0  0  0  0  0  0  0  0
    5.3540    0.7885   20.1626 C   0  0  0  0  0  0  0  0  0  0  0  0
    4.8309    0.8213   21.1210 H   0  0  0  0  0  0  0  0  0  0  0  0
    4.7715    1.3630   19.0284 C   0  0  0  0  0  0  0  0  0  0  0  0
    3.8118    1.8673   19.0682 H   0  0  0  0  0  0  0  0  0  0  0  0
  1  2  1  0
  2  3  2  0
  3  4  1  0
  4  5  1  0
  4  6  2  0
  6  7  1  0
  7  8  1  1
  7  9  1  0
  9 10  1  0
 10 11  2  0
 11 12  1  0
 11 13  1  0
 13 14  1  0
 13 15  2  0
 15 16  1  0
 15 17  1  0
 17 18  1  0
 18 19  1  0
 19 20  1  0
 19 21  1  0
 19 22  1  0
 17 23  2  0
 23 24  1  0
  9 25  1  0
 25 26  1  0
 25 27  1  0
 25 28  1  0
  7 29  1  0
 29 30  1  0
 29 31  1  0
 29 32  1  0
  6 33  1  0
 33 34  1  0
 33 35  2  0
 35 36  1  0
 35  2  1  0
 23 10  1  0
M  END
>  <cnnaffinity>  (1) 
-4.69071

>  <filename>  (1) 
C[C@H](c1cccnc1)N(C)c1cccc(OC(F)(F)F)c1

$$$$
