
     RDKit          3D

 38 38  0  0  0  0  0  0  0  0999 V2000
   13.8223    4.3237   20.5603 H   0  0  0  0  0  0  0  0  0  0  0  0
   13.9844    4.4260   21.5146 O   0  0  0  0  0  0  0  0  0  0  0  0
   12.9266    3.7772   22.1534 N   0  0  0  0  0  0  0  0  0  0  0  0
   13.2818    3.1043   22.8197 H   0  0  0  0  0  0  0  0  0  0  0  0
   11.8359    4.5136   22.6241 C   0  0  0  0  0  0  0  0  0  0  0  0
   11.5374    5.6220   22.2487 O   0  0  0  0  0  0  0  0  0  0  0  0
   10.9871    3.6901   23.5724 C   0  0  0  0  0  0  0  0  0  0  0  0
   10.5562    4.4048   24.2775 H   0  0  0  0  0  0  0  0  0  0  0  0
   11.6121    2.9943   24.1436 H   0  0  0  0  0  0  0  0  0  0  0  0
    9.8647    2.9396   22.8278 C   0  0  0  0  0  0  0  0  0  0  0  0
    9.1328    2.5891   23.5618 H   0  0  0  0  0  0  0  0  0  0  0  0
    9.3422    3.6609   22.1841 H   0  0  0  0  0  0  0  0  0  0  0  0
   10.3541    1.7596   21.9832 C   0  0  0  0  0  0  0  0  0  0  0  0
   11.1384    2.0985   21.2989 H   0  0  0  0  0  0  0  0  0  0  0  0
   10.8296    1.0164   22.6399 H   0  0  0  0  0  0  0  0  0  0  0  0
    9.2755    1.0635   21.1439 C   0  0  0  0  0  0  0  0  0  0  0  0
    8.7303    1.8045   20.5448 H   0  0  0  0  0  0  0  0  0  0  0  0
    9.7661    0.4004   20.4193 H   0  0  0  0  0  0  0  0  0  0  0  0
    8.2375    0.2446   21.9060 C   0  0  1  0  0  0  0  0  0  0  0  0
    8.7432   -0.3749   22.6634 H   0  0  0  0  0  0  0  0  0  0  0  0
    7.3573    1.0815   22.6501 O   0  0  0  0  0  0  0  0  0  0  0  0
    6.9979    1.7207   22.0168 H   0  0  0  0  0  0  0  0  0  0  0  0
    7.4693   -0.7246   20.9557 C   0  0  2  0  0  0  0  0  0  0  0  0
    8.2475   -1.3159   20.4520 H   0  0  0  0  0  0  0  0  0  0  0  0
    6.6776   -0.0157   19.8548 C   0  0  0  0  0  0  0  0  0  0  0  0
    7.1659    0.0535   18.5349 C   0  0  0  0  0  0  0  0  0  0  0  0
    8.1050   -0.4368   18.2726 H   0  0  0  0  0  0  0  0  0  0  0  0
    6.5520    0.6876   17.5264 N   0  0  0  0  0  0  0  0  0  0  0  0
    5.3975    1.3096   17.8027 C   0  0  0  0  0  0  0  0  0  0  0  0
    4.9223    1.8364   16.9780 H   0  0  0  0  0  0  0  0  0  0  0  0
    4.8067    1.3057   19.0684 C   0  0  0  0  0  0  0  0  0  0  0  0
    3.8756    1.8398   19.2314 H   0  0  0  0  0  0  0  0  0  0  0  0
    5.4591    0.6384   20.1089 C   0  0  0  0  0  0  0  0  0  0  0  0
    5.0294    0.6395   21.1124 H   0  0  0  0  0  0  0  0  0  0  0  0
    6.6034   -1.6753   21.7938 C   0  0  0  0  0  0  0  0  0  0  0  0
    7.2177   -2.3413   22.4132 H   0  0  0  0  0  0  0  0  0  0  0  0
    5.9485   -2.2972   21.1770 H   0  0  0  0  0  0  0  0  0  0  0  0
    5.9947   -1.0833   22.4773 H   0  0  0  0  0  0  0  0  0  0  0  0
  1  2  1  0
  2  3  1  0
  3  4  1  0
  3  5  1  0
  5  6  2  0
  5  7  1  0
  7  8  1  0
  7  9  1  0
  7 10  1  0
 10 11  1  0
 10 12  1  0
 10 13  1  0
 13 14  1  0
 13 15  1  0
 13 16  1  0
 16 17  1  0
 16 18  1  0
 16 19  1  0
 19 20  1  1
 19 21  1  0
 21 22  1  0
 19 23  1  0
 23 24  1  6
 23 25  1  0
 25 26  2  0
 26 27  1  0
 26 28  1  0
 28 29  2  0
 29 30  1  0
 29 31  1  0
 31 32  1  0
 31 33  2  0
 33 34  1  0
 23 35  1  0
 35 36  1  0
 35 37  1  0
 35 38  1  0
 33 25  1  0
M  END
>  <cnnaffinity>  (1) 
-4.67673

>  <filename>  (1) 
C[C@@H](c1cccnc1)[C@H](O)CCCCC(=O)NO

$$$$
