
     RDKit          3D

 36 37  0  0  0  0  0  0  0  0999 V2000
    4.9086    1.8147   17.0034 H   0  0  0  0  0  0  0  0  0  0  0  0
    5.3954    1.3001   17.8288 C   0  0  0  0  0  0  0  0  0  0  0  0
    6.5459    0.6708   17.5396 N   0  0  0  0  0  0  0  0  0  0  0  0
    7.1940    0.0484   18.5326 C   0  0  0  0  0  0  0  0  0  0  0  0
    8.1362   -0.4378   18.2837 H   0  0  0  0  0  0  0  0  0  0  0  0
    6.7008    0.0218   19.8483 C   0  0  0  0  0  0  0  0  0  0  0  0
    7.3040   -0.6437   20.9117 O   0  0  0  0  0  0  0  0  0  0  0  0
    8.6607   -0.6599   21.0495 C   0  0  0  0  0  0  0  0  0  0  0  0
    9.4228   -0.0368   20.3549 O   0  0  0  0  0  0  0  0  0  0  0  0
    9.1190   -1.6933   22.1017 C   0  0  1  0  0  0  0  0  0  0  0  0
   10.1817   -1.4759   22.2128 H   0  0  0  0  0  0  0  0  0  0  0  0
    8.4970   -1.6663   23.4252 N   0  0  0  0  0  0  0  0  0  0  0  0
    7.7358   -2.2990   23.6343 H   0  0  0  0  0  0  0  0  0  0  0  0
    8.7005   -0.7367   24.3765 C   0  0  0  0  0  0  0  0  0  0  0  0
    9.7065    0.5755   24.2575 S   0  0  0  0  0  0  0  0  0  0  0  0
    7.9811   -0.9381   25.5203 N   0  0  0  0  0  0  0  0  0  0  0  0
    8.1546   -0.1559   26.1340 H   0  0  0  0  0  0  0  0  0  0  0  0
    7.6133   -2.1686   26.1336 C   0  0  0  0  0  0  0  0  0  0  0  0
    8.2863   -3.3835   25.9139 C   0  0  0  0  0  0  0  0  0  0  0  0
    9.1840   -3.3982   25.3024 H   0  0  0  0  0  0  0  0  0  0  0  0
    7.8283   -4.5498   26.5411 C   0  0  0  0  0  0  0  0  0  0  0  0
    8.3402   -5.4904   26.3603 H   0  0  0  0  0  0  0  0  0  0  0  0
    6.7142   -4.5130   27.3847 C   0  0  0  0  0  0  0  0  0  0  0  0
    6.3514   -5.4253   27.8499 H   0  0  0  0  0  0  0  0  0  0  0  0
    6.0723   -3.2951   27.6251 C   0  0  0  0  0  0  0  0  0  0  0  0
    5.2302   -3.2454   28.3086 H   0  0  0  0  0  0  0  0  0  0  0  0
    6.5397   -2.1223   27.0294 C   0  0  0  0  0  0  0  0  0  0  0  0
    6.0947   -1.1534   27.2341 H   0  0  0  0  0  0  0  0  0  0  0  0
    8.9360   -3.0991   21.5481 C   0  0  0  0  0  0  0  0  0  0  0  0
    9.2851   -3.8229   22.2904 H   0  0  0  0  0  0  0  0  0  0  0  0
    7.8864   -3.3058   21.3253 H   0  0  0  0  0  0  0  0  0  0  0  0
    9.5199   -3.2165   20.6327 H   0  0  0  0  0  0  0  0  0  0  0  0
    5.4893    0.6392   20.1428 C   0  0  0  0  0  0  0  0  0  0  0  0
    5.1199    0.5937   21.1660 H   0  0  0  0  0  0  0  0  0  0  0  0
    4.8252    1.3024   19.1087 C   0  0  0  0  0  0  0  0  0  0  0  0
    3.8896    1.8213   19.2827 H   0  0  0  0  0  0  0  0  0  0  0  0
  1  2  1  0
  2  3  2  0
  3  4  1  0
  4  5  1  0
  4  6  2  0
  6  7  1  0
  7  8  1  0
  8  9  2  0
  8 10  1  0
 10 11  1  1
 10 12  1  0
 12 13  1  0
 12 14  1  0
 14 15  2  0
 14 16  1  0
 16 17  1  0
 16 18  1  0
 18 19  2  0
 19 20  1  0
 19 21  1  0
 21 22  1  0
 21 23  2  0
 23 24  1  0
 23 25  1  0
 25 26  1  0
 25 27  2  0
 27 28  1  0
 10 29  1  0
 29 30  1  0
 29 31  1  0
 29 32  1  0
  6 33  1  0
 33 34  1  0
 33 35  2  0
 35 36  1  0
 35  2  1  0
 27 18  1  0
M  END
>  <cnnaffinity>  (1) 
-4.60762

>  <filename>  (1) 
C[C@H](NC(=S)Nc1ccccc1)C(=O)Oc1cccnc1

$$$$
