
     RDKit          3D

 33 34  0  0  0  0  0  0  0  0999 V2000
    9.9480    2.0797   23.2423 H   0  0  0  0  0  0  0  0  0  0  0  0
    9.6243    1.1739   23.3063 O   0  0  0  0  0  0  0  0  0  0  0  0
   10.6047    0.2972   22.9207 C   0  0  0  0  0  0  0  0  0  0  0  0
   11.9327    0.7235   22.8255 C   0  0  0  0  0  0  0  0  0  0  0  0
   12.1976    1.7298   23.1339 H   0  0  0  0  0  0  0  0  0  0  0  0
   12.9281   -0.1441   22.3765 C   0  0  0  0  0  0  0  0  0  0  0  0
   14.5766    0.3902   22.3803 Cl  0  0  0  0  0  0  0  0  0  0  0  0
   12.6272   -1.4498   21.9896 C   0  0  0  0  0  0  0  0  0  0  0  0
   13.3939   -2.0828   21.5486 H   0  0  0  0  0  0  0  0  0  0  0  0
   11.3203   -1.9051   22.1813 C   0  0  0  0  0  0  0  0  0  0  0  0
   11.0306   -2.9344   22.0116 H   0  0  0  0  0  0  0  0  0  0  0  0
   10.3020   -1.0611   22.6559 C   0  0  0  0  0  0  0  0  0  0  0  0
    9.0730   -1.6822   22.7413 O   0  0  0  0  0  0  0  0  0  0  0  0
    7.9184   -1.0417   23.3149 C   0  0  1  0  0  0  0  0  0  0  0  0
    8.1937   -0.4069   24.1625 H   0  0  0  0  0  0  0  0  0  0  0  0
    7.1332   -0.1322   22.3280 C   0  0  0  0  0  0  0  0  0  0  0  0
    6.3511    0.6884   22.7741 O   0  0  0  0  0  0  0  0  0  0  0  0
    7.3186   -0.3833   20.9891 N   0  0  0  0  0  0  0  0  0  0  0  0
    8.0826   -1.0133   20.7957 H   0  0  0  0  0  0  0  0  0  0  0  0
    6.6348    0.1722   19.8792 C   0  0  0  0  0  0  0  0  0  0  0  0
    7.1674    0.0693   18.5685 C   0  0  0  0  0  0  0  0  0  0  0  0
    8.1061   -0.4570   18.3914 H   0  0  0  0  0  0  0  0  0  0  0  0
    6.5931    0.5986   17.4811 N   0  0  0  0  0  0  0  0  0  0  0  0
    5.4355    1.2601   17.6517 C   0  0  0  0  0  0  0  0  0  0  0  0
    4.9968    1.7071   16.7627 H   0  0  0  0  0  0  0  0  0  0  0  0
    4.8089    1.3882   18.8951 C   0  0  0  0  0  0  0  0  0  0  0  0
    3.8789    1.9425   18.9691 H   0  0  0  0  0  0  0  0  0  0  0  0
    5.4086    0.8363   20.0339 C   0  0  0  0  0  0  0  0  0  0  0  0
    4.9662    0.9256   21.0227 H   0  0  0  0  0  0  0  0  0  0  0  0
    7.0156   -2.1700   23.8149 C   0  0  0  0  0  0  0  0  0  0  0  0
    7.5634   -2.8053   24.5166 H   0  0  0  0  0  0  0  0  0  0  0  0
    6.1457   -1.7548   24.3364 H   0  0  0  0  0  0  0  0  0  0  0  0
    6.6708   -2.7943   22.9819 H   0  0  0  0  0  0  0  0  0  0  0  0
  1  2  1  0
  2  3  1  0
  3  4  2  0
  4  5  1  0
  4  6  1  0
  6  7  1  0
  6  8  2  0
  8  9  1  0
  8 10  1  0
 10 11  1  0
 10 12  2  0
 12 13  1  0
 13 14  1  0
 14 15  1  1
 14 16  1  0
 16 17  2  0
 16 18  1  0
 18 19  1  0
 18 20  1  0
 20 21  2  0
 21 22  1  0
 21 23  1  0
 23 24  2  0
 24 25  1  0
 24 26  1  0
 26 27  1  0
 26 28  2  0
 28 29  1  0
 14 30  1  0
 30 31  1  0
 30 32  1  0
 30 33  1  0
 12  3  1  0
 28 20  1  0
M  END
>  <cnnaffinity>  (1) 
-4.84814

>  <filename>  (1) 
C[C@@H](Oc1ccc(Cl)cc1O)C(=O)Nc1cccnc1

$$$$
