
     RDKit          3D

 31 32  0  0  0  0  0  0  0  0999 V2000
    4.9092    1.7987   16.9054 H   0  0  0  0  0  0  0  0  0  0  0  0
    5.3966    1.3210   17.7533 C   0  0  0  0  0  0  0  0  0  0  0  0
    6.5668    0.7165   17.4963 N   0  0  0  0  0  0  0  0  0  0  0  0
    7.1967    0.1381   18.5207 C   0  0  0  0  0  0  0  0  0  0  0  0
    8.1404   -0.3489   18.2863 H   0  0  0  0  0  0  0  0  0  0  0  0
    6.6946    0.1115   19.8335 C   0  0  0  0  0  0  0  0  0  0  0  0
    7.5621   -0.5263   20.8841 C   0  0  0  0  0  0  0  0  0  0  0  0
    8.7705   -0.4713   20.7643 O   0  0  0  0  0  0  0  0  0  0  0  0
    6.8488   -1.2266   22.1031 C   0  0  1  0  0  0  0  0  0  0  0  0
    5.7848   -1.2680   21.8160 H   0  0  0  0  0  0  0  0  0  0  0  0
    7.3266   -2.5854   22.4379 N   0  0  0  0  0  0  0  0  0  0  0  0
    6.9231   -2.8181   23.3446 H   0  0  0  0  0  0  0  0  0  0  0  0
    6.9908   -3.6738   21.5222 C   0  0  0  0  0  0  0  0  0  0  0  0
    7.7873   -4.4283   21.6208 H   0  0  0  0  0  0  0  0  0  0  0  0
    7.0368   -3.3091   20.4870 H   0  0  0  0  0  0  0  0  0  0  0  0
    5.6440   -4.2944   21.8449 C   0  0  0  0  0  0  0  0  0  0  0  0
    4.8156   -3.5775   21.7995 H   0  0  0  0  0  0  0  0  0  0  0  0
    5.5496   -5.3523   22.9157 C   0  0  0  0  0  0  0  0  0  0  0  0
    6.4713   -5.6981   23.3789 H   0  0  0  0  0  0  0  0  0  0  0  0
    4.6978   -5.3223   23.5845 H   0  0  0  0  0  0  0  0  0  0  0  0
    5.3106   -5.7140   21.4834 C   0  0  0  0  0  0  0  0  0  0  0  0
    4.2872   -5.9296   21.2137 H   0  0  0  0  0  0  0  0  0  0  0  0
    6.0351   -6.3408   20.9693 H   0  0  0  0  0  0  0  0  0  0  0  0
    6.9760   -0.4105   23.3907 C   0  0  0  0  0  0  0  0  0  0  0  0
    6.3829   -0.9119   24.1682 H   0  0  0  0  0  0  0  0  0  0  0  0
    8.0192   -0.3760   23.7241 H   0  0  0  0  0  0  0  0  0  0  0  0
    6.5946    0.6116   23.2794 H   0  0  0  0  0  0  0  0  0  0  0  0
    5.4578    0.7246   20.0819 C   0  0  0  0  0  0  0  0  0  0  0  0
    5.0132    0.7358   21.0804 H   0  0  0  0  0  0  0  0  0  0  0  0
    4.8022    1.3406   19.0186 C   0  0  0  0  0  0  0  0  0  0  0  0
    3.8472    1.8368   19.1509 H   0  0  0  0  0  0  0  0  0  0  0  0
  1  2  1  0
  2  3  2  0
  3  4  1  0
  4  5  1  0
  4  6  2  0
  6  7  1  0
  7  8  2  0
  7  9  1  0
  9 10  1  6
  9 11  1  0
 11 12  1  0
 11 13  1  0
 13 14  1  0
 13 15  1  0
 13 16  1  0
 16 17  1  0
 16 18  1  0
 18 19  1  0
 18 20  1  0
 18 21  1  0
 21 22  1  0
 21 23  1  0
  9 24  1  0
 24 25  1  0
 24 26  1  0
 24 27  1  0
  6 28  1  0
 28 29  1  0
 28 30  2  0
 30 31  1  0
 30  2  1  0
 21 16  1  0
M  END
>  <cnnaffinity>  (1) 
-4.15886

>  <filename>  (1) 
C[C@H](NCC1CC1)C(=O)c1cccnc1

$$$$
