
     RDKit          3D

 25 26  0  0  0  0  0  0  0  0999 V2000
    4.9237    1.7819   16.9943 H   0  0  0  0  0  0  0  0  0  0  0  0
    5.4036    1.2928   17.8379 C   0  0  0  0  0  0  0  0  0  0  0  0
    6.5678    0.6762   17.5852 N   0  0  0  0  0  0  0  0  0  0  0  0
    7.1665    0.0536   18.6078 C   0  0  0  0  0  0  0  0  0  0  0  0
    8.1156   -0.4262   18.3845 H   0  0  0  0  0  0  0  0  0  0  0  0
    6.6298   -0.0122   19.9023 C   0  0  0  0  0  0  0  0  0  0  0  0
    7.4326   -0.6776   21.0043 C   0  0  1  0  0  0  0  0  0  0  0  0
    8.2045   -1.6989   20.4245 F   0  0  0  0  0  0  0  0  0  0  0  0
    8.4102    0.2983   21.6136 C   0  0  0  0  0  0  0  0  0  0  0  0
    9.7800    0.2641   21.6233 C   0  0  0  0  0  0  0  0  0  0  0  0
   10.3654   -0.5262   21.1749 H   0  0  0  0  0  0  0  0  0  0  0  0
   10.2196    1.4182   22.3233 C   0  0  0  0  0  0  0  0  0  0  0  0
   11.2465    1.6830   22.5168 H   0  0  0  0  0  0  0  0  0  0  0  0
    9.1154    2.1239   22.7146 C   0  0  0  0  0  0  0  0  0  0  0  0
    9.0244    3.0591   23.2614 H   0  0  0  0  0  0  0  0  0  0  0  0
    8.0141    1.4307   22.2847 N   0  0  0  0  0  0  0  0  0  0  0  0
    7.0622    1.7424   22.3808 H   0  0  0  0  0  0  0  0  0  0  0  0
    6.5637   -1.3506   22.0643 C   0  0  0  0  0  0  0  0  0  0  0  0
    7.1967   -1.9699   22.7053 H   0  0  0  0  0  0  0  0  0  0  0  0
    5.7938   -1.9687   21.5907 H   0  0  0  0  0  0  0  0  0  0  0  0
    6.0951   -0.5923   22.6962 H   0  0  0  0  0  0  0  0  0  0  0  0
    5.4240    0.6500   20.1549 C   0  0  0  0  0  0  0  0  0  0  0  0
    4.9768    0.6449   21.1532 H   0  0  0  0  0  0  0  0  0  0  0  0
    4.8004    1.3146   19.0999 C   0  0  0  0  0  0  0  0  0  0  0  0
    3.8704    1.8468   19.2524 H   0  0  0  0  0  0  0  0  0  0  0  0
  1  2  1  0
  2  3  2  0
  3  4  1  0
  4  5  1  0
  4  6  2  0
  6  7  1  0
  7  8  1  6
  7  9  1  0
  9 10  2  0
 10 11  1  0
 10 12  1  0
 12 13  1  0
 12 14  2  0
 14 15  1  0
 14 16  1  0
 16 17  1  0
  7 18  1  0
 18 19  1  0
 18 20  1  0
 18 21  1  0
  6 22  1  0
 22 23  1  0
 22 24  2  0
 24 25  1  0
 24  2  1  0
 16  9  1  0
M  END
>  <cnnaffinity>  (1) 
-4.43649

>  <filename>  (1) 
C[C@@](F)(c1cccnc1)c1ccc[nH]1

$$$$
