
     RDKit          3D

 31 32  0  0  0  0  0  0  0  0999 V2000
    5.0022    1.8896   16.8794 H   0  0  0  0  0  0  0  0  0  0  0  0
    5.4424    1.3642   17.7256 C   0  0  0  0  0  0  0  0  0  0  0  0
    6.6107    0.7417   17.4985 N   0  0  0  0  0  0  0  0  0  0  0  0
    7.1895    0.1084   18.5285 C   0  0  0  0  0  0  0  0  0  0  0  0
    8.1422   -0.3707   18.3054 H   0  0  0  0  0  0  0  0  0  0  0  0
    6.6427    0.0143   19.8413 C   0  0  0  0  0  0  0  0  0  0  0  0
    7.2952   -0.6947   20.8776 N   0  0  0  0  0  0  0  0  0  0  0  0
    8.6905   -0.3778   21.1364 C   0  0  0  0  0  0  0  0  0  0  0  0
    9.2829   -0.5049   20.2230 H   0  0  0  0  0  0  0  0  0  0  0  0
    8.8427    0.6555   21.4976 H   0  0  0  0  0  0  0  0  0  0  0  0
    9.0937   -1.0644   21.8873 H   0  0  0  0  0  0  0  0  0  0  0  0
    6.5572   -1.4078   21.9321 C   0  0  1  0  0  0  0  0  0  0  0  0
    5.5125   -1.4376   21.5914 H   0  0  0  0  0  0  0  0  0  0  0  0
    7.0226   -2.8658   22.0199 C   0  0  0  0  0  0  0  0  0  0  0  0
    6.6027   -3.7451   21.0096 C   0  0  0  0  0  0  0  0  0  0  0  0
    5.9615   -3.4022   20.1973 H   0  0  0  0  0  0  0  0  0  0  0  0
    6.9152   -5.0491   20.9778 N   0  0  0  0  0  0  0  0  0  0  0  0
    7.7392   -5.5290   21.9237 C   0  0  0  0  0  0  0  0  0  0  0  0
    8.0049   -6.5832   21.8800 H   0  0  0  0  0  0  0  0  0  0  0  0
    8.2397   -4.7190   22.9463 C   0  0  0  0  0  0  0  0  0  0  0  0
    9.1306   -5.2040   23.8281 F   0  0  0  0  0  0  0  0  0  0  0  0
    7.8592   -3.3837   23.0307 C   0  0  0  0  0  0  0  0  0  0  0  0
    8.2187   -2.7845   23.8675 H   0  0  0  0  0  0  0  0  0  0  0  0
    6.6093   -0.7147   23.3011 C   0  0  0  0  0  0  0  0  0  0  0  0
    6.0364   -1.3117   24.0194 H   0  0  0  0  0  0  0  0  0  0  0  0
    6.1760    0.2904   23.2563 H   0  0  0  0  0  0  0  0  0  0  0  0
    7.6291   -0.6226   23.6878 H   0  0  0  0  0  0  0  0  0  0  0  0
    5.4093    0.6699   20.0383 C   0  0  0  0  0  0  0  0  0  0  0  0
    4.9660    0.6560   21.0325 H   0  0  0  0  0  0  0  0  0  0  0  0
    4.8101    1.3531   18.9728 C   0  0  0  0  0  0  0  0  0  0  0  0
    3.8691    1.8780   19.1051 H   0  0  0  0  0  0  0  0  0  0  0  0
  1  2  1  0
  2  3  2  0
  3  4  1  0
  4  5  1  0
  4  6  2  0
  6  7  1  0
  7  8  1  0
  8  9  1  0
  8 10  1  0
  8 11  1  0
  7 12  1  0
 12 13  1  6
 12 14  1  0
 14 15  2  0
 15 16  1  0
 15 17  1  0
 17 18  2  0
 18 19  1  0
 18 20  1  0
 20 21  1  0
 20 22  2  0
 22 23  1  0
 12 24  1  0
 24 25  1  0
 24 26  1  0
 24 27  1  0
  6 28  1  0
 28 29  1  0
 28 30  2  0
 30 31  1  0
 30  2  1  0
 22 14  1  0
M  END
>  <cnnaffinity>  (1) 
-4.00174

>  <filename>  (1) 
C[C@H](c1cncc(F)c1)N(C)c1cccnc1

$$$$
