
     RDKit          3D

 31 32  0  0  0  0  0  0  0  0999 V2000
    4.9226    1.7815   16.9981 H   0  0  0  0  0  0  0  0  0  0  0  0
    5.4034    1.2908   17.8467 C   0  0  0  0  0  0  0  0  0  0  0  0
    6.5670    0.6697   17.5954 N   0  0  0  0  0  0  0  0  0  0  0  0
    7.1732    0.0510   18.6153 C   0  0  0  0  0  0  0  0  0  0  0  0
    8.1185   -0.4351   18.3987 H   0  0  0  0  0  0  0  0  0  0  0  0
    6.6624   -0.0145   19.9373 C   0  0  0  0  0  0  0  0  0  0  0  0
    7.4059   -0.7289   20.8298 O   0  0  0  0  0  0  0  0  0  0  0  0
    6.9702   -0.8776   22.1935 C   0  0  2  0  0  0  0  0  0  0  0  0
    5.9261   -1.2022   22.1601 H   0  0  0  0  0  0  0  0  0  0  0  0
    7.0385    0.4052   23.0506 C   0  0  0  0  0  0  0  0  0  0  0  0
    6.0531    0.5643   24.0438 C   0  0  0  0  0  0  0  0  0  0  0  0
    5.3276   -0.2092   24.2282 H   0  0  0  0  0  0  0  0  0  0  0  0
    5.9848    1.6783   24.8754 C   0  0  0  0  0  0  0  0  0  0  0  0
    5.1828    1.7544   25.6062 H   0  0  0  0  0  0  0  0  0  0  0  0
    6.9516    2.6723   24.7555 C   0  0  0  0  0  0  0  0  0  0  0  0
    6.9191    3.5472   25.3950 H   0  0  0  0  0  0  0  0  0  0  0  0
    7.9690    2.5255   23.8137 C   0  0  0  0  0  0  0  0  0  0  0  0
    8.7259    3.2990   23.7289 H   0  0  0  0  0  0  0  0  0  0  0  0
    8.0461    1.3923   22.9788 C   0  0  0  0  0  0  0  0  0  0  0  0
    9.1977    1.3538   21.9705 C   0  0  0  0  0  0  0  0  0  0  0  0
    8.8190    1.8327   20.7723 F   0  0  0  0  0  0  0  0  0  0  0  0
    9.7057    0.1258   21.7717 F   0  0  0  0  0  0  0  0  0  0  0  0
   10.2422    2.1166   22.3685 F   0  0  0  0  0  0  0  0  0  0  0  0
    7.7725   -2.0089   22.8216 C   0  0  0  0  0  0  0  0  0  0  0  0
    7.3219   -2.2830   23.7822 H   0  0  0  0  0  0  0  0  0  0  0  0
    8.8078   -1.7144   23.0045 H   0  0  0  0  0  0  0  0  0  0  0  0
    7.7604   -2.8891   22.1739 H   0  0  0  0  0  0  0  0  0  0  0  0
    5.4487    0.6423   20.1856 C   0  0  0  0  0  0  0  0  0  0  0  0
    5.0075    0.6402   21.1846 H   0  0  0  0  0  0  0  0  0  0  0  0
    4.8190    1.3045   19.1156 C   0  0  0  0  0  0  0  0  0  0  0  0
    3.8852    1.8352   19.2596 H   0  0  0  0  0  0  0  0  0  0  0  0
  1  2  1  0
  2  3  2  0
  3  4  1  0
  4  5  1  0
  4  6  2  0
  6  7  1  0
  7  8  1  0
  8  9  1  6
  8 10  1  0
 10 11  2  0
 11 12  1  0
 11 13  1  0
 13 14  1  0
 13 15  2  0
 15 16  1  0
 15 17  1  0
 17 18  1  0
 17 19  2  0
 19 20  1  0
 20 21  1  0
 20 22  1  0
 20 23  1  0
  8 24  1  0
 24 25  1  0
 24 26  1  0
 24 27  1  0
  6 28  1  0
 28 29  1  0
 28 30  2  0
 30 31  1  0
 30  2  1  0
 19 10  1  0
M  END
>  <cnnaffinity>  (1) 
-4.59379

>  <filename>  (1) 
C[C@H](Oc1cccnc1)c1ccccc1C(F)(F)F

$$$$
