
     RDKit          3D

 29 30  0  0  0  0  0  0  0  0999 V2000
    6.9199    4.8314   21.8246 H   0  0  0  0  0  0  0  0  0  0  0  0
    6.9236    3.8521   22.2895 C   0  0  0  0  0  0  0  0  0  0  0  0
    7.7118    2.9248   21.7281 N   0  0  0  0  0  0  0  0  0  0  0  0
    7.6962    1.7167   22.2990 C   0  0  0  0  0  0  0  0  0  0  0  0
    8.5603    0.6157   21.7088 C   0  0  2  0  0  0  0  0  0  0  0  0
    8.9938    1.0346   20.8054 H   0  0  0  0  0  0  0  0  0  0  0  0
    7.5567   -0.8325   21.1789 S   0  0  0  0  0  0  0  0  0  0  0  0
    6.6420   -0.0195   19.8956 C   0  0  0  0  0  0  0  0  0  0  0  0
    7.1667    0.0515   18.5904 C   0  0  0  0  0  0  0  0  0  0  0  0
    8.1184   -0.4319   18.3680 H   0  0  0  0  0  0  0  0  0  0  0  0
    6.5656    0.6800   17.5740 N   0  0  0  0  0  0  0  0  0  0  0  0
    5.4013    1.2962   17.8389 C   0  0  0  0  0  0  0  0  0  0  0  0
    4.9161    1.7827   16.9957 H   0  0  0  0  0  0  0  0  0  0  0  0
    4.8005    1.3092   19.1045 C   0  0  0  0  0  0  0  0  0  0  0  0
    3.8687    1.8453   19.2567 H   0  0  0  0  0  0  0  0  0  0  0  0
    5.4261    0.6352   20.1588 C   0  0  0  0  0  0  0  0  0  0  0  0
    5.0152    0.6260   21.1738 H   0  0  0  0  0  0  0  0  0  0  0  0
    9.6617    0.1192   22.6401 C   0  0  0  0  0  0  0  0  0  0  0  0
   10.3016    0.9592   22.9306 H   0  0  0  0  0  0  0  0  0  0  0  0
   10.2825   -0.6344   22.1425 H   0  0  0  0  0  0  0  0  0  0  0  0
    9.2240   -0.3195   23.5420 H   0  0  0  0  0  0  0  0  0  0  0  0
    6.9850    1.3822   23.3697 N   0  0  0  0  0  0  0  0  0  0  0  0
    6.2174    2.3189   23.9396 C   0  0  0  0  0  0  0  0  0  0  0  0
    5.3736    1.9580   25.1901 C   0  0  0  0  0  0  0  0  0  0  0  0
    5.6484    2.7957   26.2127 F   0  0  0  0  0  0  0  0  0  0  0  0
    4.0552    2.1156   24.9386 F   0  0  0  0  0  0  0  0  0  0  0  0
    5.5461    0.7146   25.6374 F   0  0  0  0  0  0  0  0  0  0  0  0
    6.1499    3.6078   23.4113 C   0  0  0  0  0  0  0  0  0  0  0  0
    5.5268    4.3773   23.8490 H   0  0  0  0  0  0  0  0  0  0  0  0
  1  2  1  0
  2  3  2  0
  3  4  1  0
  4  5  1  0
  5  6  1  6
  5  7  1  0
  7  8  1  0
  8  9  2  0
  9 10  1  0
  9 11  1  0
 11 12  2  0
 12 13  1  0
 12 14  1  0
 14 15  1  0
 14 16  2  0
 16 17  1  0
  5 18  1  0
 18 19  1  0
 18 20  1  0
 18 21  1  0
  4 22  2  0
 22 23  1  0
 23 24  1  0
 24 25  1  0
 24 26  1  0
 24 27  1  0
 23 28  2  0
 28 29  1  0
 28  2  1  0
 16  8  1  0
M  END
>  <cnnaffinity>  (1) 
-4.9953

>  <filename>  (1) 
C[C@@H](Sc1cccnc1)c1nccc(C(F)(F)F)n1

$$$$
