
     RDKit          3D

 29 30  0  0  0  0  0  0  0  0999 V2000
    8.2662   -2.1398   19.9764 H   0  0  0  0  0  0  0  0  0  0  0  0
    8.5818   -1.3585   20.4538 O   0  0  0  0  0  0  0  0  0  0  0  0
    7.4521   -0.6824   20.9885 C   0  0  2  0  0  0  0  0  0  0  0  0
    6.6621    0.0033   19.8787 C   0  0  0  0  0  0  0  0  0  0  0  0
    7.1768    0.0653   18.5759 C   0  0  0  0  0  0  0  0  0  0  0  0
    8.1328   -0.4026   18.3545 H   0  0  0  0  0  0  0  0  0  0  0  0
    6.5681    0.6847   17.5563 N   0  0  0  0  0  0  0  0  0  0  0  0
    5.4045    1.2969   17.8149 C   0  0  0  0  0  0  0  0  0  0  0  0
    4.9356    1.8081   16.9784 H   0  0  0  0  0  0  0  0  0  0  0  0
    4.7980    1.3038   19.0764 C   0  0  0  0  0  0  0  0  0  0  0  0
    3.8667    1.8409   19.2281 H   0  0  0  0  0  0  0  0  0  0  0  0
    5.4360    0.6470   20.1280 C   0  0  0  0  0  0  0  0  0  0  0  0
    4.9950    0.6618   21.1273 H   0  0  0  0  0  0  0  0  0  0  0  0
    8.0350    0.3728   21.9363 C   0  0  0  0  0  0  0  0  0  0  0  0
    8.7113    1.0360   21.3878 H   0  0  0  0  0  0  0  0  0  0  0  0
    8.5989   -0.1050   22.7451 H   0  0  0  0  0  0  0  0  0  0  0  0
    7.2345    0.9745   22.3823 H   0  0  0  0  0  0  0  0  0  0  0  0
    6.5316   -1.6361   21.8273 C   0  0  0  0  0  0  0  0  0  0  0  0
    7.1768   -2.1550   22.5409 H   0  0  0  0  0  0  0  0  0  0  0  0
    5.8961   -0.9782   22.4147 H   0  0  0  0  0  0  0  0  0  0  0  0
    5.7329   -2.6307   21.1228 N   0  0  0  0  0  0  0  0  0  0  0  0
    5.0896   -2.3640   20.3926 H   0  0  0  0  0  0  0  0  0  0  0  0
    6.1682   -3.8771   20.8349 C   0  0  0  0  0  0  0  0  0  0  0  0
    5.5524   -4.5700   19.9348 N   0  0  0  0  0  0  0  0  0  0  0  0
    6.0036   -5.8708   19.9616 C   0  0  0  0  0  0  0  0  0  0  0  0
    5.5105   -6.5861   19.3079 H   0  0  0  0  0  0  0  0  0  0  0  0
    6.9995   -6.1434   20.8372 C   0  0  0  0  0  0  0  0  0  0  0  0
    7.4160   -7.0892   21.1398 H   0  0  0  0  0  0  0  0  0  0  0  0
    7.4781   -4.6876   21.6546 S   0  0  0  0  0  0  0  0  0  0  0  0
  1  2  1  0
  3  2  1  6
  3  4  1  0
  4  5  2  0
  5  6  1  0
  5  7  1  0
  7  8  2  0
  8  9  1  0
  8 10  1  0
 10 11  1  0
 10 12  2  0
 12 13  1  0
  3 14  1  0
 14 15  1  0
 14 16  1  0
 14 17  1  0
  3 18  1  0
 18 19  1  0
 18 20  1  0
 18 21  1  0
 21 22  1  0
 21 23  1  0
 23 24  2  0
 24 25  1  0
 25 26  1  0
 25 27  2  0
 27 28  1  0
 27 29  1  0
 12  4  1  0
 29 23  1  0
M  END
>  <cnnaffinity>  (1) 
-4.27355

>  <filename>  (1) 
C[C@@](O)(CNc1nccs1)c1cccnc1

$$$$
