
     RDKit          3D

 36 37  0  0  0  0  0  0  0  0999 V2000
    4.9021    1.8774   17.0158 H   0  0  0  0  0  0  0  0  0  0  0  0
    5.4098    1.3320   17.8092 C   0  0  0  0  0  0  0  0  0  0  0  0
    6.5406    0.6998   17.4502 N   0  0  0  0  0  0  0  0  0  0  0  0
    7.2071    0.0233   18.3941 C   0  0  0  0  0  0  0  0  0  0  0  0
    8.1363   -0.4673   18.1014 H   0  0  0  0  0  0  0  0  0  0  0  0
    6.7564   -0.0648   19.7217 C   0  0  0  0  0  0  0  0  0  0  0  0
    7.3928   -0.8541   20.6777 O   0  0  0  0  0  0  0  0  0  0  0  0
    8.7278   -0.7257   20.9325 C   0  0  0  0  0  0  0  0  0  0  0  0
    9.4693   -0.0183   20.3002 O   0  0  0  0  0  0  0  0  0  0  0  0
    9.1993   -1.6180   22.1202 C   0  0  1  0  0  0  0  0  0  0  0  0
   10.2013   -1.9111   21.7686 H   0  0  0  0  0  0  0  0  0  0  0  0
    9.4375   -0.8310   23.3622 N   0  0  0  0  0  0  0  0  0  0  0  0
   10.1634   -1.2045   23.9564 H   0  0  0  0  0  0  0  0  0  0  0  0
    8.3586   -0.4722   24.1682 C   0  0  0  0  0  0  0  0  0  0  0  0
    7.1912   -0.5850   23.8672 O   0  0  0  0  0  0  0  0  0  0  0  0
    8.8202    0.0249   25.3647 N   0  0  0  0  0  0  0  0  0  0  0  0
    9.7510    0.3945   25.2739 H   0  0  0  0  0  0  0  0  0  0  0  0
    7.9599    0.6643   26.2853 C   0  0  0  0  0  0  0  0  0  0  0  0
    6.7589    0.0497   26.6596 C   0  0  0  0  0  0  0  0  0  0  0  0
    6.4672   -0.8500   26.1362 H   0  0  0  0  0  0  0  0  0  0  0  0
    5.9560    0.6176   27.6486 C   0  0  0  0  0  0  0  0  0  0  0  0
    5.0327    0.1325   27.9572 H   0  0  0  0  0  0  0  0  0  0  0  0
    6.3481    1.8268   28.2288 C   0  0  0  0  0  0  0  0  0  0  0  0
    5.3859    2.4794   29.5165 Cl  0  0  0  0  0  0  0  0  0  0  0  0
    7.5027    2.4946   27.8109 C   0  0  0  0  0  0  0  0  0  0  0  0
    7.7369    3.4649   28.2379 H   0  0  0  0  0  0  0  0  0  0  0  0
    8.3200    1.8930   26.8431 C   0  0  0  0  0  0  0  0  0  0  0  0
    9.2367    2.3705   26.5157 H   0  0  0  0  0  0  0  0  0  0  0  0
    8.3334   -2.8569   22.4002 C   0  0  0  0  0  0  0  0  0  0  0  0
    8.1596   -3.4330   21.4907 H   0  0  0  0  0  0  0  0  0  0  0  0
    7.3734   -2.5655   22.8345 H   0  0  0  0  0  0  0  0  0  0  0  0
    8.8477   -3.5000   23.1212 H   0  0  0  0  0  0  0  0  0  0  0  0
    5.5701    0.5753   20.0927 C   0  0  0  0  0  0  0  0  0  0  0  0
    5.2121    0.5051   21.1204 H   0  0  0  0  0  0  0  0  0  0  0  0
    4.8838    1.2949   19.1061 C   0  0  0  0  0  0  0  0  0  0  0  0
    3.9607    1.8280   19.3256 H   0  0  0  0  0  0  0  0  0  0  0  0
  1  2  1  0
  2  3  2  0
  3  4  1  0
  4  5  1  0
  4  6  2  0
  6  7  1  0
  7  8  1  0
  8  9  2  0
  8 10  1  0
 10 11  1  6
 10 12  1  0
 12 13  1  0
 12 14  1  0
 14 15  2  0
 14 16  1  0
 16 17  1  0
 16 18  1  0
 18 19  2  0
 19 20  1  0
 19 21  1  0
 21 22  1  0
 21 23  2  0
 23 24  1  0
 23 25  1  0
 25 26  1  0
 25 27  2  0
 27 28  1  0
 10 29  1  0
 29 30  1  0
 29 31  1  0
 29 32  1  0
  6 33  1  0
 33 34  1  0
 33 35  2  0
 35 36  1  0
 35  2  1  0
 27 18  1  0
M  END
>  <cnnaffinity>  (1) 
-4.79814

>  <filename>  (1) 
C[C@H](NC(=O)Nc1ccc(Cl)cc1)C(=O)Oc1cccnc1

$$$$
