
     RDKit          3D

 37 38  0  0  0  0  0  0  0  0999 V2000
    4.9197    1.7956   16.9137 H   0  0  0  0  0  0  0  0  0  0  0  0
    5.4098    1.2907   17.7427 C   0  0  0  0  0  0  0  0  0  0  0  0
    6.5478    0.6426   17.4495 N   0  0  0  0  0  0  0  0  0  0  0  0
    7.1749    0.0243   18.4602 C   0  0  0  0  0  0  0  0  0  0  0  0
    8.0985   -0.4956   18.2000 H   0  0  0  0  0  0  0  0  0  0  0  0
    6.7205    0.0223   19.7936 C   0  0  0  0  0  0  0  0  0  0  0  0
    7.4548   -0.7032   20.9259 C   0  0  1  0  0  0  0  0  0  0  0  0
    8.4496   -0.9915   20.5627 H   0  0  0  0  0  0  0  0  0  0  0  0
    7.6612    0.2610   22.1228 C   0  0  0  0  0  0  0  0  0  0  0  0
    6.8871    0.3494   23.0632 O   0  0  0  0  0  0  0  0  0  0  0  0
    8.7531    1.0649   22.0140 N   0  0  0  0  0  0  0  0  0  0  0  0
    9.3309    0.9788   21.1979 H   0  0  0  0  0  0  0  0  0  0  0  0
    9.1494    1.9959   23.0735 C   0  0  1  0  0  0  0  0  0  0  0  0
    8.2887    2.6328   23.3165 H   0  0  0  0  0  0  0  0  0  0  0  0
    9.5306    1.2851   24.3600 C   0  0  0  0  0  0  0  0  0  0  0  0
    8.7059    1.3910   25.4926 C   0  0  0  0  0  0  0  0  0  0  0  0
    7.7906    1.9819   25.4396 H   0  0  0  0  0  0  0  0  0  0  0  0
    9.0210    0.6921   26.6562 C   0  0  0  0  0  0  0  0  0  0  0  0
    8.4183    0.8082   27.5500 H   0  0  0  0  0  0  0  0  0  0  0  0
   10.1503   -0.1253   26.6966 C   0  0  0  0  0  0  0  0  0  0  0  0
   10.3834   -0.6717   27.6044 H   0  0  0  0  0  0  0  0  0  0  0  0
   10.9814   -0.2268   25.5806 C   0  0  0  0  0  0  0  0  0  0  0  0
   11.8676   -0.8509   25.6121 H   0  0  0  0  0  0  0  0  0  0  0  0
   10.6736    0.4728   24.4152 C   0  0  0  0  0  0  0  0  0  0  0  0
   11.3234    0.3778   23.5488 H   0  0  0  0  0  0  0  0  0  0  0  0
   10.2655    2.8746   22.5370 C   0  0  0  0  0  0  0  0  0  0  0  0
    9.8677    3.4024   21.6793 H   0  0  0  0  0  0  0  0  0  0  0  0
   10.6044    3.5980   23.2841 H   0  0  0  0  0  0  0  0  0  0  0  0
   11.1308    2.2879   22.2114 H   0  0  0  0  0  0  0  0  0  0  0  0
    6.7233   -1.9805   21.3772 C   0  0  0  0  0  0  0  0  0  0  0  0
    7.2844   -2.4852   22.1708 H   0  0  0  0  0  0  0  0  0  0  0  0
    6.6034   -2.6827   20.5469 H   0  0  0  0  0  0  0  0  0  0  0  0
    5.7316   -1.7313   21.7692 H   0  0  0  0  0  0  0  0  0  0  0  0
    5.5263    0.7016   20.0673 C   0  0  0  0  0  0  0  0  0  0  0  0
    5.1560    0.7298   21.0952 H   0  0  0  0  0  0  0  0  0  0  0  0
    4.8518    1.3378   19.0249 C   0  0  0  0  0  0  0  0  0  0  0  0
    3.9231    1.8709   19.1968 H   0  0  0  0  0  0  0  0  0  0  0  0
  1  2  1  0
  2  3  2  0
  3  4  1  0
  4  5  1  0
  4  6  2  0
  6  7  1  0
  7  8  1  6
  7  9  1  0
  9 10  2  0
  9 11  1  0
 11 12  1  0
 11 13  1  0
 13 14  1  1
 13 15  1  0
 15 16  2  0
 16 17  1  0
 16 18  1  0
 18 19  1  0
 18 20  2  0
 20 21  1  0
 20 22  1  0
 22 23  1  0
 22 24  2  0
 24 25  1  0
 13 26  1  0
 26 27  1  0
 26 28  1  0
 26 29  1  0
  7 30  1  0
 30 31  1  0
 30 32  1  0
 30 33  1  0
  6 34  1  0
 34 35  1  0
 34 36  2  0
 36 37  1  0
 36  2  1  0
 24 15  1  0
M  END
>  <cnnaffinity>  (1) 
-4.63775

>  <filename>  (1) 
C[C@H](C(=O)N[C@H](C)c1ccccc1)c1cccnc1

$$$$
