
     RDKit          3D

 28 29  0  0  0  0  0  0  0  0999 V2000
    4.9121    1.7818   16.9954 H   0  0  0  0  0  0  0  0  0  0  0  0
    5.3997    1.2958   17.8368 C   0  0  0  0  0  0  0  0  0  0  0  0
    6.5648    0.6813   17.5732 N   0  0  0  0  0  0  0  0  0  0  0  0
    7.1674    0.0541   18.5913 C   0  0  0  0  0  0  0  0  0  0  0  0
    8.1200   -0.4283   18.3733 H   0  0  0  0  0  0  0  0  0  0  0  0
    6.6444   -0.0160   19.8971 C   0  0  0  0  0  0  0  0  0  0  0  0
    7.5500   -0.8438   21.1794 S   0  0  0  0  0  0  0  0  0  0  0  0
    8.6363    0.5519   21.6678 C   0  0  2  0  0  0  0  0  0  0  0  0
    8.8545    1.1056   20.7484 H   0  0  0  0  0  0  0  0  0  0  0  0
    9.9295   -0.0218   22.2139 C   0  0  0  0  0  0  0  0  0  0  0  0
   10.4490   -0.6036   21.4475 H   0  0  0  0  0  0  0  0  0  0  0  0
    9.7350   -0.6642   23.0752 H   0  0  0  0  0  0  0  0  0  0  0  0
   10.5815    0.7943   22.5407 H   0  0  0  0  0  0  0  0  0  0  0  0
    7.9232    1.5102   22.6417 C   0  0  0  0  0  0  0  0  0  0  0  0
    8.5909    2.3522   22.8475 H   0  0  0  0  0  0  0  0  0  0  0  0
    7.0310    1.9159   22.1487 H   0  0  0  0  0  0  0  0  0  0  0  0
    7.5130    0.8749   23.9306 C   0  0  0  0  0  0  0  0  0  0  0  0
    8.3349    0.7878   25.0274 N   0  0  0  0  0  0  0  0  0  0  0  0
    7.6600    0.1276   25.9355 C   0  0  0  0  0  0  0  0  0  0  0  0
    8.0047   -0.1079   26.9364 H   0  0  0  0  0  0  0  0  0  0  0  0
    6.4296   -0.2279   25.4736 N   0  0  0  0  0  0  0  0  0  0  0  0
    5.7304   -0.7371   25.9814 H   0  0  0  0  0  0  0  0  0  0  0  0
    6.3301    0.2480   24.1906 C   0  0  0  0  0  0  0  0  0  0  0  0
    5.4881    0.1186   23.5384 H   0  0  0  0  0  0  0  0  0  0  0  0
    5.4347    0.6429   20.1544 C   0  0  0  0  0  0  0  0  0  0  0  0
    5.0065    0.6295   21.1592 H   0  0  0  0  0  0  0  0  0  0  0  0
    4.8027    1.3109   19.1023 C   0  0  0  0  0  0  0  0  0  0  0  0
    3.8722    1.8449   19.2626 H   0  0  0  0  0  0  0  0  0  0  0  0
  1  2  1  0
  2  3  2  0
  3  4  1  0
  4  5  1  0
  4  6  2  0
  6  7  1  0
  7  8  1  0
  8  9  1  6
  8 10  1  0
 10 11  1  0
 10 12  1  0
 10 13  1  0
  8 14  1  0
 14 15  1  0
 14 16  1  0
 14 17  1  0
 17 18  1  0
 18 19  2  0
 19 20  1  0
 19 21  1  0
 21 22  1  0
 21 23  1  0
 23 24  1  0
  6 25  1  0
 25 26  1  0
 25 27  2  0
 27 28  1  0
 27  2  1  0
 23 17  2  0
M  END
>  <cnnaffinity>  (1) 
-4.69598

>  <filename>  (1) 
C[C@H](Cc1c[nH]cn1)Sc1cccnc1

$$$$
