
     RDKit          3D

 29 30  0  0  0  0  0  0  0  0999 V2000
    4.9125    1.7812   16.9949 H   0  0  0  0  0  0  0  0  0  0  0  0
    5.4030    1.2946   17.8356 C   0  0  0  0  0  0  0  0  0  0  0  0
    6.5671    0.6822   17.5718 N   0  0  0  0  0  0  0  0  0  0  0  0
    7.1714    0.0554   18.5908 C   0  0  0  0  0  0  0  0  0  0  0  0
    8.1204   -0.4291   18.3731 H   0  0  0  0  0  0  0  0  0  0  0  0
    6.6426   -0.0200   19.8950 C   0  0  0  0  0  0  0  0  0  0  0  0
    7.5049   -0.8471   21.2059 S   0  0  0  0  0  0  0  0  0  0  0  0
    8.4331    0.6063   21.8437 C   0  0  2  0  0  0  0  0  0  0  0  0
    7.8192    1.4918   21.6399 H   0  0  0  0  0  0  0  0  0  0  0  0
    9.7576    0.7506   21.1132 C   0  0  0  0  0  0  0  0  0  0  0  0
   10.2954    1.6444   21.4445 H   0  0  0  0  0  0  0  0  0  0  0  0
   10.3797   -0.1287   21.2990 H   0  0  0  0  0  0  0  0  0  0  0  0
    9.5930    0.8246   20.0373 H   0  0  0  0  0  0  0  0  0  0  0  0
    8.5825    0.4702   23.3538 C   0  0  2  0  0  0  0  0  0  0  0  0
    9.1649   -0.4343   23.5643 H   0  0  0  0  0  0  0  0  0  0  0  0
    7.2508    0.3840   24.1140 C   0  0  0  0  0  0  0  0  0  0  0  0
    6.4606    0.9568   23.5983 H   0  0  0  0  0  0  0  0  0  0  0  0
    6.8984   -0.6502   24.2232 H   0  0  0  0  0  0  0  0  0  0  0  0
    7.4785    0.9334   25.3961 O   0  0  0  0  0  0  0  0  0  0  0  0
    8.6921    1.6674   25.4372 C   0  0  0  0  0  0  0  0  0  0  0  0
    8.4890    2.6813   25.8066 H   0  0  0  0  0  0  0  0  0  0  0  0
    9.3775    1.1708   26.1366 H   0  0  0  0  0  0  0  0  0  0  0  0
    9.2551    1.6764   24.0177 C   0  0  0  0  0  0  0  0  0  0  0  0
    8.9802    2.6016   23.4974 H   0  0  0  0  0  0  0  0  0  0  0  0
   10.3452    1.6029   24.0110 H   0  0  0  0  0  0  0  0  0  0  0  0
    5.4352    0.6448   20.1521 C   0  0  0  0  0  0  0  0  0  0  0  0
    5.0089    0.6296   21.1632 H   0  0  0  0  0  0  0  0  0  0  0  0
    4.8019    1.3115   19.1040 C   0  0  0  0  0  0  0  0  0  0  0  0
    3.8705    1.8467   19.2623 H   0  0  0  0  0  0  0  0  0  0  0  0
  1  2  1  0
  2  3  2  0
  3  4  1  0
  4  5  1  0
  4  6  2  0
  6  7  1  0
  7  8  1  0
  8  9  1  1
  8 10  1  0
 10 11  1  0
 10 12  1  0
 10 13  1  0
  8 14  1  0
 14 15  1  6
 14 16  1  0
 16 17  1  0
 16 18  1  0
 16 19  1  0
 19 20  1  0
 20 21  1  0
 20 22  1  0
 20 23  1  0
 23 24  1  0
 23 25  1  0
  6 26  1  0
 26 27  1  0
 26 28  2  0
 28 29  1  0
 28  2  1  0
 23 14  1  0
M  END
>  <cnnaffinity>  (1) 
-4.50799

>  <filename>  (1) 
C[C@@H](Sc1cccnc1)[C@H]1CCOC1

$$$$
