
     RDKit          3D

 36 37  0  0  0  0  0  0  0  0999 V2000
    9.0220   -1.3322   21.2629 H   0  0  0  0  0  0  0  0  0  0  0  0
    8.5629   -1.5011   20.4171 O   0  0  0  0  0  0  0  0  0  0  0  0
    7.3384   -1.0137   20.9133 C   0  0  2  0  0  0  0  0  0  0  0  0
    6.6406   -0.1408   19.8893 C   0  0  0  0  0  0  0  0  0  0  0  0
    7.2410    0.0083   18.6349 C   0  0  0  0  0  0  0  0  0  0  0  0
    8.1803   -0.4980   18.4367 H   0  0  0  0  0  0  0  0  0  0  0  0
    6.7158    0.7067   17.6183 N   0  0  0  0  0  0  0  0  0  0  0  0
    5.5457    1.3193   17.8410 C   0  0  0  0  0  0  0  0  0  0  0  0
    5.1379    1.8911   17.0087 H   0  0  0  0  0  0  0  0  0  0  0  0
    4.8594    1.2496   19.0584 C   0  0  0  0  0  0  0  0  0  0  0  0
    3.9232    1.7828   19.1740 H   0  0  0  0  0  0  0  0  0  0  0  0
    5.4066    0.4950   20.1029 C   0  0  0  0  0  0  0  0  0  0  0  0
    4.8737    0.4233   21.0565 H   0  0  0  0  0  0  0  0  0  0  0  0
    7.8327   -0.3207   22.0990 N   0  0  0  0  0  0  0  0  0  0  0  0
    7.1109   -0.2070   22.7964 H   0  0  0  0  0  0  0  0  0  0  0  0
    8.5703    0.9418   21.9771 C   0  0  0  0  0  0  0  0  0  0  0  0
    8.9437    1.0421   20.9421 H   0  0  0  0  0  0  0  0  0  0  0  0
    7.6873    2.1741   22.2754 C   0  0  0  0  0  0  0  0  0  0  0  0
    6.7694    2.1381   21.6766 H   0  0  0  0  0  0  0  0  0  0  0  0
    7.3753    2.1390   23.3324 H   0  0  0  0  0  0  0  0  0  0  0  0
    8.4924    3.4559   22.0029 C   0  0  0  0  0  0  0  0  0  0  0  0
    8.7802    3.4110   20.9435 H   0  0  0  0  0  0  0  0  0  0  0  0
    7.8781    4.3554   22.1401 H   0  0  0  0  0  0  0  0  0  0  0  0
    9.7653    3.5203   22.8734 C   0  0  0  0  0  0  0  0  0  0  0  0
   10.3596    4.4130   22.6394 H   0  0  0  0  0  0  0  0  0  0  0  0
    9.4722    3.5978   23.9326 H   0  0  0  0  0  0  0  0  0  0  0  0
   10.6256    2.2543   22.7110 C   0  0  0  0  0  0  0  0  0  0  0  0
   11.0479    2.2353   21.6938 H   0  0  0  0  0  0  0  0  0  0  0  0
   11.4800    2.2836   23.3995 H   0  0  0  0  0  0  0  0  0  0  0  0
    9.7887    0.9768   22.9247 C   0  0  0  0  0  0  0  0  0  0  0  0
   10.4049    0.0822   22.7840 H   0  0  0  0  0  0  0  0  0  0  0  0
    9.4464    0.9328   23.9712 H   0  0  0  0  0  0  0  0  0  0  0  0
    6.4775   -2.1931   21.3390 C   0  0  0  0  0  0  0  0  0  0  0  0
    6.4061   -2.9065   20.5145 H   0  0  0  0  0  0  0  0  0  0  0  0
    6.9549   -2.6863   22.1925 H   0  0  0  0  0  0  0  0  0  0  0  0
    5.4613   -1.8873   21.6042 H   0  0  0  0  0  0  0  0  0  0  0  0
  1  2  1  0
  3  2  1  6
  3  4  1  0
  4  5  2  0
  5  6  1  0
  5  7  1  0
  7  8  2  0
  8  9  1  0
  8 10  1  0
 10 11  1  0
 10 12  2  0
 12 13  1  0
  3 14  1  0
 14 15  1  0
 14 16  1  0
 16 17  1  0
 16 18  1  0
 18 19  1  0
 18 20  1  0
 18 21  1  0
 21 22  1  0
 21 23  1  0
 21 24  1  0
 24 25  1  0
 24 26  1  0
 24 27  1  0
 27 28  1  0
 27 29  1  0
 27 30  1  0
 30 31  1  0
 30 32  1  0
  3 33  1  0
 33 34  1  0
 33 35  1  0
 33 36  1  0
 12  4  1  0
 30 16  1  0
M  END
>  <cnnaffinity>  (1) 
-4.25349

>  <filename>  (1) 
C[C@](O)(NC1CCCCC1)c1cccnc1

$$$$
