
     RDKit          3D

 34 35  0  0  0  0  0  0  0  0999 V2000
    6.9707    1.7102   22.9870 H   0  0  0  0  0  0  0  0  0  0  0  0
    6.3182    1.6693   23.7091 O   0  0  0  0  0  0  0  0  0  0  0  0
    6.5266    0.4981   24.3625 C   0  0  0  0  0  0  0  0  0  0  0  0
    5.6220    0.1906   25.3917 C   0  0  0  0  0  0  0  0  0  0  0  0
    4.8107    0.8860   25.5662 H   0  0  0  0  0  0  0  0  0  0  0  0
    5.7856   -0.9706   26.1534 C   0  0  0  0  0  0  0  0  0  0  0  0
    4.6436   -1.3181   27.4195 Cl  0  0  0  0  0  0  0  0  0  0  0  0
    6.8560   -1.8428   25.9241 C   0  0  0  0  0  0  0  0  0  0  0  0
    6.9892   -2.7316   26.5407 H   0  0  0  0  0  0  0  0  0  0  0  0
    7.7410   -1.5435   24.8841 C   0  0  0  0  0  0  0  0  0  0  0  0
    8.5836   -2.1709   24.6116 H   0  0  0  0  0  0  0  0  0  0  0  0
    7.5736   -0.4043   24.1035 C   0  0  0  0  0  0  0  0  0  0  0  0
    8.5645   -0.2575   23.1129 O   0  0  0  0  0  0  0  0  0  0  0  0
    8.1136    0.3893   21.9435 N   0  0  0  0  0  0  0  0  0  0  0  0
    9.3332    0.8986   21.3138 C   0  0  0  0  0  0  0  0  0  0  0  0
    9.0782    1.2821   20.3239 H   0  0  0  0  0  0  0  0  0  0  0  0
    9.7077    1.7070   21.9415 H   0  0  0  0  0  0  0  0  0  0  0  0
   10.1076    0.1249   21.2513 H   0  0  0  0  0  0  0  0  0  0  0  0
    7.3273   -0.6038   21.1376 C   0  0  1  0  0  0  0  0  0  0  0  0
    6.5346   -0.9051   21.8428 H   0  0  0  0  0  0  0  0  0  0  0  0
    6.6338    0.0526   19.9486 C   0  0  0  0  0  0  0  0  0  0  0  0
    7.1551    0.0547   18.6434 C   0  0  0  0  0  0  0  0  0  0  0  0
    8.0968   -0.4450   18.4038 H   0  0  0  0  0  0  0  0  0  0  0  0
    6.5646    0.6492   17.5929 N   0  0  0  0  0  0  0  0  0  0  0  0
    5.4069    1.2859   17.8171 C   0  0  0  0  0  0  0  0  0  0  0  0
    4.9638    1.7926   16.9629 H   0  0  0  0  0  0  0  0  0  0  0  0
    4.7843    1.3300   19.0678 C   0  0  0  0  0  0  0  0  0  0  0  0
    3.8427    1.8537   19.1854 H   0  0  0  0  0  0  0  0  0  0  0  0
    5.4064    0.7070   20.1479 C   0  0  0  0  0  0  0  0  0  0  0  0
    4.9706    0.7399   21.1494 H   0  0  0  0  0  0  0  0  0  0  0  0
    8.1404   -1.8529   20.7961 C   0  0  0  0  0  0  0  0  0  0  0  0
    8.6247   -2.2251   21.7034 H   0  0  0  0  0  0  0  0  0  0  0  0
    8.9180   -1.6483   20.0495 H   0  0  0  0  0  0  0  0  0  0  0  0
    7.4667   -2.6237   20.4170 H   0  0  0  0  0  0  0  0  0  0  0  0
  1  2  1  0
  2  3  1  0
  3  4  2  0
  4  5  1  0
  4  6  1  0
  6  7  1  0
  6  8  2  0
  8  9  1  0
  8 10  1  0
 10 11  1  0
 10 12  2  0
 12 13  1  0
 13 14  1  0
 14 15  1  0
 15 16  1  0
 15 17  1  0
 15 18  1  0
 14 19  1  0
 19 20  1  1
 19 21  1  0
 21 22  2  0
 22 23  1  0
 22 24  1  0
 24 25  2  0
 25 26  1  0
 25 27  1  0
 27 28  1  0
 27 29  2  0
 29 30  1  0
 19 31  1  0
 31 32  1  0
 31 33  1  0
 31 34  1  0
 12  3  1  0
 29 21  1  0
M  END
>  <cnnaffinity>  (1) 
-4.74092

>  <filename>  (1) 
C[C@H](c1cccnc1)N(C)Oc1ccc(Cl)cc1O

$$$$
