
     RDKit          3D

 38 40  0  0  0  0  0  0  0  0999 V2000
    7.4234   -3.5847   24.4194 C   0  0  0  0  0  0  0  0  0  0  0  0
    7.0191   -2.1137   24.3650 C   0  0  2  0  0  0  0  0  0  0  0  0
    7.5011   -1.5360   23.1016 N   0  0  0  0  0  0  0  0  0  0  0  0
    6.8510   -1.6182   21.9171 C   0  0  0  0  0  0  0  0  0  0  0  0
    5.6276   -2.6747   21.5444 S   0  0  0  0  0  0  0  0  0  0  0  0
    7.3589   -0.6743   21.0518 N   0  0  0  0  0  0  0  0  0  0  0  0
    6.6824   -0.0285   19.9726 C   0  0  0  0  0  0  0  0  0  0  0  0
    5.4599    0.6230   20.1902 C   0  0  0  0  0  0  0  0  0  0  0  0
    4.8488    1.2757   19.1153 C   0  0  0  0  0  0  0  0  0  0  0  0
    5.4697    1.2487   17.8626 C   0  0  0  0  0  0  0  0  0  0  0  0
    6.6411    0.6300   17.6383 N   0  0  0  0  0  0  0  0  0  0  0  0
    7.2327    0.0175   18.6734 C   0  0  0  0  0  0  0  0  0  0  0  0
    8.1851   -0.4789   18.4740 H   0  0  0  0  0  0  0  0  0  0  0  0
    5.0112    1.7439   17.0099 H   0  0  0  0  0  0  0  0  0  0  0  0
    3.9069    1.7962   19.2410 H   0  0  0  0  0  0  0  0  0  0  0  0
    5.0267    0.6078   21.1911 H   0  0  0  0  0  0  0  0  0  0  0  0
    8.3431   -0.5009   21.1816 H   0  0  0  0  0  0  0  0  0  0  0  0
    8.2055   -0.8188   23.1411 H   0  0  0  0  0  0  0  0  0  0  0  0
    7.4644   -1.2789   25.5683 C   0  0  0  0  0  0  0  0  0  0  0  0
    8.4795   -1.6927   26.4191 C   0  0  0  0  0  0  0  0  0  0  0  0
    8.8646   -0.9382   27.5587 C   0  0  0  0  0  0  0  0  0  0  0  0
    8.2164    0.2238   27.8886 C   0  0  0  0  0  0  0  0  0  0  0  0
    7.1632    0.7011   27.0505 C   0  0  0  0  0  0  0  0  0  0  0  0
    6.4585    1.9103   27.3383 C   0  0  0  0  0  0  0  0  0  0  0  0
    5.4829    2.4064   26.6090 N   0  0  0  0  0  0  0  0  0  0  0  0
    5.1396    1.6982   25.5025 C   0  0  0  0  0  0  0  0  0  0  0  0
    5.7327    0.5213   25.1105 C   0  0  0  0  0  0  0  0  0  0  0  0
    6.7904   -0.0371   25.8845 C   0  0  0  0  0  0  0  0  0  0  0  0
    5.3933    0.0193   24.2201 H   0  0  0  0  0  0  0  0  0  0  0  0
    4.3320    2.1171   24.9137 H   0  0  0  0  0  0  0  0  0  0  0  0
    6.7451    2.4702   28.2284 H   0  0  0  0  0  0  0  0  0  0  0  0
    8.4934    0.7644   28.7927 H   0  0  0  0  0  0  0  0  0  0  0  0
    9.6851   -1.2984   28.1715 H   0  0  0  0  0  0  0  0  0  0  0  0
    8.9850   -2.6382   26.2413 H   0  0  0  0  0  0  0  0  0  0  0  0
    5.9203   -2.1056   24.3336 H   0  0  0  0  0  0  0  0  0  0  0  0
    8.5070   -3.6934   24.3127 H   0  0  0  0  0  0  0  0  0  0  0  0
    6.9520   -4.1199   23.5936 H   0  0  0  0  0  0  0  0  0  0  0  0
    7.0924   -4.0293   25.3636 H   0  0  0  0  0  0  0  0  0  0  0  0
  1  2  1  0
  2  3  1  0
  3  4  1  0
  4  5  2  0
  4  6  1  0
  6  7  1  0
  7  8  2  0
  8  9  1  0
  9 10  2  0
 10 11  1  0
 11 12  2  0
 12 13  1  0
 10 14  1  0
  9 15  1  0
  8 16  1  0
  6 17  1  0
  3 18  1  0
  2 19  1  0
 19 20  2  0
 20 21  1  0
 21 22  2  0
 22 23  1  0
 23 24  2  0
 24 25  1  0
 25 26  2  0
 26 27  1  0
 27 28  2  0
 27 29  1  0
 26 30  1  0
 24 31  1  0
 22 32  1  0
 21 33  1  0
 20 34  1  0
  2 35  1  6
  1 36  1  0
  1 37  1  0
  1 38  1  0
 12  7  1  0
 28 19  1  0
 28 23  1  0
M  END
>  <cnnaffinity>  (1) 
-5.01635

>  <filename>  (1) 
C[C@H](NC(=S)Nc1cccnc1)c1cccc2cnccc12

$$$$
