
     RDKit          3D

 29 30  0  0  0  0  0  0  0  0999 V2000
    4.9279    1.7790   16.9977 H   0  0  0  0  0  0  0  0  0  0  0  0
    5.4046    1.2878   17.8446 C   0  0  0  0  0  0  0  0  0  0  0  0
    6.5662    0.6683   17.5882 N   0  0  0  0  0  0  0  0  0  0  0  0
    7.1743    0.0601   18.6078 C   0  0  0  0  0  0  0  0  0  0  0  0
    8.1240   -0.4177   18.3792 H   0  0  0  0  0  0  0  0  0  0  0  0
    6.6473   -0.0094   19.9054 C   0  0  0  0  0  0  0  0  0  0  0  0
    7.4493   -0.7352   20.9376 C   0  0  0  0  0  0  0  0  0  0  0  0
    8.6609   -0.7694   20.8826 O   0  0  0  0  0  0  0  0  0  0  0  0
    6.6950   -1.3864   22.1088 C   0  0  1  0  0  0  0  0  0  0  0  0
    5.6467   -1.4868   21.8103 H   0  0  0  0  0  0  0  0  0  0  0  0
    7.2115   -2.7746   22.2948 C   0  0  0  0  0  0  0  0  0  0  0  0
    6.5254   -3.8446   21.9083 N   0  0  0  0  0  0  0  0  0  0  0  0
    7.3141   -4.8856   22.2242 N   0  0  0  0  0  0  0  0  0  0  0  0
    6.8747   -6.2534   22.0436 C   0  0  0  0  0  0  0  0  0  0  0  0
    6.4702   -6.6850   22.9623 H   0  0  0  0  0  0  0  0  0  0  0  0
    6.1207   -6.2962   21.2595 H   0  0  0  0  0  0  0  0  0  0  0  0
    7.7252   -6.8586   21.7476 H   0  0  0  0  0  0  0  0  0  0  0  0
    8.4786   -4.4989   22.7967 C   0  0  0  0  0  0  0  0  0  0  0  0
    9.2153   -5.2240   23.1215 H   0  0  0  0  0  0  0  0  0  0  0  0
    8.4507   -3.1296   22.8498 C   0  0  0  0  0  0  0  0  0  0  0  0
    9.2093   -2.4504   23.2075 H   0  0  0  0  0  0  0  0  0  0  0  0
    6.8236   -0.5206   23.3871 C   0  0  0  0  0  0  0  0  0  0  0  0
    6.3269   -0.9921   24.2402 H   0  0  0  0  0  0  0  0  0  0  0  0
    6.3833    0.4734   23.2514 H   0  0  0  0  0  0  0  0  0  0  0  0
    7.8765   -0.3716   23.6533 H   0  0  0  0  0  0  0  0  0  0  0  0
    5.4281    0.6412   20.1638 C   0  0  0  0  0  0  0  0  0  0  0  0
    4.9853    0.6415   21.1652 H   0  0  0  0  0  0  0  0  0  0  0  0
    4.8060    1.3099   19.1099 C   0  0  0  0  0  0  0  0  0  0  0  0
    3.8708    1.8446   19.2548 H   0  0  0  0  0  0  0  0  0  0  0  0
  1  2  1  0
  2  3  2  0
  3  4  1  0
  4  5  1  0
  4  6  2  0
  6  7  1  0
  7  8  2  0
  7  9  1  0
  9 10  1  6
  9 11  1  0
 11 12  2  0
 12 13  1  0
 13 14  1  0
 14 15  1  0
 14 16  1  0
 14 17  1  0
 13 18  1  0
 18 19  1  0
 18 20  2  0
 20 21  1  0
  9 22  1  0
 22 23  1  0
 22 24  1  0
 22 25  1  0
  6 26  1  0
 26 27  1  0
 26 28  2  0
 28 29  1  0
 28  2  1  0
 20 11  1  0
M  END
>  <cnnaffinity>  (1) 
-4.20162

>  <filename>  (1) 
C[C@@H](C(=O)c1cccnc1)c1ccn(C)n1

$$$$
