
     RDKit          3D

 34 35  0  0  0  0  0  0  0  0999 V2000
    5.2868    1.6890   17.0822 H   0  0  0  0  0  0  0  0  0  0  0  0
    5.6496    1.2330   18.0020 C   0  0  0  0  0  0  0  0  0  0  0  0
    6.8512    0.6410   17.9344 N   0  0  0  0  0  0  0  0  0  0  0  0
    7.2990    0.0371   19.0464 C   0  0  0  0  0  0  0  0  0  0  0  0
    8.2894   -0.4148   18.9720 H   0  0  0  0  0  0  0  0  0  0  0  0
    6.5734   -0.0691   20.2444 C   0  0  0  0  0  0  0  0  0  0  0  0
    7.0606   -0.9172   21.4093 C   0  0  2  0  0  0  0  0  0  0  0  0
    6.2281   -1.0213   22.1152 H   0  0  0  0  0  0  0  0  0  0  0  0
    8.3848   -0.1180   22.3928 S   0  0  0  0  0  0  0  0  0  0  0  0
    7.5027    1.2414   22.9078 N   0  0  0  0  0  0  0  0  0  0  0  0
    7.3662    1.3910   23.8945 H   0  0  0  0  0  0  0  0  0  0  0  0
    7.5279    2.4079   22.1589 C   0  0  0  0  0  0  0  0  0  0  0  0
    8.1337    2.5491   21.1209 O   0  0  0  0  0  0  0  0  0  0  0  0
    6.7105    3.3426   22.7821 N   0  0  0  0  0  0  0  0  0  0  0  0
    5.8833    2.9036   23.1518 H   0  0  0  0  0  0  0  0  0  0  0  0
    6.4978    4.6137   22.2050 C   0  0  0  0  0  0  0  0  0  0  0  0
    7.5977    5.3757   21.8075 C   0  0  0  0  0  0  0  0  0  0  0  0
    8.5804    4.9202   21.8390 H   0  0  0  0  0  0  0  0  0  0  0  0
    7.4106    6.6638   21.3108 C   0  0  0  0  0  0  0  0  0  0  0  0
    8.2695    7.2689   21.0611 H   0  0  0  0  0  0  0  0  0  0  0  0
    6.1136    7.1710   21.1692 C   0  0  0  0  0  0  0  0  0  0  0  0
    5.8978    8.7823   20.5477 Cl  0  0  0  0  0  0  0  0  0  0  0  0
    5.0002    6.3996   21.5168 C   0  0  0  0  0  0  0  0  0  0  0  0
    3.9946    6.7851   21.3565 H   0  0  0  0  0  0  0  0  0  0  0  0
    5.2034    5.1240   22.0635 C   0  0  0  0  0  0  0  0  0  0  0  0
    4.3606    4.5200   22.3795 H   0  0  0  0  0  0  0  0  0  0  0  0
    7.5431   -2.3046   20.9866 C   0  0  0  0  0  0  0  0  0  0  0  0
    8.4761   -2.2354   20.4181 H   0  0  0  0  0  0  0  0  0  0  0  0
    7.7283   -2.9410   21.8579 H   0  0  0  0  0  0  0  0  0  0  0  0
    6.7788   -2.7786   20.3586 H   0  0  0  0  0  0  0  0  0  0  0  0
    5.3490    0.6169   20.3068 C   0  0  0  0  0  0  0  0  0  0  0  0
    4.7841    0.6329   21.2407 H   0  0  0  0  0  0  0  0  0  0  0  0
    4.8768    1.2746   19.1666 C   0  0  0  0  0  0  0  0  0  0  0  0
    3.9316    1.8063   19.1630 H   0  0  0  0  0  0  0  0  0  0  0  0
  1  2  1  0
  2  3  2  0
  3  4  1  0
  4  5  1  0
  4  6  2  0
  6  7  1  0
  7  8  1  1
  7  9  1  0
  9 10  1  0
 10 11  1  0
 10 12  1  0
 12 13  2  0
 12 14  1  0
 14 15  1  0
 14 16  1  0
 16 17  2  0
 17 18  1  0
 17 19  1  0
 19 20  1  0
 19 21  2  0
 21 22  1  0
 21 23  1  0
 23 24  1  0
 23 25  2  0
 25 26  1  0
  7 27  1  0
 27 28  1  0
 27 29  1  0
 27 30  1  0
  6 31  1  0
 31 32  1  0
 31 33  2  0
 33 34  1  0
 33  2  1  0
 25 16  1  0
M  END
>  <cnnaffinity>  (1) 
-4.66241

>  <filename>  (1) 
C[C@@H](SNC(=O)Nc1ccc(Cl)cc1)c1cccnc1

$$$$
