
     RDKit          3D

 43 45  0  0  0  0  0  0  0  0999 V2000
    6.6080   -1.9300   21.5130 C   0  0  0  0  0  0  0  0  0  0  0  0
    7.4181   -0.7950   20.9270 C   0  0  2  0  0  0  0  0  0  0  0  0
    7.7891    0.1291   22.0636 N   0  0  0  0  0  4  0  0  0  0  0  0
    8.7641    1.2567   21.7124 C   0  0  0  0  0  0  0  0  0  0  0  0
    9.2320    2.1732   22.8565 C   0  0  0  0  0  0  0  0  0  0  0  0
   10.2941    1.9677   23.4132 O   0  0  0  0  0  0  0  0  0  0  0  0
    8.3879    3.2047   23.1764 N   0  0  0  0  0  0  0  0  0  0  0  0
    8.6581    4.1476   24.1992 C   0  0  0  0  0  0  0  0  0  0  0  0
    9.9086    4.7237   24.2262 C   0  0  0  0  0  0  0  0  0  0  0  0
   10.2425    5.6899   25.2056 C   0  0  0  0  0  0  0  0  0  0  0  0
    9.3138    6.0488   26.1542 C   0  0  0  0  0  0  0  0  0  0  0  0
    8.0057    5.4711   26.1676 C   0  0  0  0  0  0  0  0  0  0  0  0
    7.0388    5.8397   27.1496 C   0  0  0  0  0  0  0  0  0  0  0  0
    5.7871    5.2715   27.1664 C   0  0  0  0  0  0  0  0  0  0  0  0
    5.4388    4.2931   26.1986 C   0  0  0  0  0  0  0  0  0  0  0  0
    6.3460    3.9138   25.2356 C   0  0  0  0  0  0  0  0  0  0  0  0
    7.6553    4.4938   25.1765 C   0  0  0  0  0  0  0  0  0  0  0  0
    6.0638    3.1479   24.5175 H   0  0  0  0  0  0  0  0  0  0  0  0
    4.4478    3.8459   26.2250 H   0  0  0  0  0  0  0  0  0  0  0  0
    5.0624    5.5681   27.9185 H   0  0  0  0  0  0  0  0  0  0  0  0
    7.3220    6.5871   27.8838 H   0  0  0  0  0  0  0  0  0  0  0  0
    9.5621    6.7801   26.9146 H   0  0  0  0  0  0  0  0  0  0  0  0
   11.2442    6.1184   25.1946 H   0  0  0  0  0  0  0  0  0  0  0  0
   10.6287    4.4117   23.4774 H   0  0  0  0  0  0  0  0  0  0  0  0
    7.5211    3.2890   22.6713 H   0  0  0  0  0  0  0  0  0  0  0  0
    9.7022    0.8602   21.3164 H   0  0  0  0  0  0  0  0  0  0  0  0
    8.3111    1.8492   20.9129 H   0  0  0  0  0  0  0  0  0  0  0  0
    6.8415    0.5194   22.3284 H   0  0  0  0  0  0  0  0  0  0  0  0
    8.1627   -0.4356   22.8602 H   0  0  0  0  0  0  0  0  0  0  0  0
    6.6491   -0.0029   19.8973 C   0  0  0  0  0  0  0  0  0  0  0  0
    5.4365    0.6601   20.1510 C   0  0  0  0  0  0  0  0  0  0  0  0
    4.8034    1.3219   19.0960 C   0  0  0  0  0  0  0  0  0  0  0  0
    5.4016    1.3052   17.8313 C   0  0  0  0  0  0  0  0  0  0  0  0
    6.5649    0.6903   17.5782 N   0  0  0  0  0  0  0  0  0  0  0  0
    7.1614    0.0664   18.5996 C   0  0  0  0  0  0  0  0  0  0  0  0
    8.1176   -0.4119   18.3778 H   0  0  0  0  0  0  0  0  0  0  0  0
    4.9312    1.8040   16.9841 H   0  0  0  0  0  0  0  0  0  0  0  0
    3.8682    1.8551   19.2364 H   0  0  0  0  0  0  0  0  0  0  0  0
    4.9750    0.6621   21.1421 H   0  0  0  0  0  0  0  0  0  0  0  0
    8.3384   -1.1611   20.4611 H   0  0  0  0  0  0  0  0  0  0  0  0
    5.7174   -1.5324   21.9990 H   0  0  0  0  0  0  0  0  0  0  0  0
    7.1816   -2.4939   22.2542 H   0  0  0  0  0  0  0  0  0  0  0  0
    6.2751   -2.6069   20.7270 H   0  0  0  0  0  0  0  0  0  0  0  0
  1  2  1  0
  2  3  1  0
  3  4  1  0
  4  5  1  0
  5  6  2  0
  5  7  1  0
  7  8  1  0
  8  9  2  0
  9 10  1  0
 10 11  2  0
 11 12  1  0
 12 13  2  0
 13 14  1  0
 14 15  2  0
 15 16  1  0
 16 17  2  0
 16 18  1  0
 15 19  1  0
 14 20  1  0
 13 21  1  0
 11 22  1  0
 10 23  1  0
  9 24  1  0
  7 25  1  0
  4 26  1  0
  4 27  1  0
  3 28  1  0
  3 29  1  0
  2 30  1  0
 30 31  2  0
 31 32  1  0
 32 33  2  0
 33 34  1  0
 34 35  2  0
 35 36  1  0
 33 37  1  0
 32 38  1  0
 31 39  1  0
  2 40  1  6
  1 41  1  0
  1 42  1  0
  1 43  1  0
 17  8  1  0
 35 30  1  0
 17 12  1  0
M  CHG  1   3   1
M  END
>  <cnnaffinity>  (1) 
-4.86441

>  <filename>  (1) 
C[C@H]([NH2+]CC(=O)Nc1cccc2ccccc12)c1cccnc1

$$$$
