
     RDKit          3D

 31 32  0  0  0  0  0  0  0  0999 V2000
    5.1736    1.8755   16.8956 H   0  0  0  0  0  0  0  0  0  0  0  0
    5.5619    1.3298   17.7543 C   0  0  0  0  0  0  0  0  0  0  0  0
    6.6761    0.6098   17.5429 N   0  0  0  0  0  0  0  0  0  0  0  0
    7.1825   -0.0566   18.5861 C   0  0  0  0  0  0  0  0  0  0  0  0
    8.0920   -0.6323   18.4060 H   0  0  0  0  0  0  0  0  0  0  0  0
    6.6020   -0.0433   19.8513 C   0  0  0  0  0  0  0  0  0  0  0  0
    7.3887   -1.0361   21.1036 S   0  0  0  0  0  4  0  0  0  0  0  0
    6.3970   -1.9716   21.6893 O   0  0  0  0  0  0  0  0  0  0  0  0
    7.4393    0.1374   22.3070 N   0  0  0  0  0  0  0  0  0  0  0  0
    7.0398   -0.3978   23.0788 H   0  0  0  0  0  0  0  0  0  0  0  0
    8.7339    0.8370   22.5541 C   0  0  1  0  0  0  0  0  0  0  0  0
    8.5210    1.4898   23.4303 H   0  0  0  0  0  0  0  0  0  0  0  0
    9.9716   -0.0915   22.7241 C   0  0  0  0  0  0  0  0  0  0  0  0
   10.6774   -0.2054   24.0629 C   0  0  0  0  0  0  0  0  0  0  0  0
    9.7174   -0.4656   24.8424 H   0  0  0  0  0  0  0  0  0  0  0  0
   10.5850   -0.3319   24.0020 C   0  0  0  0  0  0  0  0  0  0  0  0
   11.7505   -0.3057   24.5869 H   0  0  0  0  0  0  0  0  0  0  0  0
   11.7546   -1.7355   21.8305 C   0  0  0  0  0  0  0  0  0  0  0  0
   11.2912   -2.7220   22.2451 H   0  0  0  0  0  0  0  0  0  0  0  0
   11.8232   -1.3531   21.7760 C   0  0  0  0  0  0  0  0  0  0  0  0
   12.9887   -1.6781   21.6842 H   0  0  0  0  0  0  0  0  0  0  0  0
   10.8186   -0.5832   21.4605 C   0  0  0  0  0  0  0  0  0  0  0  0
   11.5929    0.1146   21.2995 H   0  0  0  0  0  0  0  0  0  0  0  0
    8.9254    1.8266   21.3800 C   0  0  0  0  0  0  0  0  0  0  0  0
    7.9734    2.3222   21.1284 H   0  0  0  0  0  0  0  0  0  0  0  0
    9.2675    1.3045   20.4782 H   0  0  0  0  0  0  0  0  0  0  0  0
    9.6343    2.6292   21.6274 H   0  0  0  0  0  0  0  0  0  0  0  0
    5.4424    0.6980   20.0811 C   0  0  0  0  0  0  0  0  0  0  0  0
    4.9679    0.7309   21.0636 H   0  0  0  0  0  0  0  0  0  0  0  0
    4.9133    1.3978   18.9938 C   0  0  0  0  0  0  0  0  0  0  0  0
    4.0202    2.0036   19.0964 H   0  0  0  0  0  0  0  0  0  0  0  0
  1  2  1  0
  2  3  2  0
  3  4  1  0
  4  5  1  0
  4  6  2  0
  6  7  1  0
  7  8  2  0
  7  9  1  1
  9 10  1  0
  9 11  1  0
 11 12  1  1
 11 13  1  0
 13 14  2  0
 14 15  1  0
 14 16  1  0
 16 17  1  0
 16 18  2  0
 18 19  1  0
 18 20  1  0
 20 21  1  0
 20 22  2  0
 22 23  1  0
 11 24  1  0
 24 25  1  0
 24 26  1  0
 24 27  1  0
  6 28  1  0
 28 29  1  0
 28 30  2  0
 30 31  1  0
 30  2  1  0
 22 13  1  0
M  END
>  <cnnaffinity>  (1) 
-4.7774

>  <filename>  (1) 
C[C@@H](N[S@@](=O)c1cccnc1)c1ccccc1

$$$$
