
     RDKit          3D

 33 34  0  0  0  0  0  0  0  0999 V2000
    4.9491    1.7897   16.9659 H   0  0  0  0  0  0  0  0  0  0  0  0
    5.3975    1.2921   17.8231 C   0  0  0  0  0  0  0  0  0  0  0  0
    6.5601    0.6642   17.5991 N   0  0  0  0  0  0  0  0  0  0  0  0
    7.1657    0.0779   18.6373 C   0  0  0  0  0  0  0  0  0  0  0  0
    8.1132   -0.4101   18.4142 H   0  0  0  0  0  0  0  0  0  0  0  0
    6.6392    0.0721   19.9419 C   0  0  0  0  0  0  0  0  0  0  0  0
    7.3314   -0.7049   21.0367 C   0  0  2  0  0  0  0  0  0  0  0  0
    7.1094   -0.2670   22.0195 H   0  0  0  0  0  0  0  0  0  0  0  0
    8.7140   -0.5882   20.8711 F   0  0  0  0  0  0  0  0  0  0  0  0
    6.9593   -2.1877   20.9821 C   0  0  0  0  0  0  0  0  0  0  0  0
    5.8733   -2.2628   21.1228 H   0  0  0  0  0  0  0  0  0  0  0  0
    7.1635   -2.5116   19.9620 H   0  0  0  0  0  0  0  0  0  0  0  0
    7.6800   -3.0737   22.0238 C   0  0  1  0  0  0  0  0  0  0  0  0
    8.7575   -2.8714   21.9605 H   0  0  0  0  0  0  0  0  0  0  0  0
    7.2178   -2.6796   23.4202 C   0  0  0  0  0  0  0  0  0  0  0  0
    8.1005   -2.1409   24.3707 C   0  0  0  0  0  0  0  0  0  0  0  0
    9.1504   -2.0190   24.1108 H   0  0  0  0  0  0  0  0  0  0  0  0
    7.6448   -1.7295   25.6297 C   0  0  0  0  0  0  0  0  0  0  0  0
    8.3397   -1.2964   26.3468 H   0  0  0  0  0  0  0  0  0  0  0  0
    6.2896   -1.8556   25.9576 C   0  0  0  0  0  0  0  0  0  0  0  0
    5.9258   -1.5336   26.9314 H   0  0  0  0  0  0  0  0  0  0  0  0
    5.4018   -2.4020   25.0255 C   0  0  0  0  0  0  0  0  0  0  0  0
    4.3409   -2.4802   25.2553 H   0  0  0  0  0  0  0  0  0  0  0  0
    5.8650   -2.8113   23.7737 C   0  0  0  0  0  0  0  0  0  0  0  0
    5.1550   -3.1986   23.0469 H   0  0  0  0  0  0  0  0  0  0  0  0
    7.4745   -4.5764   21.7559 C   0  0  0  0  0  0  0  0  0  0  0  0
    7.9133   -4.8701   20.7966 H   0  0  0  0  0  0  0  0  0  0  0  0
    6.4098   -4.8414   21.7341 H   0  0  0  0  0  0  0  0  0  0  0  0
    7.9511   -5.1851   22.5334 H   0  0  0  0  0  0  0  0  0  0  0  0
    5.4082    0.7119   20.1493 C   0  0  0  0  0  0  0  0  0  0  0  0
    4.9452    0.7232   21.1360 H   0  0  0  0  0  0  0  0  0  0  0  0
    4.7748    1.3329   19.0732 C   0  0  0  0  0  0  0  0  0  0  0  0
    3.8292    1.8649   19.1905 H   0  0  0  0  0  0  0  0  0  0  0  0
  1  2  1  0
  2  3  2  0
  3  4  1  0
  4  5  1  0
  4  6  2  0
  6  7  1  0
  7  8  1  1
  7  9  1  0
  7 10  1  0
 10 11  1  0
 10 12  1  0
 10 13  1  0
 13 14  1  1
 13 15  1  0
 15 16  2  0
 16 17  1  0
 16 18  1  0
 18 19  1  0
 18 20  2  0
 20 21  1  0
 20 22  1  0
 22 23  1  0
 22 24  2  0
 24 25  1  0
 13 26  1  0
 26 27  1  0
 26 28  1  0
 26 29  1  0
  6 30  1  0
 30 31  1  0
 30 32  2  0
 32 33  1  0
 32  2  1  0
 24 15  1  0
M  END
>  <cnnaffinity>  (1) 
-4.76976

>  <filename>  (1) 
C[C@@H](C[C@@H](F)c1cccnc1)c1ccccc1

$$$$
