
     RDKit          3D

 32 34  0  0  0  0  0  0  0  0999 V2000
    4.9166    1.7866   16.9905 H   0  0  0  0  0  0  0  0  0  0  0  0
    5.3987    1.2963   17.8326 C   0  0  0  0  0  0  0  0  0  0  0  0
    6.5635    0.6825   17.5712 N   0  0  0  0  0  0  0  0  0  0  0  0
    7.1604    0.0679   18.5985 C   0  0  0  0  0  0  0  0  0  0  0  0
    8.1076   -0.4167   18.3661 H   0  0  0  0  0  0  0  0  0  0  0  0
    6.6474   -0.0053   19.9029 C   0  0  0  0  0  0  0  0  0  0  0  0
    7.4566   -0.7053   20.9810 C   0  0  1  0  0  0  0  0  0  0  0  0
    8.0912   -1.4464   20.4755 H   0  0  0  0  0  0  0  0  0  0  0  0
    8.3920    0.2787   21.6783 C   0  0  0  0  0  0  0  0  0  0  0  0
    7.8995    1.3628   22.4829 C   0  0  0  0  0  0  0  0  0  0  0  0
    6.8216    1.4873   22.6045 H   0  0  0  0  0  0  0  0  0  0  0  0
    8.6437    2.2491   23.1108 N   0  0  0  0  0  0  0  0  0  0  0  0
   10.0036    2.1322   22.9656 C   0  0  0  0  0  0  0  0  0  0  0  0
   10.8601    3.0650   23.6261 C   0  0  0  0  0  0  0  0  0  0  0  0
   10.3789    3.8352   24.2141 H   0  0  0  0  0  0  0  0  0  0  0  0
   12.2316    2.9716   23.4926 C   0  0  0  0  0  0  0  0  0  0  0  0
   12.8818    3.6996   23.9684 H   0  0  0  0  0  0  0  0  0  0  0  0
   12.8220    1.9364   22.7128 C   0  0  0  0  0  0  0  0  0  0  0  0
   13.9071    1.8763   22.6234 H   0  0  0  0  0  0  0  0  0  0  0  0
   12.0231    1.0171   22.0781 C   0  0  0  0  0  0  0  0  0  0  0  0
   12.4317    0.1797   21.5245 H   0  0  0  0  0  0  0  0  0  0  0  0
   10.6066    1.1017   22.1754 C   0  0  0  0  0  0  0  0  0  0  0  0
    9.7521    0.1709   21.5239 C   0  0  0  0  0  0  0  0  0  0  0  0
   10.1907   -0.6272   20.9161 H   0  0  0  0  0  0  0  0  0  0  0  0
    6.5876   -1.4882   21.9695 C   0  0  0  0  0  0  0  0  0  0  0  0
    5.8714   -2.1274   21.4385 H   0  0  0  0  0  0  0  0  0  0  0  0
    7.2059   -2.1109   22.6249 H   0  0  0  0  0  0  0  0  0  0  0  0
    6.0426   -0.7965   22.6137 H   0  0  0  0  0  0  0  0  0  0  0  0
    5.4341    0.6490   20.1529 C   0  0  0  0  0  0  0  0  0  0  0  0
    4.9852    0.6371   21.1506 H   0  0  0  0  0  0  0  0  0  0  0  0
    4.8052    1.3126   19.0979 C   0  0  0  0  0  0  0  0  0  0  0  0
    3.8746    1.8434   19.2527 H   0  0  0  0  0  0  0  0  0  0  0  0
  1  2  1  0
  2  3  2  0
  3  4  1  0
  4  5  1  0
  4  6  2  0
  6  7  1  0
  7  8  1  6
  7  9  1  0
  9 10  2  0
 10 11  1  0
 10 12  1  0
 12 13  2  0
 13 14  1  0
 14 15  1  0
 14 16  2  0
 16 17  1  0
 16 18  1  0
 18 19  1  0
 18 20  2  0
 20 21  1  0
 20 22  1  0
 22 23  2  0
 23 24  1  0
  7 25  1  0
 25 26  1  0
 25 27  1  0
 25 28  1  0
  6 29  1  0
 29 30  1  0
 29 31  2  0
 31 32  1  0
 31  2  1  0
 23  9  1  0
 22 13  1  0
M  END
>  <cnnaffinity>  (1) 
-5.00139

>  <filename>  (1) 
C[C@@H](c1cccnc1)c1cnc2ccccc2c1

$$$$
