
     RDKit          3D

 38 39  0  0  0  0  0  0  0  0999 V2000
    4.9723    1.7210   16.8481 H   0  0  0  0  0  0  0  0  0  0  0  0
    5.4147    1.3255   17.7636 C   0  0  0  0  0  0  0  0  0  0  0  0
    6.6129    0.7353   17.6457 N   0  0  0  0  0  0  0  0  0  0  0  0
    7.1835    0.2650   18.7647 C   0  0  0  0  0  0  0  0  0  0  0  0
    8.1588   -0.2064   18.6179 H   0  0  0  0  0  0  0  0  0  0  0  0
    6.6059    0.3402   20.0417 C   0  0  0  0  0  0  0  0  0  0  0  0
    7.3078   -0.2839   21.2422 C   0  0  2  0  0  0  0  0  0  0  0  0
    6.5823    0.0482   22.4017 F   0  0  0  0  0  0  0  0  0  0  0  0
    8.7165    0.2701   21.4354 C   0  0  0  0  0  0  0  0  0  0  0  0
    9.1851   -0.1826   22.3127 H   0  0  0  0  0  0  0  0  0  0  0  0
    8.6807    1.3539   21.5838 H   0  0  0  0  0  0  0  0  0  0  0  0
    9.3450    0.0558   20.5663 H   0  0  0  0  0  0  0  0  0  0  0  0
    7.2587   -1.8048   21.1073 C   0  0  0  0  0  0  0  0  0  0  0  0
    6.2167   -2.0605   20.8855 H   0  0  0  0  0  0  0  0  0  0  0  0
    7.8508   -2.0993   20.2334 H   0  0  0  0  0  0  0  0  0  0  0  0
    7.7232   -2.6095   22.3187 C   0  0  0  0  0  0  0  0  0  0  0  0
    8.7760   -2.3673   22.5284 H   0  0  0  0  0  0  0  0  0  0  0  0
    7.1438   -2.3133   23.2204 H   0  0  0  0  0  0  0  0  0  0  0  0
    7.6548   -4.0311   22.0291 N   0  0  0  0  0  0  0  0  0  0  0  0
    8.1201   -4.9203   23.0892 C   0  0  0  0  0  0  0  0  0  0  0  0
    9.2161   -4.9045   23.1309 H   0  0  0  0  0  0  0  0  0  0  0  0
    7.7514   -4.6107   24.0910 H   0  0  0  0  0  0  0  0  0  0  0  0
    7.5348   -6.3083   22.7235 C   0  0  0  0  0  0  0  0  0  0  0  0
    8.2816   -7.1041   22.6340 H   0  0  0  0  0  0  0  0  0  0  0  0
    6.8314   -6.5959   23.5077 H   0  0  0  0  0  0  0  0  0  0  0  0
    6.7935   -6.0687   21.3995 C   0  0  0  0  0  0  0  0  0  0  0  0
    5.9028   -6.6913   21.2783 H   0  0  0  0  0  0  0  0  0  0  0  0
    7.4554   -6.2370   20.5435 H   0  0  0  0  0  0  0  0  0  0  0  0
    6.4180   -4.5913   21.4735 C   0  0  1  0  0  0  0  0  0  0  0  0
    6.2393   -4.1934   20.4617 H   0  0  0  0  0  0  0  0  0  0  0  0
    5.1605   -4.3697   22.3334 C   0  0  0  0  0  0  0  0  0  0  0  0
    4.8361   -3.3271   22.3433 H   0  0  0  0  0  0  0  0  0  0  0  0
    4.3253   -4.9757   21.9695 H   0  0  0  0  0  0  0  0  0  0  0  0
    5.3361   -4.6581   23.3761 H   0  0  0  0  0  0  0  0  0  0  0  0
    5.3375    0.9359   20.1375 C   0  0  0  0  0  0  0  0  0  0  0  0
    4.8517    1.0060   21.1102 H   0  0  0  0  0  0  0  0  0  0  0  0
    4.7368    1.4397   18.9822 C   0  0  0  0  0  0  0  0  0  0  0  0
    3.7685    1.9288   19.0238 H   0  0  0  0  0  0  0  0  0  0  0  0
  1  2  1  0
  2  3  2  0
  3  4  1  0
  4  5  1  0
  4  6  2  0
  6  7  1  0
  7  8  1  1
  7  9  1  0
  9 10  1  0
  9 11  1  0
  9 12  1  0
  7 13  1  0
 13 14  1  0
 13 15  1  0
 13 16  1  0
 16 17  1  0
 16 18  1  0
 16 19  1  0
 19 20  1  0
 20 21  1  0
 20 22  1  0
 20 23  1  0
 23 24  1  0
 23 25  1  0
 23 26  1  0
 26 27  1  0
 26 28  1  0
 26 29  1  0
 29 30  1  6
 29 31  1  0
 31 32  1  0
 31 33  1  0
 31 34  1  0
  6 35  1  0
 35 36  1  0
 35 37  2  0
 37 38  1  0
 37  2  1  0
 29 19  1  0
M  END
>  <cnnaffinity>  (1) 
-4.74328

>  <filename>  (1) 
C[C@@H]1CCCN1CC[C@](C)(F)c1cccnc1

$$$$
