
     RDKit          3D

 32 33  0  0  0  0  0  0  0  0999 V2000
    4.9217    1.7811   17.0008 H   0  0  0  0  0  0  0  0  0  0  0  0
    5.4006    1.2902   17.8483 C   0  0  0  0  0  0  0  0  0  0  0  0
    6.5681    0.6725   17.5997 N   0  0  0  0  0  0  0  0  0  0  0  0
    7.1790    0.0537   18.6172 C   0  0  0  0  0  0  0  0  0  0  0  0
    8.1222   -0.4354   18.3953 H   0  0  0  0  0  0  0  0  0  0  0  0
    6.6683   -0.0065   19.9367 C   0  0  0  0  0  0  0  0  0  0  0  0
    7.4088   -0.7341   20.8300 O   0  0  0  0  0  0  0  0  0  0  0  0
    7.1762   -0.6888   22.2448 C   0  0  2  0  0  0  0  0  0  0  0  0
    6.1116   -0.5696   22.4765 H   0  0  0  0  0  0  0  0  0  0  0  0
    7.8902    0.3880   22.8682 N   0  0  0  0  0  0  0  0  0  0  0  0
    8.8265    0.3796   22.4802 H   0  0  0  0  0  0  0  0  0  0  0  0
    7.3021    1.7084   22.7110 C   0  0  0  0  0  0  0  0  0  0  0  0
    7.3108    2.0758   21.6714 H   0  0  0  0  0  0  0  0  0  0  0  0
    6.2531    1.6437   23.0307 H   0  0  0  0  0  0  0  0  0  0  0  0
    8.0112    2.7146   23.5899 C   0  0  0  0  0  0  0  0  0  0  0  0
    7.6732    2.8825   24.9383 C   0  0  0  0  0  0  0  0  0  0  0  0
    6.8854    2.2953   25.3948 H   0  0  0  0  0  0  0  0  0  0  0  0
    8.3829    3.8040   25.7092 C   0  0  0  0  0  0  0  0  0  0  0  0
    8.1329    3.9396   26.7589 H   0  0  0  0  0  0  0  0  0  0  0  0
    9.3829    4.5596   25.2403 N   0  0  0  0  0  0  0  0  0  0  0  0
    9.6980    4.4002   23.9503 C   0  0  0  0  0  0  0  0  0  0  0  0
   10.5121    5.0146   23.5738 H   0  0  0  0  0  0  0  0  0  0  0  0
    9.0525    3.5060   23.0953 C   0  0  0  0  0  0  0  0  0  0  0  0
    9.3742    3.4299   22.0637 H   0  0  0  0  0  0  0  0  0  0  0  0
    7.6703   -2.0022   22.8066 C   0  0  0  0  0  0  0  0  0  0  0  0
    7.1079   -2.8280   22.3670 H   0  0  0  0  0  0  0  0  0  0  0  0
    8.7340   -2.1354   22.5830 H   0  0  0  0  0  0  0  0  0  0  0  0
    7.5353   -2.0247   23.8916 H   0  0  0  0  0  0  0  0  0  0  0  0
    5.4514    0.6395   20.1856 C   0  0  0  0  0  0  0  0  0  0  0  0
    5.0053    0.6360   21.1817 H   0  0  0  0  0  0  0  0  0  0  0  0
    4.8169    1.3003   19.1163 C   0  0  0  0  0  0  0  0  0  0  0  0
    3.8855    1.8333   19.2591 H   0  0  0  0  0  0  0  0  0  0  0  0
  1  2  1  0
  2  3  2  0
  3  4  1  0
  4  5  1  0
  4  6  2  0
  6  7  1  0
  7  8  1  0
  8  9  1  6
  8 10  1  0
 10 11  1  0
 10 12  1  0
 12 13  1  0
 12 14  1  0
 12 15  1  0
 15 16  2  0
 16 17  1  0
 16 18  1  0
 18 19  1  0
 18 20  2  0
 20 21  1  0
 21 22  1  0
 21 23  2  0
 23 24  1  0
  8 25  1  0
 25 26  1  0
 25 27  1  0
 25 28  1  0
  6 29  1  0
 29 30  1  0
 29 31  2  0
 31 32  1  0
 31  2  1  0
 23 15  1  0
M  END
>  <cnnaffinity>  (1) 
-4.37586

>  <filename>  (1) 
C[C@@H](NCc1ccncc1)Oc1cccnc1

$$$$
