
     RDKit          3D

 31 32  0  0  0  0  0  0  0  0999 V2000
    4.9442    1.7845   17.0017 H   0  0  0  0  0  0  0  0  0  0  0  0
    5.4129    1.2821   17.8454 C   0  0  0  0  0  0  0  0  0  0  0  0
    6.5722    0.6531   17.5871 N   0  0  0  0  0  0  0  0  0  0  0  0
    7.1992    0.0501   18.6085 C   0  0  0  0  0  0  0  0  0  0  0  0
    8.1467   -0.4376   18.3906 H   0  0  0  0  0  0  0  0  0  0  0  0
    6.6815    0.0320   19.9161 C   0  0  0  0  0  0  0  0  0  0  0  0
    7.4344   -0.5450   20.9478 O   0  0  0  0  0  0  0  0  0  0  0  0
    6.8238   -1.3802   21.8462 C   0  0  0  0  0  0  0  0  0  0  0  0
    5.7679   -1.9199   21.6357 O   0  0  0  0  0  0  0  0  0  0  0  0
    7.6912   -1.6044   23.1396 C   0  0  1  0  0  0  0  0  0  0  0  0
    8.7334   -1.5277   22.8179 H   0  0  0  0  0  0  0  0  0  0  0  0
    7.5686   -0.5637   24.1930 N   0  0  0  0  0  0  0  0  0  0  0  0
    8.6069   -0.2938   25.0606 C   0  0  0  0  0  0  0  0  0  0  0  0
    9.7495   -0.7016   24.9483 O   0  0  0  0  0  0  0  0  0  0  0  0
    8.0826    0.5943   26.1828 C   0  0  0  0  0  0  0  0  0  0  0  0
    8.2414    0.0632   27.1289 H   0  0  0  0  0  0  0  0  0  0  0  0
    8.6998    1.4982   26.2309 H   0  0  0  0  0  0  0  0  0  0  0  0
    6.6015    0.8569   25.8464 C   0  0  0  0  0  0  0  0  0  0  0  0
    5.9317    0.6719   26.6918 H   0  0  0  0  0  0  0  0  0  0  0  0
    6.4263    1.8961   25.5507 H   0  0  0  0  0  0  0  0  0  0  0  0
    6.2714   -0.0922   24.6613 C   0  0  0  0  0  0  0  0  0  0  0  0
    5.7495    0.4232   23.8479 H   0  0  0  0  0  0  0  0  0  0  0  0
    5.6264   -0.9296   24.9699 H   0  0  0  0  0  0  0  0  0  0  0  0
    7.4135   -2.9983   23.7338 C   0  0  0  0  0  0  0  0  0  0  0  0
    6.3812   -3.0697   24.0995 H   0  0  0  0  0  0  0  0  0  0  0  0
    7.5448   -3.7612   22.9623 H   0  0  0  0  0  0  0  0  0  0  0  0
    8.0994   -3.2187   24.5587 H   0  0  0  0  0  0  0  0  0  0  0  0
    5.4550    0.6447   20.1693 C   0  0  0  0  0  0  0  0  0  0  0  0
    5.0145    0.6099   21.1628 H   0  0  0  0  0  0  0  0  0  0  0  0
    4.8220    1.3010   19.1120 C   0  0  0  0  0  0  0  0  0  0  0  0
    3.8913    1.8323   19.2594 H   0  0  0  0  0  0  0  0  0  0  0  0
  1  2  1  0
  2  3  2  0
  3  4  1  0
  4  5  1  0
  4  6  2  0
  6  7  1  0
  7  8  1  0
  8  9  2  0
  8 10  1  0
 10 11  1  6
 10 12  1  0
 12 13  1  0
 13 14  2  0
 13 15  1  0
 15 16  1  0
 15 17  1  0
 15 18  1  0
 18 19  1  0
 18 20  1  0
 18 21  1  0
 21 22  1  0
 21 23  1  0
 10 24  1  0
 24 25  1  0
 24 26  1  0
 24 27  1  0
  6 28  1  0
 28 29  1  0
 28 30  2  0
 30 31  1  0
 30  2  1  0
 21 12  1  0
M  END
>  <cnnaffinity>  (1) 
-4.57682

>  <filename>  (1) 
C[C@@H](C(=O)Oc1cccnc1)N1CCCC1=O

$$$$
