
     RDKit          3D

 44 47  0  0  0  0  0  0  0  0999 V2000
    5.1853    1.8912   16.7589 H   0  0  0  0  0  0  0  0  0  0  0  0
    5.5481    1.3534   17.6318 C   0  0  0  0  0  0  0  0  0  0  0  0
    6.6658    0.6356   17.4530 N   0  0  0  0  0  0  0  0  0  0  0  0
    7.1327   -0.0475   18.5003 C   0  0  0  0  0  0  0  0  0  0  0  0
    8.0432   -0.6185   18.3336 H   0  0  0  0  0  0  0  0  0  0  0  0
    6.5114   -0.0535   19.7672 C   0  0  0  0  0  0  0  0  0  0  0  0
    7.0962   -0.8858   20.8277 C   0  0  0  0  0  0  0  0  0  0  0  0
    7.9587   -1.8251   20.5741 N   0  0  0  0  0  0  0  0  0  0  0  0
    8.3717   -2.4940   21.6805 N   0  0  0  0  0  0  0  0  0  0  0  0
    7.8506   -2.0357   22.7785 C   0  0  0  0  0  0  0  0  0  0  0  0
    8.3305   -2.5260   24.1086 C   0  0  0  0  0  0  0  0  0  0  0  0
    8.3619   -4.0407   24.3029 C   0  0  0  0  0  0  0  0  0  0  0  0
    8.8170   -4.2752   25.2764 H   0  0  0  0  0  0  0  0  0  0  0  0
    9.0178   -4.4674   23.5344 H   0  0  0  0  0  0  0  0  0  0  0  0
    7.0166   -4.7534   24.2396 C   0  0  0  0  0  0  0  0  0  0  0  0
    7.1873   -5.8479   24.1798 H   0  0  0  0  0  0  0  0  0  0  0  0
    6.5233   -4.4819   23.2982 H   0  0  0  0  0  0  0  0  0  0  0  0
    6.1381   -4.4365   25.3540 N   0  0  0  0  0  0  0  0  0  0  0  0
    6.5608   -4.9249   26.6752 C   0  0  0  0  0  0  0  0  0  0  0  0
    6.9746   -4.1017   27.2824 H   0  0  0  0  0  0  0  0  0  0  0  0
    7.3522   -5.6900   26.5931 H   0  0  0  0  0  0  0  0  0  0  0  0
    5.2938   -5.5164   27.3096 C   0  0  0  0  0  0  0  0  0  0  0  0
    5.2434   -5.3404   28.3861 H   0  0  0  0  0  0  0  0  0  0  0  0
    5.3027   -6.6029   27.1644 H   0  0  0  0  0  0  0  0  0  0  0  0
    4.1473   -4.8788   26.5222 C   0  0  0  0  0  0  0  0  0  0  0  0
    3.2383   -5.4872   26.5518 H   0  0  0  0  0  0  0  0  0  0  0  0
    3.8904   -3.8841   26.9145 H   0  0  0  0  0  0  0  0  0  0  0  0
    4.7351   -4.7832   25.1100 C   0  0  1  0  0  0  0  0  0  0  0  0
    4.6489   -5.7985   24.6461 H   0  0  0  0  0  0  0  0  0  0  0  0
    4.0908   -3.7564   24.1793 C   0  0  0  0  0  0  0  0  0  0  0  0
    4.4174   -2.7416   24.4391 H   0  0  0  0  0  0  0  0  0  0  0  0
    2.9973   -3.7949   24.2298 H   0  0  0  0  0  0  0  0  0  0  0  0
    4.3839   -3.9448   23.1393 H   0  0  0  0  0  0  0  0  0  0  0  0
    9.5391   -1.7847   24.6402 C   0  0  0  0  0  0  0  0  0  0  0  0
   10.3116   -2.4157   25.0633 H   0  0  0  0  0  0  0  0  0  0  0  0
    9.9147   -0.9522   24.0494 H   0  0  0  0  0  0  0  0  0  0  0  0
    8.2174   -1.6624   25.3360 C   0  0  0  0  0  0  0  0  0  0  0  0
    7.6761   -0.7236   25.2570 H   0  0  0  0  0  0  0  0  0  0  0  0
    8.0800   -2.1929   26.2775 H   0  0  0  0  0  0  0  0  0  0  0  0
    6.7181   -0.7411   22.5194 S   0  0  0  0  0  0  0  0  0  0  0  0
    5.3510    0.7143   19.9428 C   0  0  0  0  0  0  0  0  0  0  0  0
    4.8447    0.7556   20.9088 H   0  0  0  0  0  0  0  0  0  0  0  0
    4.8624    1.4271   18.8486 C   0  0  0  0  0  0  0  0  0  0  0  0
    3.9760    2.0453   18.9273 H   0  0  0  0  0  0  0  0  0  0  0  0
  1  2  1  0
  2  3  2  0
  3  4  1  0
  4  5  1  0
  4  6  2  0
  6  7  1  0
  7  8  2  0
  8  9  1  0
  9 10  2  0
 10 11  1  0
 11 12  1  0
 12 13  1  0
 12 14  1  0
 12 15  1  0
 15 16  1  0
 15 17  1  0
 15 18  1  0
 18 19  1  0
 19 20  1  0
 19 21  1  0
 19 22  1  0
 22 23  1  0
 22 24  1  0
 22 25  1  0
 25 26  1  0
 25 27  1  0
 25 28  1  0
 28 29  1  6
 28 30  1  0
 30 31  1  0
 30 32  1  0
 30 33  1  0
 11 34  1  0
 34 35  1  0
 34 36  1  0
 34 37  1  0
 37 38  1  0
 37 39  1  0
 10 40  1  0
  6 41  1  0
 41 42  1  0
 41 43  2  0
 43 44  1  0
 43  2  1  0
 40  7  1  0
 37 11  1  0
 28 18  1  0
M  END
>  <cnnaffinity>  (1) 
-5.78744

>  <filename>  (1) 
C[C@@H]1CCCN1CCC1(c2nnc(-c3cccnc3)s2)CC1

$$$$
