
     RDKit          3D

 30 31  0  0  0  0  0  0  0  0999 V2000
    5.0055    1.7430   16.7953 H   0  0  0  0  0  0  0  0  0  0  0  0
    5.4280    1.2973   17.6942 C   0  0  0  0  0  0  0  0  0  0  0  0
    6.6024    0.6713   17.5544 N   0  0  0  0  0  0  0  0  0  0  0  0
    7.1677    0.1362   18.6489 C   0  0  0  0  0  0  0  0  0  0  0  0
    8.1191   -0.3701   18.4968 H   0  0  0  0  0  0  0  0  0  0  0  0
    6.5893    0.2077   19.9329 C   0  0  0  0  0  0  0  0  0  0  0  0
    7.1211   -0.2736   21.0838 O   0  0  0  0  0  0  0  0  0  0  0  0
    8.3413   -1.0319   21.0885 C   0  0  1  0  0  0  0  0  0  0  0  0
    8.3500   -1.6882   20.2056 H   0  0  0  0  0  0  0  0  0  0  0  0
    9.5501   -0.1021   21.0471 C   0  0  0  0  0  0  0  0  0  0  0  0
   10.4730   -0.6907   20.9757 H   0  0  0  0  0  0  0  0  0  0  0  0
    9.4966    0.5631   20.1787 H   0  0  0  0  0  0  0  0  0  0  0  0
    9.5988    0.5258   21.9467 H   0  0  0  0  0  0  0  0  0  0  0  0
    8.2759   -1.8944   22.3428 C   0  0  1  0  0  0  0  0  0  0  0  0
    8.1745   -1.2207   23.2079 H   0  0  0  0  0  0  0  0  0  0  0  0
    7.0778   -2.8572   22.3928 C   0  0  0  0  0  0  0  0  0  0  0  0
    6.1259   -2.3444   22.5269 H   0  0  0  0  0  0  0  0  0  0  0  0
    6.9968   -3.4399   21.4627 H   0  0  0  0  0  0  0  0  0  0  0  0
    7.3945   -3.7773   23.4756 N   0  0  0  0  0  0  0  0  0  0  0  0
    7.3071   -3.2567   24.3499 H   0  0  0  0  0  0  0  0  0  0  0  0
    8.8086   -4.0957   23.2429 C   0  0  0  0  0  0  0  0  0  0  0  0
    8.8367   -4.9692   22.5832 H   0  0  0  0  0  0  0  0  0  0  0  0
    9.3097   -4.3764   24.1714 H   0  0  0  0  0  0  0  0  0  0  0  0
    9.4615   -2.8514   22.5732 C   0  0  0  0  0  0  0  0  0  0  0  0
   10.2535   -2.4149   23.1959 H   0  0  0  0  0  0  0  0  0  0  0  0
    9.9120   -3.0964   21.6058 H   0  0  0  0  0  0  0  0  0  0  0  0
    5.3388    0.8334   20.0599 C   0  0  0  0  0  0  0  0  0  0  0  0
    4.8776    0.8724   21.0439 H   0  0  0  0  0  0  0  0  0  0  0  0
    4.7573    1.3869   18.9202 C   0  0  0  0  0  0  0  0  0  0  0  0
    3.8065    1.9017   18.9753 H   0  0  0  0  0  0  0  0  0  0  0  0
  1  2  1  0
  2  3  2  0
  3  4  1  0
  4  5  1  0
  4  6  2  0
  6  7  1  0
  7  8  1  0
  8  9  1  6
  8 10  1  0
 10 11  1  0
 10 12  1  0
 10 13  1  0
  8 14  1  0
 14 15  1  1
 14 16  1  0
 16 17  1  0
 16 18  1  0
 16 19  1  0
 19 20  1  0
 19 21  1  0
 21 22  1  0
 21 23  1  0
 21 24  1  0
 24 25  1  0
 24 26  1  0
  6 27  1  0
 27 28  1  0
 27 29  2  0
 29 30  1  0
 29  2  1  0
 24 14  1  0
M  END
>  <cnnaffinity>  (1) 
-4.03365

>  <filename>  (1) 
C[C@H](Oc1cccnc1)[C@@H]1CCNC1

$$$$
