
     RDKit          3D

 33 34  0  0  0  0  0  0  0  0999 V2000
    4.9290    1.7942   17.0212 H   0  0  0  0  0  0  0  0  0  0  0  0
    5.4038    1.2793   17.8544 C   0  0  0  0  0  0  0  0  0  0  0  0
    6.5647    0.6577   17.5832 N   0  0  0  0  0  0  0  0  0  0  0  0
    7.1907    0.0453   18.5956 C   0  0  0  0  0  0  0  0  0  0  0  0
    8.1426   -0.4223   18.3564 H   0  0  0  0  0  0  0  0  0  0  0  0
    6.6932   -0.0127   19.9264 C   0  0  0  0  0  0  0  0  0  0  0  0
    7.3961   -0.6520   20.9909 N   0  0  0  0  0  0  0  0  0  0  0  0
    6.8618   -1.0996   21.7193 H   0  0  0  0  0  0  0  0  0  0  0  0
    8.7604   -0.6331   21.1657 C   0  0  0  0  0  0  0  0  0  0  0  0
    9.4772    0.1023   20.5183 O   0  0  0  0  0  0  0  0  0  0  0  0
    9.2930   -1.6384   22.1785 C   0  0  2  0  0  0  0  0  0  0  0  0
    8.6026   -2.4800   22.2336 H   0  0  0  0  0  0  0  0  0  0  0  0
    9.3446   -0.9282   23.4969 C   0  0  0  0  0  0  0  0  0  0  0  0
    9.9350    0.2590   23.4479 N   0  0  0  0  0  0  0  0  0  0  0  0
   10.1355    0.9377   24.5784 C   0  0  0  0  0  0  0  0  0  0  0  0
   10.6598    1.8843   24.4715 H   0  0  0  0  0  0  0  0  0  0  0  0
    9.7130    0.4698   25.8203 C   0  0  0  0  0  0  0  0  0  0  0  0
    9.8560    1.0894   26.6855 H   0  0  0  0  0  0  0  0  0  0  0  0
    9.0947   -0.7731   25.9011 C   0  0  0  0  0  0  0  0  0  0  0  0
    8.7559   -1.1811   26.8560 H   0  0  0  0  0  0  0  0  0  0  0  0
    8.9226   -1.4883   24.7174 C   0  0  0  0  0  0  0  0  0  0  0  0
    8.3068   -2.8458   24.7092 C   0  0  0  0  0  0  0  0  0  0  0  0
    7.9796   -3.2930   25.9285 F   0  0  0  0  0  0  0  0  0  0  0  0
    9.1273   -3.7743   24.1724 F   0  0  0  0  0  0  0  0  0  0  0  0
    7.1728   -2.8612   23.9705 F   0  0  0  0  0  0  0  0  0  0  0  0
   10.6800   -2.1266   21.7309 C   0  0  0  0  0  0  0  0  0  0  0  0
   10.5610   -2.5283   20.7270 H   0  0  0  0  0  0  0  0  0  0  0  0
   11.3934   -1.2944   21.6832 H   0  0  0  0  0  0  0  0  0  0  0  0
   11.0741   -2.8973   22.3989 H   0  0  0  0  0  0  0  0  0  0  0  0
    5.4658    0.6177   20.1738 C   0  0  0  0  0  0  0  0  0  0  0  0
    5.0406    0.6087   21.1771 H   0  0  0  0  0  0  0  0  0  0  0  0
    4.8181    1.2850   19.1247 C   0  0  0  0  0  0  0  0  0  0  0  0
    3.8843    1.8208   19.2838 H   0  0  0  0  0  0  0  0  0  0  0  0
  1  2  1  0
  2  3  2  0
  3  4  1  0
  4  5  1  0
  4  6  2  0
  6  7  1  0
  7  8  1  0
  7  9  1  0
  9 10  2  0
  9 11  1  0
 11 12  1  1
 11 13  1  0
 13 14  2  0
 14 15  1  0
 15 16  1  0
 15 17  2  0
 17 18  1  0
 17 19  1  0
 19 20  1  0
 19 21  2  0
 21 22  1  0
 22 23  1  0
 22 24  1  0
 22 25  1  0
 11 26  1  0
 26 27  1  0
 26 28  1  0
 26 29  1  0
  6 30  1  0
 30 31  1  0
 30 32  2  0
 32 33  1  0
 32  2  1  0
 21 13  1  0
M  END
>  <cnnaffinity>  (1) 
-5.3757

>  <filename>  (1) 
C[C@H](C(=O)Nc1cccnc1)c1ncccc1C(F)(F)F

$$$$
