
     RDKit          3D

 36 37  0  0  0  0  0  0  0  0999 V2000
    9.5647   -1.6733   24.6370 H   0  0  0  0  0  0  0  0  0  0  0  0
   10.4378   -1.8952   24.2826 O   0  0  0  0  0  0  0  0  0  0  0  0
   10.9047   -0.8160   23.4323 C   0  0  2  0  0  0  0  0  0  0  0  0
   11.4355   -0.0694   24.0949 H   0  0  0  0  0  0  0  0  0  0  0  0
    9.8031    0.0855   22.8289 C   0  0  0  0  0  0  0  0  0  0  0  0
   10.3412    0.9440   22.3862 H   0  0  0  0  0  0  0  0  0  0  0  0
    9.2078    0.4867   23.6634 H   0  0  0  0  0  0  0  0  0  0  0  0
    8.8743   -0.5170   21.8671 N   0  0  0  0  0  0  0  0  0  0  0  0
    7.9082    0.4373   21.2704 C   0  0  2  0  0  0  0  0  0  0  0  0
    8.3983    0.9469   20.4189 H   0  0  0  0  0  0  0  0  0  0  0  0
    7.4448    1.5610   22.2075 C   0  0  0  0  0  0  0  0  0  0  0  0
    6.6850    2.1697   21.7004 H   0  0  0  0  0  0  0  0  0  0  0  0
    6.9979    1.1661   23.1296 H   0  0  0  0  0  0  0  0  0  0  0  0
    8.2674    2.2306   22.4788 H   0  0  0  0  0  0  0  0  0  0  0  0
    6.6775   -0.3431   20.7217 C   0  0  0  0  0  0  0  0  0  0  0  0
    6.9897   -1.3667   20.4836 H   0  0  0  0  0  0  0  0  0  0  0  0
    5.9254   -0.4408   21.5186 H   0  0  0  0  0  0  0  0  0  0  0  0
    6.0779    0.2962   19.4864 C   0  0  0  0  0  0  0  0  0  0  0  0
    6.7290    0.1601   18.2440 C   0  0  0  0  0  0  0  0  0  0  0  0
    7.6070   -0.4839   18.1684 H   0  0  0  0  0  0  0  0  0  0  0  0
    6.3617    0.7814   17.1196 N   0  0  0  0  0  0  0  0  0  0  0  0
    5.2930    1.5887   17.1927 C   0  0  0  0  0  0  0  0  0  0  0  0
    5.0209    2.1057   16.2745 H   0  0  0  0  0  0  0  0  0  0  0  0
    4.5449    1.7721   18.3569 C   0  0  0  0  0  0  0  0  0  0  0  0
    3.6823    2.4281   18.3399 H   0  0  0  0  0  0  0  0  0  0  0  0
    4.9460    1.1202   19.5252 C   0  0  0  0  0  0  0  0  0  0  0  0
    4.3965    1.2552   20.4580 H   0  0  0  0  0  0  0  0  0  0  0  0
    9.4826   -1.3501   20.8588 C   0  0  0  0  0  0  0  0  0  0  0  0
    8.9461   -2.2750   20.6325 H   0  0  0  0  0  0  0  0  0  0  0  0
    9.7676   -0.8213   19.9337 H   0  0  0  0  0  0  0  0  0  0  0  0
   11.8093   -1.3825   22.0685 C   0  0  0  0  0  0  0  0  0  0  0  0
   10.8230   -1.8419   21.4390 H   0  0  0  0  0  0  0  0  0  0  0  0
   12.3904   -1.6745   20.9910 H   0  0  0  0  0  0  0  0  0  0  0  0
   11.8437   -1.6640   22.1272 C   0  0  0  0  0  0  0  0  0  0  0  0
   12.8726   -1.2997   22.7400 H   0  0  0  0  0  0  0  0  0  0  0  0
   11.8262   -3.1836   22.7145 H   0  0  0  0  0  0  0  0  0  0  0  0
  1  2  1  0
  2  3  1  0
  3  4  1  1
  3  5  1  0
  5  6  1  0
  5  7  1  0
  5  8  1  0
  8  9  1  0
  9 10  1  6
  9 11  1  0
 11 12  1  0
 11 13  1  0
 11 14  1  0
  9 15  1  0
 15 16  1  0
 15 17  1  0
 15 18  1  0
 18 19  2  0
 19 20  1  0
 19 21  1  0
 21 22  2  0
 22 23  1  0
 22 24  1  0
 24 25  1  0
 24 26  2  0
 26 27  1  0
  8 28  1  0
 28 29  1  0
 28 30  1  0
 28 31  1  0
 31 32  1  0
 31 33  1  0
 31 34  1  0
 34 35  1  0
 34 36  1  0
 34  3  1  0
 26 18  1  0
M  END
>  <cnnaffinity>  (1) 
-4.54595

>  <filename>  (1) 
C[C@H](Cc1cccnc1)N1CCC[C@H](O)C1

$$$$
