
     RDKit          3D

 31 32  0  0  0  0  0  0  0  0999 V2000
    8.7655   -0.1008   21.2816 C   0  0  0  0  0  0  0  0  0  0  0  0
    7.3938   -0.7621   21.0635 C   0  0  2  0  0  0  0  0  0  0  0  0
    7.4945   -2.1813   20.7948 N   0  0  0  0  0  0  0  0  0  0  0  0
    7.7878   -3.1411   21.7169 C   0  0  0  0  0  0  0  0  0  0  0  0
    7.9091   -4.4775   21.3123 C   0  0  0  0  0  0  0  0  0  0  0  0
    8.3073   -5.3989   22.2729 C   0  0  0  0  0  0  0  0  0  0  0  0
    8.5180   -5.1129   23.5613 N   0  0  0  0  0  0  0  0  0  0  0  0
    8.2984   -3.8499   23.9625 C   0  0  0  0  0  0  0  0  0  0  0  0
    8.4507   -3.6304   25.4645 C   0  0  0  0  0  0  0  0  0  0  0  0
    9.3392   -2.6249   25.7248 F   0  0  0  0  0  0  0  0  0  0  0  0
    7.2690   -3.2548   26.0425 F   0  0  0  0  0  0  0  0  0  0  0  0
    8.7980   -4.5607   25.9291 H   0  0  0  0  0  0  0  0  0  0  0  0
    7.9568   -2.8332   23.0761 C   0  0  0  0  0  0  0  0  0  0  0  0
    7.8225   -1.8160   23.4101 H   0  0  0  0  0  0  0  0  0  0  0  0
    8.4702   -6.4392   22.0145 H   0  0  0  0  0  0  0  0  0  0  0  0
    7.6432   -4.7858   20.3082 H   0  0  0  0  0  0  0  0  0  0  0  0
    7.4838   -2.4690   19.8322 H   0  0  0  0  0  0  0  0  0  0  0  0
    6.6300   -0.0990   19.9411 C   0  0  0  0  0  0  0  0  0  0  0  0
    5.4297    0.5947   20.1546 C   0  0  0  0  0  0  0  0  0  0  0  0
    4.8442    1.2658   19.0788 C   0  0  0  0  0  0  0  0  0  0  0  0
    5.4788    1.2226   17.8320 C   0  0  0  0  0  0  0  0  0  0  0  0
    6.6095    0.5349   17.6010 N   0  0  0  0  0  0  0  0  0  0  0  0
    7.1515   -0.1111   18.6429 C   0  0  0  0  0  0  0  0  0  0  0  0
    8.0786   -0.6485   18.4346 H   0  0  0  0  0  0  0  0  0  0  0  0
    5.0566    1.7592   16.9833 H   0  0  0  0  0  0  0  0  0  0  0  0
    3.9229    1.8306   19.1976 H   0  0  0  0  0  0  0  0  0  0  0  0
    4.9636    0.6164   21.1440 H   0  0  0  0  0  0  0  0  0  0  0  0
    6.8001   -0.6466   21.9822 H   0  0  0  0  0  0  0  0  0  0  0  0
    9.2936   -0.5779   22.1131 H   0  0  0  0  0  0  0  0  0  0  0  0
    9.3975   -0.1734   20.3873 H   0  0  0  0  0  0  0  0  0  0  0  0
    8.6286    0.9596   21.5164 H   0  0  0  0  0  0  0  0  0  0  0  0
  1  2  1  0
  2  3  1  0
  3  4  1  0
  4  5  2  0
  5  6  1  0
  6  7  2  0
  7  8  1  0
  8  9  1  0
  9 10  1  0
  9 11  1  0
  9 12  1  0
  8 13  2  0
 13 14  1  0
  6 15  1  0
  5 16  1  0
  3 17  1  0
  2 18  1  0
 18 19  2  0
 19 20  1  0
 20 21  2  0
 21 22  1  0
 22 23  2  0
 23 24  1  0
 21 25  1  0
 20 26  1  0
 19 27  1  0
  2 28  1  1
  1 29  1  0
  1 30  1  0
  1 31  1  0
 13  4  1  0
 23 18  1  0
M  END
>  <cnnaffinity>  (1) 
-4.71108

>  <filename>  (1) 
C[C@H](Nc1ccnc(C(F)F)c1)c1cccnc1

$$$$
