
     RDKit          3D

 38 38  0  0  0  0  0  0  0  0999 V2000
   13.1994    0.0084   25.3794 H   0  0  0  0  0  0  0  0  0  0  0  0
   12.4608   -0.1229   24.7603 O   0  0  0  0  0  0  0  0  0  0  0  0
   11.2928    0.1282   25.4883 N   0  0  0  0  0  0  0  0  0  0  0  0
   10.6238   -0.6171   25.3185 H   0  0  0  0  0  0  0  0  0  0  0  0
   10.6954    1.3860   25.3228 C   0  0  0  0  0  0  0  0  0  0  0  0
   11.2471    2.3431   24.8332 O   0  0  0  0  0  0  0  0  0  0  0  0
    9.2951    1.4510   25.8906 C   0  0  0  0  0  0  0  0  0  0  0  0
    9.3142    2.2774   26.6063 H   0  0  0  0  0  0  0  0  0  0  0  0
    9.0718    0.5378   26.4485 H   0  0  0  0  0  0  0  0  0  0  0  0
    8.2541    1.7589   24.8027 C   0  0  0  0  0  0  0  0  0  0  0  0
    7.2758    1.9136   25.2766 H   0  0  0  0  0  0  0  0  0  0  0  0
    8.5421    2.7135   24.3422 H   0  0  0  0  0  0  0  0  0  0  0  0
    8.1543    0.6847   23.7124 C   0  0  0  0  0  0  0  0  0  0  0  0
    9.1645    0.5079   23.3082 H   0  0  0  0  0  0  0  0  0  0  0  0
    7.5510    1.0769   22.8854 H   0  0  0  0  0  0  0  0  0  0  0  0
    7.5414   -0.6352   24.1945 C   0  0  0  0  0  0  0  0  0  0  0  0
    8.0927   -0.9976   25.0738 H   0  0  0  0  0  0  0  0  0  0  0  0
    6.5171   -0.4469   24.5502 H   0  0  0  0  0  0  0  0  0  0  0  0
    7.5311   -1.8026   23.1706 C   0  0  1  0  0  0  0  0  0  0  0  0
    6.9236   -2.6029   23.6109 H   0  0  0  0  0  0  0  0  0  0  0  0
    6.7578   -1.5121   21.8652 C   0  0  0  0  0  0  0  0  0  0  0  0
    5.6888   -2.0389   21.6235 O   0  0  0  0  0  0  0  0  0  0  0  0
    7.3671   -0.6571   20.9599 N   0  0  0  0  0  0  0  0  0  0  0  0
    8.3713   -0.6380   20.9890 H   0  0  0  0  0  0  0  0  0  0  0  0
    6.7006    0.0113   19.8922 C   0  0  0  0  0  0  0  0  0  0  0  0
    7.2124    0.0695   18.5748 C   0  0  0  0  0  0  0  0  0  0  0  0
    8.1544   -0.4259   18.3343 H   0  0  0  0  0  0  0  0  0  0  0  0
    6.5792    0.6798   17.5618 N   0  0  0  0  0  0  0  0  0  0  0  0
    5.4137    1.2940   17.8285 C   0  0  0  0  0  0  0  0  0  0  0  0
    4.9327    1.7973   16.9931 H   0  0  0  0  0  0  0  0  0  0  0  0
    4.8226    1.3035   19.0963 C   0  0  0  0  0  0  0  0  0  0  0  0
    3.8837    1.8286   19.2554 H   0  0  0  0  0  0  0  0  0  0  0  0
    5.4748    0.6409   20.1415 C   0  0  0  0  0  0  0  0  0  0  0  0
    5.0449    0.5930   21.1402 H   0  0  0  0  0  0  0  0  0  0  0  0
    8.9408   -2.3711   22.9067 C   0  0  0  0  0  0  0  0  0  0  0  0
    8.9073   -3.1967   22.1877 H   0  0  0  0  0  0  0  0  0  0  0  0
    9.6543   -1.6270   22.5301 H   0  0  0  0  0  0  0  0  0  0  0  0
    9.3609   -2.7667   23.8365 H   0  0  0  0  0  0  0  0  0  0  0  0
  1  2  1  0
  2  3  1  0
  3  4  1  0
  3  5  1  0
  5  6  2  0
  5  7  1  0
  7  8  1  0
  7  9  1  0
  7 10  1  0
 10 11  1  0
 10 12  1  0
 10 13  1  0
 13 14  1  0
 13 15  1  0
 13 16  1  0
 16 17  1  0
 16 18  1  0
 16 19  1  0
 19 20  1  1
 19 21  1  0
 21 22  2  0
 21 23  1  0
 23 24  1  0
 23 25  1  0
 25 26  2  0
 26 27  1  0
 26 28  1  0
 28 29  2  0
 29 30  1  0
 29 31  1  0
 31 32  1  0
 31 33  2  0
 33 34  1  0
 19 35  1  0
 35 36  1  0
 35 37  1  0
 35 38  1  0
 33 25  1  0
M  END
>  <cnnaffinity>  (1) 
-5.07374

>  <filename>  (1) 
C[C@@H](CCCCC(=O)NO)C(=O)Nc1cccnc1

$$$$
