
     RDKit          3D

 35 36  0  0  0  0  0  0  0  0999 V2000
    4.9248    1.8439   17.0153 H   0  0  0  0  0  0  0  0  0  0  0  0
    5.4143    1.3220   17.8321 C   0  0  0  0  0  0  0  0  0  0  0  0
    6.5716    0.7086   17.5389 N   0  0  0  0  0  0  0  0  0  0  0  0
    7.2170    0.0899   18.5390 C   0  0  0  0  0  0  0  0  0  0  0  0
    8.1631   -0.3749   18.2602 H   0  0  0  0  0  0  0  0  0  0  0  0
    6.7402    0.0081   19.8815 C   0  0  0  0  0  0  0  0  0  0  0  0
    7.4226   -0.6457   20.9333 N   0  0  0  0  0  0  0  0  0  0  0  0
    6.6974   -1.4714   21.8903 C   0  0  0  0  0  0  0  0  0  0  0  0
    6.0257   -2.1755   21.3841 H   0  0  0  0  0  0  0  0  0  0  0  0
    6.1116   -0.8757   22.6021 H   0  0  0  0  0  0  0  0  0  0  0  0
    7.4067   -2.0506   22.4880 H   0  0  0  0  0  0  0  0  0  0  0  0
    8.8533   -0.5104   21.1212 C   0  0  1  0  0  0  0  0  0  0  0  0
    9.1778    0.2820   20.4337 H   0  0  0  0  0  0  0  0  0  0  0  0
    9.1984   -0.1812   22.4488 O   0  0  0  0  0  0  0  0  0  0  0  0
    9.3401    1.2057   22.7451 C   0  0  0  0  0  0  0  0  0  0  0  0
    9.7666    1.1977   23.7517 H   0  0  0  0  0  0  0  0  0  0  0  0
   10.1017    1.6673   22.0979 H   0  0  0  0  0  0  0  0  0  0  0  0
    8.0418    1.9871   22.6745 C   0  0  0  0  0  0  0  0  0  0  0  0
    7.7934    2.9241   21.6651 C   0  0  0  0  0  0  0  0  0  0  0  0
    8.5634    3.1566   20.9376 H   0  0  0  0  0  0  0  0  0  0  0  0
    6.5484    3.5622   21.6037 C   0  0  0  0  0  0  0  0  0  0  0  0
    6.3352    4.2912   20.8278 H   0  0  0  0  0  0  0  0  0  0  0  0
    5.5571    3.3434   22.4761 N   0  0  0  0  0  0  0  0  0  0  0  0
    5.7978    2.4521   23.4423 C   0  0  0  0  0  0  0  0  0  0  0  0
    4.9920    2.3136   24.1557 H   0  0  0  0  0  0  0  0  0  0  0  0
    6.9942    1.7471   23.5753 C   0  0  0  0  0  0  0  0  0  0  0  0
    7.1007    1.0145   24.3657 H   0  0  0  0  0  0  0  0  0  0  0  0
    9.5897   -1.7898   20.8065 C   0  0  0  0  0  0  0  0  0  0  0  0
   10.6471   -1.6679   21.0488 H   0  0  0  0  0  0  0  0  0  0  0  0
    9.4795   -1.9985   19.7477 H   0  0  0  0  0  0  0  0  0  0  0  0
    9.2014   -2.6400   21.3705 H   0  0  0  0  0  0  0  0  0  0  0  0
    5.5111    0.6331   20.1435 C   0  0  0  0  0  0  0  0  0  0  0  0
    5.1388    0.6305   21.1686 H   0  0  0  0  0  0  0  0  0  0  0  0
    4.8455    1.3050   19.1118 C   0  0  0  0  0  0  0  0  0  0  0  0
    3.9059    1.8228   19.2892 H   0  0  0  0  0  0  0  0  0  0  0  0
  1  2  1  0
  2  3  2  0
  3  4  1  0
  4  5  1  0
  4  6  2  0
  6  7  1  0
  7  8  1  0
  8  9  1  0
  8 10  1  0
  8 11  1  0
  7 12  1  0
 12 13  1  6
 12 14  1  0
 14 15  1  0
 15 16  1  0
 15 17  1  0
 15 18  1  0
 18 19  2  0
 19 20  1  0
 19 21  1  0
 21 22  1  0
 21 23  2  0
 23 24  1  0
 24 25  1  0
 24 26  2  0
 26 27  1  0
 12 28  1  0
 28 29  1  0
 28 30  1  0
 28 31  1  0
  6 32  1  0
 32 33  1  0
 32 34  2  0
 34 35  1  0
 34  2  1  0
 26 18  1  0
M  END
>  <cnnaffinity>  (1) 
-4.09052

>  <filename>  (1) 
C[C@H](OCc1ccncc1)N(C)c1cccnc1

$$$$
