
     RDKit          3D

 31 32  0  0  0  0  0  0  0  0999 V2000
    5.0920   -3.5147   17.9090 H   0  0  0  0  0  0  0  0  0  0  0  0
    5.4786   -3.5942   18.9427 C   0  0  0  0  0  0  0  0  0  0  0  0
    5.7118   -2.4792   19.5442 N   0  0  0  0  0  0  0  0  0  0  0  0
    6.2941   -2.7619   20.7620 C   0  0  0  0  0  0  0  0  0  0  0  0
    6.6569   -1.7498   21.5616 N   0  0  0  0  0  0  0  0  0  0  0  0
    6.9540   -2.0665   22.4686 H   0  0  0  0  0  0  0  0  0  0  0  0
    7.2230   -0.4460   21.2103 C   0  0  2  0  0  0  0  0  0  0  0  0
    6.9677    0.1872   22.0745 H   0  0  0  0  0  0  0  0  0  0  0  0
    6.5875    0.2075   20.0020 C   0  0  0  0  0  0  0  0  0  0  0  0
    7.1720    0.1545   18.7341 C   0  0  0  0  0  0  0  0  0  0  0  0
    8.0865   -0.4165   18.5716 H   0  0  0  0  0  0  0  0  0  0  0  0
    6.6879    0.7750   17.6472 N   0  0  0  0  0  0  0  0  0  0  0  0
    5.5509    1.4696   17.7945 C   0  0  0  0  0  0  0  0  0  0  0  0
    5.1878    1.9883   16.9085 H   0  0  0  0  0  0  0  0  0  0  0  0
    4.8463    1.5403   19.0003 C   0  0  0  0  0  0  0  0  0  0  0  0
    3.9253    2.1110   19.0531 H   0  0  0  0  0  0  0  0  0  0  0  0
    5.3681    0.8897   20.1197 C   0  0  0  0  0  0  0  0  0  0  0  0
    4.8387    0.8972   21.0752 H   0  0  0  0  0  0  0  0  0  0  0  0
    8.7548   -0.5197   21.1479 C   0  0  0  0  0  0  0  0  0  0  0  0
    9.1443   -0.9335   22.0837 H   0  0  0  0  0  0  0  0  0  0  0  0
    9.1029   -1.1499   20.3270 H   0  0  0  0  0  0  0  0  0  0  0  0
    9.1865    0.4751   21.0078 H   0  0  0  0  0  0  0  0  0  0  0  0
    6.4619   -4.0993   21.2150 C   0  0  0  0  0  0  0  0  0  0  0  0
    5.7625   -4.3375   22.5368 C   0  0  0  0  0  0  0  0  0  0  0  0
    5.8861   -5.6034   22.9804 F   0  0  0  0  0  0  0  0  0  0  0  0
    4.4402   -4.0780   22.4931 F   0  0  0  0  0  0  0  0  0  0  0  0
    6.2645   -3.5685   23.5484 F   0  0  0  0  0  0  0  0  0  0  0  0
    6.0209   -5.0039   19.8341 C   0  0  0  0  0  0  0  0  0  0  0  0
    4.7904   -5.7180   20.3153 H   0  0  0  0  0  0  0  0  0  0  0  0
    5.7832   -5.2269   19.8934 C   0  0  0  0  0  0  0  0  0  0  0  0
    6.5619   -6.0918   19.5059 H   0  0  0  0  0  0  0  0  0  0  0  0
  1  2  1  0
  2  3  2  0
  3  4  1  0
  4  5  1  0
  5  6  1  0
  5  7  1  0
  7  8  1  1
  7  9  1  0
  9 10  2  0
 10 11  1  0
 10 12  1  0
 12 13  2  0
 13 14  1  0
 13 15  1  0
 15 16  1  0
 15 17  2  0
 17 18  1  0
  7 19  1  0
 19 20  1  0
 19 21  1  0
 19 22  1  0
  4 23  2  0
 23 24  1  0
 24 25  1  0
 24 26  1  0
 24 27  1  0
 23 28  1  0
 28 29  1  0
 28 30  2  0
 30 31  1  0
 30  2  1  0
 17  9  1  0
M  END
>  <cnnaffinity>  (1) 
-4.97109

>  <filename>  (1) 
C[C@H](Nc1ncccc1C(F)(F)F)c1cccnc1

$$$$
