
     RDKit          3D

 33 35  0  0  0  0  0  0  0  0999 V2000
    7.4195   -2.1425   20.9793 C   0  0  0  0  0  0  0  0  0  0  0  0
    7.1924   -0.6428   21.2458 C   0  0  1  0  0  0  0  0  0  0  0  0
    8.4679    0.0111   21.4841 N   0  0  0  0  0  0  0  0  0  0  0  0
    9.2415   -0.1856   22.5745 C   0  0  0  0  0  0  0  0  0  0  0  0
    8.7305   -0.9574   23.5235 N   0  0  0  0  0  0  0  0  0  0  0  0
    9.4264   -1.1026   24.6789 C   0  0  0  0  0  0  0  0  0  0  0  0
   10.6653   -0.5555   24.9029 C   0  0  0  0  0  0  0  0  0  0  0  0
   11.3097    0.1796   23.8554 C   0  0  0  0  0  0  0  0  0  0  0  0
   12.6491    0.6582   23.9265 C   0  0  0  0  0  0  0  0  0  0  0  0
   13.1264    1.4661   22.9155 C   0  0  0  0  0  0  0  0  0  0  0  0
   12.2773    1.7718   21.8190 C   0  0  0  0  0  0  0  0  0  0  0  0
   11.0611    1.2862   21.6808 N   0  0  0  0  0  0  0  0  0  0  0  0
   10.5769    0.4641   22.6676 C   0  0  0  0  0  0  0  0  0  0  0  0
   12.6071    2.4168   21.0070 H   0  0  0  0  0  0  0  0  0  0  0  0
   14.1278    1.8772   22.9299 H   0  0  0  0  0  0  0  0  0  0  0  0
   13.2716    0.3637   24.7691 H   0  0  0  0  0  0  0  0  0  0  0  0
   11.1414   -0.6438   25.8689 H   0  0  0  0  0  0  0  0  0  0  0  0
    8.9260   -1.7136   25.4291 H   0  0  0  0  0  0  0  0  0  0  0  0
    8.8678    0.6276   20.7962 H   0  0  0  0  0  0  0  0  0  0  0  0
    6.5420    0.1071   20.1118 C   0  0  0  0  0  0  0  0  0  0  0  0
    5.3152    0.7867   20.2027 C   0  0  0  0  0  0  0  0  0  0  0  0
    4.7961    1.3790   19.0473 C   0  0  0  0  0  0  0  0  0  0  0  0
    5.5244    1.2913   17.8573 C   0  0  0  0  0  0  0  0  0  0  0  0
    6.7058    0.6630   17.7598 N   0  0  0  0  0  0  0  0  0  0  0  0
    7.1975    0.1158   18.8760 C   0  0  0  0  0  0  0  0  0  0  0  0
    8.1687   -0.3749   18.7725 H   0  0  0  0  0  0  0  0  0  0  0  0
    5.1465    1.7302   16.9355 H   0  0  0  0  0  0  0  0  0  0  0  0
    3.8515    1.9148   19.0495 H   0  0  0  0  0  0  0  0  0  0  0  0
    4.7849    0.8728   21.1558 H   0  0  0  0  0  0  0  0  0  0  0  0
    6.5825   -0.5474   22.1563 H   0  0  0  0  0  0  0  0  0  0  0  0
    7.5186   -2.6490   21.9422 H   0  0  0  0  0  0  0  0  0  0  0  0
    6.6105   -2.5884   20.3921 H   0  0  0  0  0  0  0  0  0  0  0  0
    8.3704   -2.2793   20.4558 H   0  0  0  0  0  0  0  0  0  0  0  0
  1  2  1  0
  2  3  1  0
  3  4  1  0
  4  5  2  0
  5  6  1  0
  6  7  2  0
  7  8  1  0
  8  9  2  0
  9 10  1  0
 10 11  2  0
 11 12  1  0
 12 13  2  0
 11 14  1  0
 10 15  1  0
  9 16  1  0
  7 17  1  0
  6 18  1  0
  3 19  1  0
  2 20  1  0
 20 21  2  0
 21 22  1  0
 22 23  2  0
 23 24  1  0
 24 25  2  0
 25 26  1  0
 23 27  1  0
 22 28  1  0
 21 29  1  0
  2 30  1  1
  1 31  1  0
  1 32  1  0
  1 33  1  0
 13  4  1  0
 25 20  1  0
 13  8  1  0
M  END
>  <cnnaffinity>  (1) 
-4.94821

>  <filename>  (1) 
C[C@@H](Nc1nccc2cccnc12)c1cccnc1

$$$$
