
     RDKit          3D

 36 38  0  0  0  0  0  0  0  0999 V2000
    4.9400    1.8248   16.9602 H   0  0  0  0  0  0  0  0  0  0  0  0
    5.4181    1.3128   17.7921 C   0  0  0  0  0  0  0  0  0  0  0  0
    6.5875    0.7030   17.5261 N   0  0  0  0  0  0  0  0  0  0  0  0
    7.2028    0.0670   18.5311 C   0  0  0  0  0  0  0  0  0  0  0  0
    8.1517   -0.4182   18.2962 H   0  0  0  0  0  0  0  0  0  0  0  0
    6.6780   -0.0239   19.8375 C   0  0  0  0  0  0  0  0  0  0  0  0
    7.3745   -0.7267   20.8684 N   0  0  0  0  0  0  0  0  0  0  0  0
    8.2729   -0.3615   21.1375 H   0  0  0  0  0  0  0  0  0  0  0  0
    6.7803   -1.5200   21.8313 C   0  0  0  0  0  0  0  0  0  0  0  0
    5.7547   -2.1487   21.6470 O   0  0  0  0  0  0  0  0  0  0  0  0
    7.5910   -1.7016   23.1447 C   0  0  2  0  0  0  0  0  0  0  0  0
    6.8134   -1.9927   23.8633 H   0  0  0  0  0  0  0  0  0  0  0  0
    8.3394   -0.4749   23.6947 C   0  0  0  0  0  0  0  0  0  0  0  0
    9.7074   -0.3143   23.5617 C   0  0  0  0  0  0  0  0  0  0  0  0
   10.3063   -1.0929   23.0967 H   0  0  0  0  0  0  0  0  0  0  0  0
   10.4371    0.7543   23.9934 N   0  0  0  0  0  0  0  0  0  0  0  0
    9.7877    1.7183   24.6052 C   0  0  0  0  0  0  0  0  0  0  0  0
   10.3664    2.5845   24.9215 H   0  0  0  0  0  0  0  0  0  0  0  0
    8.3844    1.7095   24.8560 C   0  0  0  0  0  0  0  0  0  0  0  0
    7.7264    2.7763   25.5463 C   0  0  0  0  0  0  0  0  0  0  0  0
    8.3007    3.6323   25.8978 H   0  0  0  0  0  0  0  0  0  0  0  0
    6.3715    2.7322   25.7610 C   0  0  0  0  0  0  0  0  0  0  0  0
    5.8630    3.5478   26.2708 H   0  0  0  0  0  0  0  0  0  0  0  0
    5.6169    1.6211   25.3083 C   0  0  0  0  0  0  0  0  0  0  0  0
    4.5448    1.5971   25.4779 H   0  0  0  0  0  0  0  0  0  0  0  0
    6.2272    0.5752   24.6469 C   0  0  0  0  0  0  0  0  0  0  0  0
    5.6292   -0.2699   24.3240 H   0  0  0  0  0  0  0  0  0  0  0  0
    7.6308    0.5847   24.3888 C   0  0  0  0  0  0  0  0  0  0  0  0
    8.4757   -2.9578   22.9615 C   0  0  0  0  0  0  0  0  0  0  0  0
    9.0669   -3.1414   23.8645 H   0  0  0  0  0  0  0  0  0  0  0  0
    9.1610   -2.8688   22.1092 H   0  0  0  0  0  0  0  0  0  0  0  0
    7.8417   -3.8343   22.7798 H   0  0  0  0  0  0  0  0  0  0  0  0
    5.4626    0.6222   20.0988 C   0  0  0  0  0  0  0  0  0  0  0  0
    5.0455    0.5820   21.1039 H   0  0  0  0  0  0  0  0  0  0  0  0
    4.8254    1.3075   19.0571 C   0  0  0  0  0  0  0  0  0  0  0  0
    3.8883    1.8306   19.2197 H   0  0  0  0  0  0  0  0  0  0  0  0
  1  2  1  0
  2  3  2  0
  3  4  1  0
  4  5  1  0
  4  6  2  0
  6  7  1  0
  7  8  1  0
  7  9  1  0
  9 10  2  0
  9 11  1  0
 11 12  1  1
 11 13  1  0
 13 14  2  0
 14 15  1  0
 14 16  1  0
 16 17  2  0
 17 18  1  0
 17 19  1  0
 19 20  2  0
 20 21  1  0
 20 22  1  0
 22 23  1  0
 22 24  2  0
 24 25  1  0
 24 26  1  0
 26 27  1  0
 26 28  2  0
 11 29  1  0
 29 30  1  0
 29 31  1  0
 29 32  1  0
  6 33  1  0
 33 34  1  0
 33 35  2  0
 35 36  1  0
 35  2  1  0
 28 13  1  0
 28 19  1  0
M  END
>  <cnnaffinity>  (1) 
-5.22149

>  <filename>  (1) 
C[C@H](C(=O)Nc1cccnc1)c1cncc2ccccc12

$$$$
