
     RDKit          3D

 40 41  0  0  0  0  0  0  0  0999 V2000
    7.8174    0.2041   22.1364 C   0  0  0  0  0  0  0  0  0  0  0  0
    7.3896   -0.7526   21.0181 C   0  0  1  0  0  0  0  0  0  0  0  0
    6.6275   -1.8771   21.5355 N   0  0  0  0  0  0  0  0  0  0  0  0
    7.2099   -2.8453   22.2981 C   0  0  0  0  0  0  0  0  0  0  0  0
    8.4125   -3.0296   22.3475 O   0  0  0  0  0  0  0  0  0  0  0  0
    6.2517   -3.6328   22.9245 N   0  0  0  0  0  0  0  0  0  0  0  0
    6.7016   -4.5469   23.9784 C   0  0  0  0  0  0  0  0  0  0  0  0
    7.2605   -3.8512   25.2059 C   0  0  0  0  0  0  0  0  0  0  0  0
    6.7907   -2.7328   25.7736 C   0  0  0  0  0  0  0  0  0  0  0  0
    5.4672   -2.0855   25.5582 C   0  0  0  0  0  0  0  0  0  0  0  0
    4.2741   -2.8266   25.5756 C   0  0  0  0  0  0  0  0  0  0  0  0
    3.0320   -2.1849   25.4993 C   0  0  0  0  0  0  0  0  0  0  0  0
    2.9618   -0.7912   25.4073 C   0  0  0  0  0  0  0  0  0  0  0  0
    4.1411   -0.0396   25.3694 C   0  0  0  0  0  0  0  0  0  0  0  0
    5.3813   -0.6825   25.4383 C   0  0  0  0  0  0  0  0  0  0  0  0
    6.2966   -0.0954   25.4209 H   0  0  0  0  0  0  0  0  0  0  0  0
    4.0954    1.0478   25.3450 H   0  0  0  0  0  0  0  0  0  0  0  0
    1.9910   -0.2996   25.3633 H   0  0  0  0  0  0  0  0  0  0  0  0
    2.1227   -2.7747   25.5646 H   0  0  0  0  0  0  0  0  0  0  0  0
    4.3228   -3.9075   25.7083 H   0  0  0  0  0  0  0  0  0  0  0  0
    7.4236   -2.2232   26.5022 H   0  0  0  0  0  0  0  0  0  0  0  0
    8.1790   -4.2769   25.6096 H   0  0  0  0  0  0  0  0  0  0  0  0
    5.8497   -5.1963   24.2275 H   0  0  0  0  0  0  0  0  0  0  0  0
    7.4799   -5.2079   23.5783 H   0  0  0  0  0  0  0  0  0  0  0  0
    5.4749   -3.0483   23.2030 H   0  0  0  0  0  0  0  0  0  0  0  0
    5.6506   -1.7213   21.7011 H   0  0  0  0  0  0  0  0  0  0  0  0
    6.5986   -0.0665   19.9302 C   0  0  0  0  0  0  0  0  0  0  0  0
    5.3840    0.6023   20.1518 C   0  0  0  0  0  0  0  0  0  0  0  0
    4.7921    1.2849   19.0858 C   0  0  0  0  0  0  0  0  0  0  0  0
    5.4271    1.2674   17.8379 C   0  0  0  0  0  0  0  0  0  0  0  0
    6.5678    0.6050   17.5967 N   0  0  0  0  0  0  0  0  0  0  0  0
    7.1210   -0.0397   18.6303 C   0  0  0  0  0  0  0  0  0  0  0  0
    8.0495   -0.5733   18.4171 H   0  0  0  0  0  0  0  0  0  0  0  0
    4.9987    1.7984   16.9909 H   0  0  0  0  0  0  0  0  0  0  0  0
    3.8651    1.8350   19.2081 H   0  0  0  0  0  0  0  0  0  0  0  0
    4.9104    0.6044   21.1388 H   0  0  0  0  0  0  0  0  0  0  0  0
    8.3028   -1.1622   20.5665 H   0  0  0  0  0  0  0  0  0  0  0  0
    6.9460    0.6191   22.6584 H   0  0  0  0  0  0  0  0  0  0  0  0
    8.4043    1.0318   21.7270 H   0  0  0  0  0  0  0  0  0  0  0  0
    8.4292   -0.3449   22.8577 H   0  0  0  0  0  0  0  0  0  0  0  0
  1  2  1  0
  2  3  1  0
  3  4  1  0
  4  5  2  0
  4  6  1  0
  6  7  1  0
  7  8  1  0
  8  9  2  3
  9 10  1  0
 10 11  2  0
 11 12  1  0
 12 13  2  0
 13 14  1  0
 14 15  2  0
 15 16  1  0
 14 17  1  0
 13 18  1  0
 12 19  1  0
 11 20  1  0
  9 21  1  0
  8 22  1  0
  7 23  1  0
  7 24  1  0
  6 25  1  0
  3 26  1  0
  2 27  1  0
 27 28  2  0
 28 29  1  0
 29 30  2  0
 30 31  1  0
 31 32  2  0
 32 33  1  0
 30 34  1  0
 29 35  1  0
 28 36  1  0
  2 37  1  6
  1 38  1  0
  1 39  1  0
  1 40  1  0
 15 10  1  0
 32 27  1  0
M  END
>  <cnnaffinity>  (1) 
-4.78616

>  <filename>  (1) 
C[C@@H](NC(=O)NCC=Cc1ccccc1)c1cccnc1

$$$$
