
     RDKit          3D

 42 44  0  0  0  0  0  0  0  0999 V2000
    4.9964    1.8428   16.9260 H   0  0  0  0  0  0  0  0  0  0  0  0
    5.4534    1.3106   17.7601 C   0  0  0  0  0  0  0  0  0  0  0  0
    6.6255    0.7027   17.5058 N   0  0  0  0  0  0  0  0  0  0  0  0
    7.2239    0.0552   18.5161 C   0  0  0  0  0  0  0  0  0  0  0  0
    8.1788   -0.4167   18.2772 H   0  0  0  0  0  0  0  0  0  0  0  0
    6.6874   -0.0492   19.8205 C   0  0  0  0  0  0  0  0  0  0  0  0
    7.3987   -0.7076   20.8843 N   0  0  0  0  0  0  0  0  0  0  0  0
    8.3491   -0.4116   21.0323 H   0  0  0  0  0  0  0  0  0  0  0  0
    6.8178   -1.4673   21.8991 C   0  0  0  0  0  0  0  0  0  0  0  0
    5.8105   -2.1127   21.6913 O   0  0  0  0  0  0  0  0  0  0  0  0
    7.5529   -1.5168   23.3211 C   0  0  2  0  0  0  0  0  0  0  0  0
    7.0389   -2.3603   23.7948 H   0  0  0  0  0  0  0  0  0  0  0  0
    7.4072   -0.3750   24.2632 N   0  0  0  0  0  0  0  0  0  0  0  0
    7.8687    0.9432   23.7901 C   0  0  0  0  0  0  0  0  0  0  0  0
    7.6561    1.0710   22.7181 H   0  0  0  0  0  0  0  0  0  0  0  0
    8.9556    1.0522   23.9135 H   0  0  0  0  0  0  0  0  0  0  0  0
    7.0828    1.9613   24.6161 C   0  0  0  0  0  0  0  0  0  0  0  0
    6.9496    2.9141   24.0960 H   0  0  0  0  0  0  0  0  0  0  0  0
    7.6179    2.1731   25.5521 H   0  0  0  0  0  0  0  0  0  0  0  0
    5.7429    1.2608   24.8700 C   0  0  2  0  0  0  0  0  0  0  0  0
    5.0731    1.4087   24.0120 H   0  0  0  0  0  0  0  0  0  0  0  0
    5.0427    1.5972   26.1935 C   0  0  0  0  0  0  0  0  0  0  0  0
    4.0293    1.9861   26.0273 H   0  0  0  0  0  0  0  0  0  0  0  0
    5.5919    2.3930   26.7307 H   0  0  0  0  0  0  0  0  0  0  0  0
    4.9985    0.3440   26.9571 N   0  0  0  0  0  0  0  0  0  0  0  0
    4.8985    0.5093   28.3963 C   0  0  0  0  0  0  0  0  0  0  0  0
    5.8028    0.9449   28.8637 H   0  0  0  0  0  0  0  0  0  0  0  0
    4.0558    1.1675   28.6397 H   0  0  0  0  0  0  0  0  0  0  0  0
    4.7043   -0.4532   28.8843 H   0  0  0  0  0  0  0  0  0  0  0  0
    6.1042   -0.5019   26.4809 C   0  0  0  0  0  0  0  0  0  0  0  0
    7.0864   -0.2621   26.9277 H   0  0  0  0  0  0  0  0  0  0  0  0
    5.9033   -1.5603   26.6938 H   0  0  0  0  0  0  0  0  0  0  0  0
    6.1261   -0.2249   24.9670 C   0  0  2  0  0  0  0  0  0  0  0  0
    5.3462   -0.8548   24.5416 H   0  0  0  0  0  0  0  0  0  0  0  0
    9.0397   -1.8721   23.2127 C   0  0  0  0  0  0  0  0  0  0  0  0
    9.6354   -1.0550   22.7949 H   0  0  0  0  0  0  0  0  0  0  0  0
    9.1776   -2.7589   22.5887 H   0  0  0  0  0  0  0  0  0  0  0  0
    9.4363   -2.0915   24.2084 H   0  0  0  0  0  0  0  0  0  0  0  0
    5.4532    0.5758   20.0564 C   0  0  0  0  0  0  0  0  0  0  0  0
    5.0040    0.5259   21.0481 H   0  0  0  0  0  0  0  0  0  0  0  0
    4.8342    1.2756   19.0107 C   0  0  0  0  0  0  0  0  0  0  0  0
    3.8993    1.8082   19.1614 H   0  0  0  0  0  0  0  0  0  0  0  0
  1  2  1  0
  2  3  2  0
  3  4  1  0
  4  5  1  0
  4  6  2  0
  6  7  1  0
  7  8  1  0
  7  9  1  0
  9 10  2  0
  9 11  1  0
 11 12  1  1
 11 13  1  0
 13 14  1  0
 14 15  1  0
 14 16  1  0
 14 17  1  0
 17 18  1  0
 17 19  1  0
 17 20  1  0
 20 21  1  6
 20 22  1  0
 22 23  1  0
 22 24  1  0
 22 25  1  0
 25 26  1  0
 26 27  1  0
 26 28  1  0
 26 29  1  0
 25 30  1  0
 30 31  1  0
 30 32  1  0
 30 33  1  0
 33 34  1  6
 11 35  1  0
 35 36  1  0
 35 37  1  0
 35 38  1  0
  6 39  1  0
 39 40  1  0
 39 41  2  0
 41 42  1  0
 41  2  1  0
 33 13  1  0
 33 20  1  0
M  END
>  <cnnaffinity>  (1) 
-4.83974

>  <filename>  (1) 
C[C@H](C(=O)Nc1cccnc1)N1CC[C@@H]2CN(C)C[C@@H]21

$$$$
