
     RDKit          3D

 34 36  0  0  0  0  0  0  0  0999 V2000
    4.9858    1.8370   16.9443 H   0  0  0  0  0  0  0  0  0  0  0  0
    5.4544    1.3176   17.7762 C   0  0  0  0  0  0  0  0  0  0  0  0
    6.6239    0.7106   17.5093 N   0  0  0  0  0  0  0  0  0  0  0  0
    7.2244    0.0566   18.5145 C   0  0  0  0  0  0  0  0  0  0  0  0
    8.1793   -0.4191   18.2968 H   0  0  0  0  0  0  0  0  0  0  0  0
    6.6952   -0.0480   19.8190 C   0  0  0  0  0  0  0  0  0  0  0  0
    7.4199   -0.7143   20.8654 N   0  0  0  0  0  0  0  0  0  0  0  0
    8.1394   -0.1502   21.2924 H   0  0  0  0  0  0  0  0  0  0  0  0
    6.8451   -1.6066   21.7533 C   0  0  0  0  0  0  0  0  0  0  0  0
    5.8586   -2.2607   21.4838 O   0  0  0  0  0  0  0  0  0  0  0  0
    7.6110   -1.8303   23.0819 C   0  0  2  0  0  0  0  0  0  0  0  0
    6.8350   -2.2201   23.7515 H   0  0  0  0  0  0  0  0  0  0  0  0
    8.1803   -0.5701   23.7458 C   0  0  0  0  0  0  0  0  0  0  0  0
    9.4484   -0.0486   23.4454 C   0  0  0  0  0  0  0  0  0  0  0  0
   10.0986   -0.5675   22.7393 H   0  0  0  0  0  0  0  0  0  0  0  0
    9.9446    1.1252   24.0664 C   0  0  0  0  0  0  0  0  0  0  0  0
   10.9219    1.5334   23.8378 H   0  0  0  0  0  0  0  0  0  0  0  0
    9.1183    1.7600   24.9764 C   0  0  0  0  0  0  0  0  0  0  0  0
    7.8604    1.2457   25.2904 C   0  0  0  0  0  0  0  0  0  0  0  0
    7.3764    0.0854   24.7149 C   0  0  0  0  0  0  0  0  0  0  0  0
    6.4151   -0.3229   25.0227 H   0  0  0  0  0  0  0  0  0  0  0  0
    7.2481    2.0590   26.2035 O   0  0  0  0  0  0  0  0  0  0  0  0
    8.1938    3.0764   26.5279 C   0  0  0  0  0  0  0  0  0  0  0  0
    8.4768    2.9839   27.5850 H   0  0  0  0  0  0  0  0  0  0  0  0
    7.7611    4.0626   26.3228 H   0  0  0  0  0  0  0  0  0  0  0  0
    9.3444    2.8989   25.7009 O   0  0  0  0  0  0  0  0  0  0  0  0
    8.6386   -2.9648   22.8763 C   0  0  0  0  0  0  0  0  0  0  0  0
    9.3638   -2.7207   22.0898 H   0  0  0  0  0  0  0  0  0  0  0  0
    9.1777   -3.1600   23.8085 H   0  0  0  0  0  0  0  0  0  0  0  0
    8.1230   -3.8878   22.5849 H   0  0  0  0  0  0  0  0  0  0  0  0
    5.4738    0.5895   20.0777 C   0  0  0  0  0  0  0  0  0  0  0  0
    5.0429    0.5468   21.0765 H   0  0  0  0  0  0  0  0  0  0  0  0
    4.8448    1.2839   19.0334 C   0  0  0  0  0  0  0  0  0  0  0  0
    3.9090    1.8119   19.1891 H   0  0  0  0  0  0  0  0  0  0  0  0
  1  2  1  0
  2  3  2  0
  3  4  1  0
  4  5  1  0
  4  6  2  0
  6  7  1  0
  7  8  1  0
  7  9  1  0
  9 10  2  0
  9 11  1  0
 11 12  1  1
 11 13  1  0
 13 14  2  0
 14 15  1  0
 14 16  1  0
 16 17  1  0
 16 18  2  0
 18 19  1  0
 19 20  2  0
 20 21  1  0
 19 22  1  0
 22 23  1  0
 23 24  1  0
 23 25  1  0
 23 26  1  0
 11 27  1  0
 27 28  1  0
 27 29  1  0
 27 30  1  0
  6 31  1  0
 31 32  1  0
 31 33  2  0
 33 34  1  0
 33  2  1  0
 20 13  1  0
 26 18  1  0
M  END
>  <cnnaffinity>  (1) 
-5.25331

>  <filename>  (1) 
C[C@H](C(=O)Nc1cccnc1)c1ccc2c(c1)OCO2

$$$$
