
     RDKit          3D

 44 47  0  0  0  0  0  0  0  0999 V2000
    8.7355   -0.9525   25.2227 C   0  0  0  0  0  0  0  0  0  0  0  0
    7.7343   -1.7468   24.3635 C   0  0  2  0  0  0  0  0  0  0  0  0
    7.6839   -1.2891   22.8971 C   0  0  0  0  0  0  0  0  0  0  0  0
    6.7252   -0.7004   22.2031 N   0  0  0  0  0  0  0  0  0  0  0  0
    7.2677   -0.5326   20.9728 C   0  0  0  0  0  0  0  0  0  0  0  0
    6.5507    0.1006   19.8638 C   0  0  0  0  0  0  0  0  0  0  0  0
    5.3145    0.7594   20.0089 C   0  0  0  0  0  0  0  0  0  0  0  0
    4.7700    1.3864   18.8864 C   0  0  0  0  0  0  0  0  0  0  0  0
    5.4550    1.3162   17.6689 C   0  0  0  0  0  0  0  0  0  0  0  0
    6.6088    0.6530   17.5115 N   0  0  0  0  0  0  0  0  0  0  0  0
    7.1345    0.0632   18.5889 C   0  0  0  0  0  0  0  0  0  0  0  0
    8.0689   -0.4734   18.4355 H   0  0  0  0  0  0  0  0  0  0  0  0
    5.0630    1.8038   16.7758 H   0  0  0  0  0  0  0  0  0  0  0  0
    3.8333    1.9329   18.9265 H   0  0  0  0  0  0  0  0  0  0  0  0
    4.7850    0.7850   20.9631 H   0  0  0  0  0  0  0  0  0  0  0  0
    8.5014   -1.0014   20.8573 N   0  0  0  0  0  0  0  0  0  0  0  0
    8.7654   -1.4732   22.0965 N   0  0  0  0  0  0  0  0  0  0  0  0
    9.9999   -2.2096   22.2870 C   0  0  0  0  0  0  0  0  0  0  0  0
   11.2310   -1.3574   22.0520 C   0  0  0  0  0  0  0  0  0  0  0  0
   11.3204   -0.3612   22.9861 F   0  0  0  0  0  0  0  0  0  0  0  0
   12.3146   -2.1641   22.2345 F   0  0  0  0  0  0  0  0  0  0  0  0
   11.2764   -0.9327   21.0428 H   0  0  0  0  0  0  0  0  0  0  0  0
   10.0171   -3.0229   21.5657 H   0  0  0  0  0  0  0  0  0  0  0  0
   10.0680   -2.6377   23.2873 H   0  0  0  0  0  0  0  0  0  0  0  0
    6.4253   -1.7824   25.0173 N   0  0  0  0  0  0  0  0  0  0  0  0
    5.7298   -0.5730   25.4375 C   0  0  0  0  0  0  0  0  0  0  0  0
    4.3044   -1.0486   25.5831 C   0  0  0  0  0  0  0  0  0  0  0  0
    3.1541   -0.3369   25.9241 C   0  0  0  0  0  0  0  0  0  0  0  0
    1.9114   -0.9703   25.7939 C   0  0  0  0  0  0  0  0  0  0  0  0
    1.8242   -2.3112   25.3761 C   0  0  0  0  0  0  0  0  0  0  0  0
    2.9830   -3.0412   25.0920 C   0  0  0  0  0  0  0  0  0  0  0  0
    4.2142   -2.3857   25.2034 C   0  0  0  0  0  0  0  0  0  0  0  0
    5.5766   -2.8654   24.8419 C   0  0  0  0  0  0  0  0  0  0  0  0
    5.9251   -3.9602   24.4414 O   0  0  0  0  0  0  0  0  0  0  0  0
    2.9424   -4.0829   24.7773 H   0  0  0  0  0  0  0  0  0  0  0  0
    0.8511   -2.7799   25.2612 H   0  0  0  0  0  0  0  0  0  0  0  0
    1.0010   -0.4181   26.0130 H   0  0  0  0  0  0  0  0  0  0  0  0
    3.2098    0.6913   26.2709 H   0  0  0  0  0  0  0  0  0  0  0  0
    6.1399   -0.1742   26.3745 H   0  0  0  0  0  0  0  0  0  0  0  0
    5.8118    0.2056   24.6628 H   0  0  0  0  0  0  0  0  0  0  0  0
    8.0635   -2.7939   24.3506 H   0  0  0  0  0  0  0  0  0  0  0  0
    9.7530   -1.0041   24.8254 H   0  0  0  0  0  0  0  0  0  0  0  0
    8.4635    0.1075   25.2871 H   0  0  0  0  0  0  0  0  0  0  0  0
    8.7378   -1.3705   26.2330 H   0  0  0  0  0  0  0  0  0  0  0  0
  1  2  1  0
  2  3  1  0
  3  4  2  0
  4  5  1  0
  5  6  1  0
  6  7  2  0
  7  8  1  0
  8  9  2  0
  9 10  1  0
 10 11  2  0
 11 12  1  0
  9 13  1  0
  8 14  1  0
  7 15  1  0
  5 16  2  0
 16 17  1  0
 17 18  1  0
 18 19  1  0
 19 20  1  0
 19 21  1  0
 19 22  1  0
 18 23  1  0
 18 24  1  0
  2 25  1  0
 25 26  1  0
 26 27  1  0
 27 28  2  0
 28 29  1  0
 29 30  2  0
 30 31  1  0
 31 32  2  0
 32 33  1  0
 33 34  2  0
 31 35  1  0
 30 36  1  0
 29 37  1  0
 28 38  1  0
 26 39  1  0
 26 40  1  0
  2 41  1  6
  1 42  1  0
  1 43  1  0
  1 44  1  0
 17  3  1  0
 33 25  1  0
 11  6  1  0
 32 27  1  0
M  END
>  <cnnaffinity>  (1) 
-6.12366

>  <filename>  (1) 
C[C@H](c1nc(-c2cccnc2)nn1CC(F)F)N1Cc2ccccc2C1=O

$$$$
