
     RDKit          3D

 37 40  0  0  0  0  0  0  0  0999 V2000
    5.6900    6.6117   22.7705 C   0  0  0  0  0  0  0  0  0  0  0  0
    6.8713    5.7434   23.1943 C   0  0  2  0  0  0  0  0  0  0  0  0
    7.3780    4.8119   22.0638 C   0  0  0  0  0  0  0  0  0  0  0  0
    7.2226    3.4324   22.6286 C   0  0  0  0  0  0  0  0  0  0  0  0
    7.5064    2.2079   22.0630 C   0  0  0  0  0  0  0  0  0  0  0  0
    7.2480    1.0317   22.7902 C   0  0  0  0  0  0  0  0  0  0  0  0
    7.5600   -0.2976   22.2448 C   0  0  0  0  0  0  0  0  0  0  0  0
    8.1849   -1.3477   22.8798 C   0  0  0  0  0  0  0  0  0  0  0  0
    8.3494   -2.3207   21.8805 C   0  0  0  0  0  0  0  0  0  0  0  0
    7.8630   -1.9256   20.7141 N   0  0  0  0  0  0  0  0  0  0  0  0
    7.3612   -0.6930   20.9379 N   0  0  0  0  0  0  0  0  0  0  0  0
    6.6490   -0.0147   19.9106 C   0  0  0  0  0  0  0  0  0  0  0  0
    5.4278    0.6279   20.1627 C   0  0  0  0  0  0  0  0  0  0  0  0
    4.8079    1.2968   19.1058 C   0  0  0  0  0  0  0  0  0  0  0  0
    5.4082    1.2896   17.8432 C   0  0  0  0  0  0  0  0  0  0  0  0
    6.5760    0.6702   17.5965 N   0  0  0  0  0  0  0  0  0  0  0  0
    7.1759    0.0355   18.6078 C   0  0  0  0  0  0  0  0  0  0  0  0
    8.1238   -0.4422   18.3789 H   0  0  0  0  0  0  0  0  0  0  0  0
    4.9310    1.7820   16.9975 H   0  0  0  0  0  0  0  0  0  0  0  0
    3.8806    1.8357   19.2566 H   0  0  0  0  0  0  0  0  0  0  0  0
    5.0123    0.6404   21.1724 H   0  0  0  0  0  0  0  0  0  0  0  0
    8.8047   -3.2986   21.9697 H   0  0  0  0  0  0  0  0  0  0  0  0
    8.5180   -1.3578   23.9078 H   0  0  0  0  0  0  0  0  0  0  0  0
    6.7328    1.1309   24.0996 C   0  0  0  0  0  0  0  0  0  0  0  0
    6.4396    2.3616   24.6875 C   0  0  0  0  0  0  0  0  0  0  0  0
    6.6962    3.5094   23.9285 C   0  0  0  0  0  0  0  0  0  0  0  0
    6.5128    4.8200   24.2579 N   0  0  0  0  0  0  0  0  0  0  0  0
    6.1389    5.1126   25.1343 H   0  0  0  0  0  0  0  0  0  0  0  0
    6.0464    2.4330   25.7012 H   0  0  0  0  0  0  0  0  0  0  0  0
    6.5614    0.2120   24.6539 H   0  0  0  0  0  0  0  0  0  0  0  0
    7.9119    2.1406   21.0578 H   0  0  0  0  0  0  0  0  0  0  0  0
    8.4160    5.0205   21.7956 H   0  0  0  0  0  0  0  0  0  0  0  0
    6.7991    4.9351   21.1429 H   0  0  0  0  0  0  0  0  0  0  0  0
    7.6917    6.3916   23.5341 H   0  0  0  0  0  0  0  0  0  0  0  0
    5.9740    7.2549   21.9313 H   0  0  0  0  0  0  0  0  0  0  0  0
    5.3450    7.2470   23.5920 H   0  0  0  0  0  0  0  0  0  0  0  0
    4.8567    5.9797   22.4453 H   0  0  0  0  0  0  0  0  0  0  0  0
  1  2  1  0
  2  3  1  0
  3  4  1  0
  4  5  2  0
  5  6  1  0
  6  7  1  0
  7  8  2  0
  8  9  1  0
  9 10  2  0
 10 11  1  0
 11 12  1  0
 12 13  2  0
 13 14  1  0
 14 15  2  0
 15 16  1  0
 16 17  2  0
 17 18  1  0
 15 19  1  0
 14 20  1  0
 13 21  1  0
  9 22  1  0
  8 23  1  0
  6 24  2  0
 24 25  1  0
 25 26  2  0
 26 27  1  0
 27 28  1  0
 25 29  1  0
 24 30  1  0
  5 31  1  0
  3 32  1  0
  3 33  1  0
  2 34  1  1
  1 35  1  0
  1 36  1  0
  1 37  1  0
 27  2  1  0
 26  4  1  0
 11  7  1  0
 17 12  1  0
M  END
>  <cnnaffinity>  (1) 
-5.19005

>  <filename>  (1) 
C[C@@H]1Cc2cc(-c3ccnn3-c3cccnc3)ccc2N1

$$$$
