
     RDKit          3D

 34 35  0  0  0  0  0  0  0  0999 V2000
    7.5119   -4.6428   21.8949 H   0  0  0  0  0  0  0  0  0  0  0  0
    7.0152   -4.0185   21.3527 O   0  0  0  0  0  0  0  0  0  0  0  0
    7.1665   -2.7192   21.9443 C   0  0  1  0  0  0  0  0  0  0  0  0
    6.2710   -2.5103   22.5515 H   0  0  0  0  0  0  0  0  0  0  0  0
    8.3707   -2.7475   22.8845 C   0  0  0  0  0  0  0  0  0  0  0  0
    8.1661   -2.8935   24.2700 C   0  0  0  0  0  0  0  0  0  0  0  0
    7.1563   -2.8010   24.6685 H   0  0  0  0  0  0  0  0  0  0  0  0
    9.2300   -3.1900   25.1257 C   0  0  0  0  0  0  0  0  0  0  0  0
    9.0624   -3.2985   26.1964 H   0  0  0  0  0  0  0  0  0  0  0  0
   10.5168   -3.3684   24.6100 C   0  0  0  0  0  0  0  0  0  0  0  0
   11.3220   -3.7227   25.2422 H   0  0  0  0  0  0  0  0  0  0  0  0
   10.7507   -3.1753   23.2486 C   0  0  0  0  0  0  0  0  0  0  0  0
   11.7452   -3.3251   22.8412 H   0  0  0  0  0  0  0  0  0  0  0  0
    9.6909   -2.8314   22.4030 C   0  0  0  0  0  0  0  0  0  0  0  0
    9.8903   -2.6635   21.3483 H   0  0  0  0  0  0  0  0  0  0  0  0
    7.1914   -1.7674   20.7472 C   0  0  0  0  0  0  0  0  0  0  0  0
    8.1102   -1.9700   20.1897 H   0  0  0  0  0  0  0  0  0  0  0  0
    6.3719   -2.1014   20.1029 H   0  0  0  0  0  0  0  0  0  0  0  0
    7.0904   -0.2499   20.9984 C   0  0  2  0  0  0  0  0  0  0  0  0
    6.4312   -0.0823   21.8648 H   0  0  0  0  0  0  0  0  0  0  0  0
    6.4387    0.4327   19.7978 C   0  0  0  0  0  0  0  0  0  0  0  0
    7.0266    0.3736   18.5223 C   0  0  0  0  0  0  0  0  0  0  0  0
    7.9831   -0.1340   18.3818 H   0  0  0  0  0  0  0  0  0  0  0  0
    6.4946    0.9004   17.4096 N   0  0  0  0  0  0  0  0  0  0  0  0
    5.3188    1.5335   17.5306 C   0  0  0  0  0  0  0  0  0  0  0  0
    4.9120    1.9566   16.6140 H   0  0  0  0  0  0  0  0  0  0  0  0
    4.6365    1.6559   18.7433 C   0  0  0  0  0  0  0  0  0  0  0  0
    3.6884    2.1828   18.7768 H   0  0  0  0  0  0  0  0  0  0  0  0
    5.2077    1.0995   19.8923 C   0  0  0  0  0  0  0  0  0  0  0  0
    4.7075    1.1799   20.8585 H   0  0  0  0  0  0  0  0  0  0  0  0
    8.4781    0.3236   21.3204 C   0  0  0  0  0  0  0  0  0  0  0  0
    8.9018   -0.1831   22.1931 H   0  0  0  0  0  0  0  0  0  0  0  0
    8.4307    1.3980   21.5214 H   0  0  0  0  0  0  0  0  0  0  0  0
    9.1780    0.1562   20.4896 H   0  0  0  0  0  0  0  0  0  0  0  0
  1  2  1  0
  2  3  1  0
  3  4  1  1
  3  5  1  0
  5  6  2  0
  6  7  1  0
  6  8  1  0
  8  9  1  0
  8 10  2  0
 10 11  1  0
 10 12  1  0
 12 13  1  0
 12 14  2  0
 14 15  1  0
  3 16  1  0
 16 17  1  0
 16 18  1  0
 16 19  1  0
 19 20  1  1
 19 21  1  0
 21 22  2  0
 22 23  1  0
 22 24  1  0
 24 25  2  0
 25 26  1  0
 25 27  1  0
 27 28  1  0
 27 29  2  0
 29 30  1  0
 19 31  1  0
 31 32  1  0
 31 33  1  0
 31 34  1  0
 14  5  1  0
 29 21  1  0
M  END
>  <cnnaffinity>  (1) 
-4.63951

>  <filename>  (1) 
C[C@H](C[C@@H](O)c1ccccc1)c1cccnc1

$$$$
