
     RDKit          3D

 36 37  0  0  0  0  0  0  0  0999 V2000
    6.7015   -2.0007   21.3159 C   0  0  0  0  0  0  0  0  0  0  0  0
    7.4307   -0.7024   21.0021 C   0  0  2  0  0  0  0  0  0  0  0  0
    7.5458    0.1388   22.1842 N   0  0  0  0  0  0  0  0  0  0  0  0
    8.2826    1.3065   22.1686 C   0  0  0  0  0  0  0  0  0  0  0  0
    8.9673    1.5699   21.1825 O   0  0  0  0  0  0  0  0  0  0  0  0
    8.2748    2.1254   23.2915 N   0  0  0  0  0  0  0  0  0  0  0  0
    7.5720    1.7748   24.5358 C   0  0  0  0  0  0  0  0  0  0  0  0
    7.7842    2.5112   25.3217 H   0  0  0  0  0  0  0  0  0  0  0  0
    7.8827    0.7934   24.9132 H   0  0  0  0  0  0  0  0  0  0  0  0
    6.4890    1.7628   24.3694 H   0  0  0  0  0  0  0  0  0  0  0  0
    8.9758    3.3335   23.2732 C   0  0  0  0  0  0  0  0  0  0  0  0
    8.4757    4.3863   22.5094 C   0  0  0  0  0  0  0  0  0  0  0  0
    9.1307    5.6218   22.4842 C   0  0  0  0  0  0  0  0  0  0  0  0
   10.2886    5.8043   23.2416 C   0  0  0  0  0  0  0  0  0  0  0  0
   10.8102    4.7471   23.9996 C   0  0  0  0  0  0  0  0  0  0  0  0
   10.1708    3.4935   23.9912 C   0  0  0  0  0  0  0  0  0  0  0  0
   10.9483    1.9729   24.8669 Br  0  0  0  0  0  0  0  0  0  0  0  0
   11.7203    4.8997   24.5731 H   0  0  0  0  0  0  0  0  0  0  0  0
   10.7950    6.7629   23.2073 H   0  0  0  0  0  0  0  0  0  0  0  0
    8.7528    6.4228   21.8559 H   0  0  0  0  0  0  0  0  0  0  0  0
    7.5810    4.2156   21.9221 H   0  0  0  0  0  0  0  0  0  0  0  0
    6.9365   -0.0274   22.9836 H   0  0  0  0  0  0  0  0  0  0  0  0
    6.6746    0.0303   19.9230 C   0  0  0  0  0  0  0  0  0  0  0  0
    5.4487    0.6581   20.1629 C   0  0  0  0  0  0  0  0  0  0  0  0
    4.8190    1.2970   19.0968 C   0  0  0  0  0  0  0  0  0  0  0  0
    5.4092    1.2907   17.8313 C   0  0  0  0  0  0  0  0  0  0  0  0
    6.5748    0.6677   17.5871 N   0  0  0  0  0  0  0  0  0  0  0  0
    7.1912    0.0608   18.6214 C   0  0  0  0  0  0  0  0  0  0  0  0
    8.1356   -0.4360   18.4340 H   0  0  0  0  0  0  0  0  0  0  0  0
    4.9112    1.8201   17.0233 H   0  0  0  0  0  0  0  0  0  0  0  0
    3.8810    1.8186   19.2301 H   0  0  0  0  0  0  0  0  0  0  0  0
    4.9962    0.6565   21.1518 H   0  0  0  0  0  0  0  0  0  0  0  0
    8.4370   -0.9524   20.6437 H   0  0  0  0  0  0  0  0  0  0  0  0
    5.6861   -1.7848   21.6585 H   0  0  0  0  0  0  0  0  0  0  0  0
    7.2252   -2.5658   22.0926 H   0  0  0  0  0  0  0  0  0  0  0  0
    6.6489   -2.6150   20.4101 H   0  0  0  0  0  0  0  0  0  0  0  0
  1  2  1  0
  2  3  1  0
  3  4  1  0
  4  5  2  0
  4  6  1  0
  6  7  1  0
  7  8  1  0
  7  9  1  0
  7 10  1  0
  6 11  1  0
 11 12  2  0
 12 13  1  0
 13 14  2  0
 14 15  1  0
 15 16  2  0
 16 17  1  0
 15 18  1  0
 14 19  1  0
 13 20  1  0
 12 21  1  0
  3 22  1  0
  2 23  1  0
 23 24  2  0
 24 25  1  0
 25 26  2  0
 26 27  1  0
 27 28  2  0
 28 29  1  0
 26 30  1  0
 25 31  1  0
 24 32  1  0
  2 33  1  6
  1 34  1  0
  1 35  1  0
  1 36  1  0
 16 11  1  0
 28 23  1  0
M  END
>  <cnnaffinity>  (1) 
-5.29926

>  <filename>  (1) 
C[C@H](NC(=O)N(C)c1ccccc1Br)c1cccnc1

$$$$
