
     RDKit          3D

 36 37  0  0  0  0  0  0  0  0999 V2000
    4.9588    1.7747   17.0056 H   0  0  0  0  0  0  0  0  0  0  0  0
    5.4123    1.2781   17.8620 C   0  0  0  0  0  0  0  0  0  0  0  0
    6.5723    0.6560   17.6160 N   0  0  0  0  0  0  0  0  0  0  0  0
    7.1728    0.0439   18.6408 C   0  0  0  0  0  0  0  0  0  0  0  0
    8.1216   -0.4404   18.4256 H   0  0  0  0  0  0  0  0  0  0  0  0
    6.6502    0.0040   19.9362 C   0  0  0  0  0  0  0  0  0  0  0  0
    7.4539   -0.7478   20.9344 C   0  0  0  0  0  0  0  0  0  0  0  0
    8.5205   -1.2712   20.7189 O   0  0  0  0  0  0  0  0  0  0  0  0
    6.8043   -0.7600   22.1417 O   0  0  0  0  0  0  0  0  0  0  0  0
    7.3679   -1.4025   23.2976 C   0  0  2  0  0  0  0  0  0  0  0  0
    8.4076   -1.0863   23.4328 H   0  0  0  0  0  0  0  0  0  0  0  0
    7.2265   -2.9157   23.1941 C   0  0  0  0  0  0  0  0  0  0  0  0
    7.7465   -3.2891   22.3047 H   0  0  0  0  0  0  0  0  0  0  0  0
    6.1671   -3.1861   23.1370 H   0  0  0  0  0  0  0  0  0  0  0  0
    7.6651   -3.3911   24.0759 H   0  0  0  0  0  0  0  0  0  0  0  0
    6.6549   -0.7961   24.9384 S   0  0  0  0  0  0  0  0  0  0  0  0
    5.2746   -1.2156   25.1283 O   0  0  0  0  0  0  0  0  0  0  0  0
    7.6490   -1.1574   25.9478 O   0  0  0  0  0  0  0  0  0  0  0  0
    6.6411    0.9132   24.8750 N   0  0  0  0  0  0  0  0  0  0  0  0
    8.0039    1.4947   24.7460 C   0  0  0  0  0  0  0  0  0  0  0  0
    8.6713    1.1357   25.5442 H   0  0  0  0  0  0  0  0  0  0  0  0
    8.4244    1.2120   23.7733 H   0  0  0  0  0  0  0  0  0  0  0  0
    7.9275    3.0271   24.8002 C   0  0  0  0  0  0  0  0  0  0  0  0
    7.4090    3.4010   23.9032 H   0  0  0  0  0  0  0  0  0  0  0  0
    8.9374    3.4408   24.8209 H   0  0  0  0  0  0  0  0  0  0  0  0
    7.2795    3.4956   25.9724 O   0  0  0  0  0  0  0  0  0  0  0  0
    5.9577    2.9853   26.0547 C   0  0  0  0  0  0  0  0  0  0  0  0
    5.5402    3.3622   26.9907 H   0  0  0  0  0  0  0  0  0  0  0  0
    5.3516    3.3578   25.2142 H   0  0  0  0  0  0  0  0  0  0  0  0
    5.9324    1.4528   26.0752 C   0  0  0  0  0  0  0  0  0  0  0  0
    6.4018    1.1116   27.0128 H   0  0  0  0  0  0  0  0  0  0  0  0
    4.8932    1.1060   26.0483 H   0  0  0  0  0  0  0  0  0  0  0  0
    5.4284    0.6552   20.1898 C   0  0  0  0  0  0  0  0  0  0  0  0
    4.9739    0.6598   21.1838 H   0  0  0  0  0  0  0  0  0  0  0  0
    4.8066    1.3038   19.1247 C   0  0  0  0  0  0  0  0  0  0  0  0
    3.8726    1.8427   19.2445 H   0  0  0  0  0  0  0  0  0  0  0  0
  1  2  1  0
  2  3  2  0
  3  4  1  0
  4  5  1  0
  4  6  2  0
  6  7  1  0
  7  8  2  0
  7  9  1  0
  9 10  1  0
 10 11  1  1
 10 12  1  0
 12 13  1  0
 12 14  1  0
 12 15  1  0
 10 16  1  0
 16 17  2  0
 16 18  2  0
 16 19  1  0
 19 20  1  0
 20 21  1  0
 20 22  1  0
 20 23  1  0
 23 24  1  0
 23 25  1  0
 23 26  1  0
 26 27  1  0
 27 28  1  0
 27 29  1  0
 27 30  1  0
 30 31  1  0
 30 32  1  0
  6 33  1  0
 33 34  1  0
 33 35  2  0
 35 36  1  0
 35  2  1  0
 30 19  1  0
M  END
>  <cnnaffinity>  (1) 
-4.44581

>  <filename>  (1) 
C[C@@H](OC(=O)c1cccnc1)S(=O)(=O)N1CCOCC1

$$$$
