
     RDKit          3D

 40 42  0  0  0  0  0  0  0  0999 V2000
    8.7129    2.2305   20.9619 C   0  0  0  0  0  0  0  0  0  0  0  0
    8.7000    2.0589   22.4266 N   0  0  0  0  0  4  0  0  0  0  0  0
   10.0280    1.5981   22.8754 C   0  0  0  0  0  0  0  0  0  0  0  0
   10.9054    2.8077   23.0968 C   0  0  0  0  0  0  0  0  0  0  0  0
   11.9942    3.0569   22.2364 C   0  0  0  0  0  0  0  0  0  0  0  0
   12.8151    4.1781   22.4331 C   0  0  0  0  0  0  0  0  0  0  0  0
   12.5734    5.0495   23.4966 C   0  0  0  0  0  0  0  0  0  0  0  0
   11.4792    4.8148   24.3426 C   0  0  0  0  0  0  0  0  0  0  0  0
   10.6541    3.6931   24.1629 C   0  0  0  0  0  0  0  0  0  0  0  0
    9.2130    3.3616   25.3966 Br  0  0  0  0  0  0  0  0  0  0  0  0
   11.2595    5.4807   25.1685 H   0  0  0  0  0  0  0  0  0  0  0  0
   13.2374    5.8977   23.6632 H   0  0  0  0  0  0  0  0  0  0  0  0
   13.6589    4.3755   21.7776 H   0  0  0  0  0  0  0  0  0  0  0  0
   12.2265    2.3810   21.4172 H   0  0  0  0  0  0  0  0  0  0  0  0
    9.9351    1.0339   23.8112 H   0  0  0  0  0  0  0  0  0  0  0  0
   10.4772    0.9294   22.1281 H   0  0  0  0  0  0  0  0  0  0  0  0
    7.6189    1.1429   22.8797 C   0  0  0  0  0  0  0  0  0  0  0  0
    7.7896   -0.2182   22.2692 C   0  0  0  0  0  0  0  0  0  0  0  0
    8.2794   -1.3156   22.9160 C   0  0  0  0  0  0  0  0  0  0  0  0
    8.3975   -2.3368   21.9054 C   0  0  0  0  0  0  0  0  0  0  0  0
    7.9706   -1.8914   20.7507 N   0  0  0  0  0  0  0  0  0  0  0  0
    7.5446   -0.6113   20.9582 N   0  0  0  0  0  0  0  0  0  0  0  0
    6.8580    0.0982   19.9669 C   0  0  0  0  0  0  0  0  0  0  0  0
    5.7608    0.9282   20.2386 C   0  0  0  0  0  0  0  0  0  0  0  0
    5.1103    1.5202   19.1509 C   0  0  0  0  0  0  0  0  0  0  0  0
    5.5643    1.2838   17.8480 C   0  0  0  0  0  0  0  0  0  0  0  0
    6.6232    0.4949   17.5944 N   0  0  0  0  0  0  0  0  0  0  0  0
    7.2467   -0.0899   18.6338 C   0  0  0  0  0  0  0  0  0  0  0  0
    8.1012   -0.7285   18.4278 H   0  0  0  0  0  0  0  0  0  0  0  0
    5.0430    1.7450   17.0123 H   0  0  0  0  0  0  0  0  0  0  0  0
    4.2487    2.1641   19.2918 H   0  0  0  0  0  0  0  0  0  0  0  0
    5.3919    1.0856   21.2532 H   0  0  0  0  0  0  0  0  0  0  0  0
    8.8107   -3.3274   22.0751 H   0  0  0  0  0  0  0  0  0  0  0  0
    8.5713   -1.3971   23.9565 H   0  0  0  0  0  0  0  0  0  0  0  0
    7.6604    1.0327   23.9696 H   0  0  0  0  0  0  0  0  0  0  0  0
    6.6317    1.5407   22.6195 H   0  0  0  0  0  0  0  0  0  0  0  0
    8.5472    2.9769   22.8550 H   0  0  0  0  0  0  0  0  0  0  0  0
    7.7608    2.6374   20.6068 H   0  0  0  0  0  0  0  0  0  0  0  0
    9.5208    2.9118   20.6638 H   0  0  0  0  0  0  0  0  0  0  0  0
    8.8804    1.2669   20.4669 H   0  0  0  0  0  0  0  0  0  0  0  0
  1  2  1  0
  2  3  1  0
  3  4  1  0
  4  5  2  0
  5  6  1  0
  6  7  2  0
  7  8  1  0
  8  9  2  0
  9 10  1  0
  8 11  1  0
  7 12  1  0
  6 13  1  0
  5 14  1  0
  3 15  1  0
  3 16  1  0
  2 17  1  0
 17 18  1  0
 18 19  2  0
 19 20  1  0
 20 21  2  0
 21 22  1  0
 22 23  1  0
 23 24  2  0
 24 25  1  0
 25 26  2  0
 26 27  1  0
 27 28  2  0
 28 29  1  0
 26 30  1  0
 25 31  1  0
 24 32  1  0
 20 33  1  0
 19 34  1  0
 17 35  1  0
 17 36  1  0
  2 37  1  0
  1 38  1  0
  1 39  1  0
  1 40  1  0
  9  4  1  0
 22 18  1  0
 28 23  1  0
M  CHG  1   2   1
M  END
>  <cnnaffinity>  (1) 
-5.40662

>  <filename>  (1) 
C[NH+](Cc1ccccc1Br)Cc1ccnn1-c1cccnc1

$$$$
