
     RDKit          3D

 45 47  0  0  0  0  0  0  0  0999 V2000
    6.4705   -3.0475   20.7422 C   0  0  0  0  0  0  0  0  0  0  0  0
    6.6341   -1.8487   21.5940 N   0  0  0  0  0  4  0  0  0  0  0  0
    7.2651   -2.1049   22.9345 C   0  0  0  0  0  0  0  0  0  0  0  0
    7.8741   -0.7537   23.3526 C   0  0  0  0  0  0  0  0  0  0  0  0
    7.8420    0.1498   22.0998 C   0  0  1  0  0  0  0  0  0  0  0  0
    9.1390    0.8935   21.7559 C   0  0  0  0  0  0  0  0  0  0  0  0
    9.3297    2.1225   22.5542 N   0  0  0  0  0  4  0  0  0  0  0  0
    9.7032    1.9740   24.0193 C   0  0  0  0  0  0  0  0  0  0  0  0
   10.0688    3.3522   24.5199 C   0  0  0  0  0  0  0  0  0  0  0  0
    9.1667    4.1177   25.2824 C   0  0  0  0  0  0  0  0  0  0  0  0
    9.5613    5.3727   25.7625 C   0  0  0  0  0  0  0  0  0  0  0  0
   10.7801    5.8921   25.5648 N   0  0  0  0  0  0  0  0  0  0  0  0
   11.6260    5.1857   24.8009 C   0  0  0  0  0  0  0  0  0  0  0  0
   11.3213    3.9353   24.2582 C   0  0  0  0  0  0  0  0  0  0  0  0
   12.0749    3.4171   23.6670 H   0  0  0  0  0  0  0  0  0  0  0  0
   12.5986    5.6440   24.6112 H   0  0  0  0  0  0  0  0  0  0  0  0
    8.8552    5.9899   26.3202 H   0  0  0  0  0  0  0  0  0  0  0  0
    8.1499    3.7799   25.4526 H   0  0  0  0  0  0  0  0  0  0  0  0
    8.8590    1.5752   24.5864 H   0  0  0  0  0  0  0  0  0  0  0  0
   10.5387    1.2711   24.1376 H   0  0  0  0  0  0  0  0  0  0  0  0
    8.4372    2.6883   22.5512 H   0  0  0  0  0  0  0  0  0  0  0  0
   10.0645    2.7562   22.1559 H   0  0  0  0  0  0  0  0  0  0  0  0
    9.9840    0.2023   21.9068 H   0  0  0  0  0  0  0  0  0  0  0  0
    9.1318    1.1568   20.6931 H   0  0  0  0  0  0  0  0  0  0  0  0
    7.4388   -0.7539   20.9327 C   0  0  2  0  0  0  0  0  0  0  0  0
    6.6507   -0.0474   19.8569 C   0  0  0  0  0  0  0  0  0  0  0  0
    5.4331    0.6113   20.1045 C   0  0  0  0  0  0  0  0  0  0  0  0
    4.8124    1.2964   19.0586 C   0  0  0  0  0  0  0  0  0  0  0  0
    5.4214    1.3022   17.7988 C   0  0  0  0  0  0  0  0  0  0  0  0
    6.5712    0.6656   17.5388 N   0  0  0  0  0  0  0  0  0  0  0  0
    7.1545    0.0108   18.5503 C   0  0  0  0  0  0  0  0  0  0  0  0
    8.0851   -0.4992   18.3013 H   0  0  0  0  0  0  0  0  0  0  0  0
    4.9697    1.8437   16.9667 H   0  0  0  0  0  0  0  0  0  0  0  0
    3.8824    1.8384   19.2010 H   0  0  0  0  0  0  0  0  0  0  0  0
    4.9778    0.6038   21.1000 H   0  0  0  0  0  0  0  0  0  0  0  0
    8.3306   -1.2147   20.4839 H   0  0  0  0  0  0  0  0  0  0  0  0
    7.0430    0.8943   22.2365 H   0  0  0  0  0  0  0  0  0  0  0  0
    7.2905   -0.3027   24.1620 H   0  0  0  0  0  0  0  0  0  0  0  0
    8.8885   -0.8951   23.7459 H   0  0  0  0  0  0  0  0  0  0  0  0
    6.5164   -2.4786   23.6396 H   0  0  0  0  0  0  0  0  0  0  0  0
    8.0404   -2.8728   22.8317 H   0  0  0  0  0  0  0  0  0  0  0  0
    5.7000   -1.3965   21.7613 H   0  0  0  0  0  0  0  0  0  0  0  0
    6.0729   -2.7608   19.7616 H   0  0  0  0  0  0  0  0  0  0  0  0
    7.4492   -3.5268   20.5703 H   0  0  0  0  0  0  0  0  0  0  0  0
    5.8169   -3.7923   21.2108 H   0  0  0  0  0  0  0  0  0  0  0  0
  1  2  1  0
  2  3  1  0
  3  4  1  0
  4  5  1  0
  5  6  1  0
  6  7  1  0
  7  8  1  0
  8  9  1  0
  9 10  2  0
 10 11  1  0
 11 12  2  0
 12 13  1  0
 13 14  2  0
 14 15  1  0
 13 16  1  0
 11 17  1  0
 10 18  1  0
  8 19  1  0
  8 20  1  0
  7 21  1  0
  7 22  1  0
  6 23  1  0
  6 24  1  0
  5 25  1  0
 25 26  1  0
 26 27  2  0
 27 28  1  0
 28 29  2  0
 29 30  1  0
 30 31  2  0
 31 32  1  0
 29 33  1  0
 28 34  1  0
 27 35  1  0
 25 36  1  6
  5 37  1  1
  4 38  1  0
  4 39  1  0
  3 40  1  0
  3 41  1  0
  2 42  1  0
  1 43  1  0
  1 44  1  0
  1 45  1  0
 25  2  1  0
 31 26  1  0
 14  9  1  0
M  CHG  2   2   1   7   1
M  END
>  <cnnaffinity>  (1) 
-4.69732

>  <filename>  (1) 
C[NH+]1CC[C@@H](C[NH2+]Cc2ccncc2)[C@@H]1c1cccnc1

$$$$
