
     RDKit          3D

 40 41  0  0  0  0  0  0  0  0999 V2000
    8.4265   -4.1248   24.6254 C   0  0  0  0  0  0  0  0  0  0  0  0
    7.1921   -3.2885   24.9189 N   0  0  0  0  0  4  0  0  0  0  0  0
    6.7956   -2.4390   23.7377 C   0  0  0  0  0  0  0  0  0  0  0  0
    7.8712   -1.4313   23.3249 C   0  0  0  0  0  0  0  0  0  0  0  0
    7.2112   -0.3967   22.4318 C   0  0  0  0  0  0  0  0  0  0  0  0
    6.5679    0.5118   22.9161 O   0  0  0  0  0  0  0  0  0  0  0  0
    7.3227   -0.6450   21.0787 N   0  0  0  0  0  0  0  0  0  0  0  0
    6.7002    0.0298   19.9890 C   0  0  0  0  0  0  0  0  0  0  0  0
    5.5205    0.7681   20.1685 C   0  0  0  0  0  0  0  0  0  0  0  0
    4.9246    1.3499   19.0425 C   0  0  0  0  0  0  0  0  0  0  0  0
    5.5271    1.2122   17.7895 C   0  0  0  0  0  0  0  0  0  0  0  0
    6.6685    0.5282   17.6041 N   0  0  0  0  0  0  0  0  0  0  0  0
    7.2352   -0.0391   18.6758 C   0  0  0  0  0  0  0  0  0  0  0  0
    8.1777   -0.5556   18.4890 H   0  0  0  0  0  0  0  0  0  0  0  0
    5.0831    1.6701   16.9072 H   0  0  0  0  0  0  0  0  0  0  0  0
    4.0174    1.9359   19.1345 H   0  0  0  0  0  0  0  0  0  0  0  0
    5.1185    0.8928   21.1714 H   0  0  0  0  0  0  0  0  0  0  0  0
    7.9883   -1.3698   20.8553 H   0  0  0  0  0  0  0  0  0  0  0  0
    8.7261   -1.9166   22.8454 H   0  0  0  0  0  0  0  0  0  0  0  0
    8.2146   -0.9123   24.2227 H   0  0  0  0  0  0  0  0  0  0  0  0
    6.5429   -3.0968   22.8925 H   0  0  0  0  0  0  0  0  0  0  0  0
    5.8855   -1.8838   23.9921 H   0  0  0  0  0  0  0  0  0  0  0  0
    6.0267   -4.1850   25.3289 C   0  0  0  0  0  0  0  0  0  0  0  0
    6.0717   -4.7419   26.7401 C   0  0  0  0  0  0  0  0  0  0  0  0
    5.9302   -3.9216   27.8698 C   0  0  0  0  0  0  0  0  0  0  0  0
    5.8141   -4.4834   29.1488 C   0  0  0  0  0  0  0  0  0  0  0  0
    5.8501   -5.8686   29.3266 C   0  0  0  0  0  0  0  0  0  0  0  0
    5.6600   -6.5433   30.9122 Cl  0  0  0  0  0  0  0  0  0  0  0  0
    5.9911   -6.6901   28.2033 C   0  0  0  0  0  0  0  0  0  0  0  0
    6.0011   -8.0182   28.3418 F   0  0  0  0  0  0  0  0  0  0  0  0
    6.0949   -6.1362   26.9254 C   0  0  0  0  0  0  0  0  0  0  0  0
    6.1821   -6.8285   26.0914 H   0  0  0  0  0  0  0  0  0  0  0  0
    5.6997   -3.8486   30.0217 H   0  0  0  0  0  0  0  0  0  0  0  0
    5.8710   -2.8364   27.7891 H   0  0  0  0  0  0  0  0  0  0  0  0
    5.9792   -5.0210   24.6206 H   0  0  0  0  0  0  0  0  0  0  0  0
    5.1096   -3.6018   25.1892 H   0  0  0  0  0  0  0  0  0  0  0  0
    7.3863   -2.6676   25.7452 H   0  0  0  0  0  0  0  0  0  0  0  0
    8.6361   -4.7934   25.4611 H   0  0  0  0  0  0  0  0  0  0  0  0
    8.2621   -4.7428   23.7323 H   0  0  0  0  0  0  0  0  0  0  0  0
    9.3033   -3.4954   24.4521 H   0  0  0  0  0  0  0  0  0  0  0  0
  1  2  1  0
  2  3  1  0
  3  4  1  0
  4  5  1  0
  5  6  2  0
  5  7  1  0
  7  8  1  0
  8  9  2  0
  9 10  1  0
 10 11  2  0
 11 12  1  0
 12 13  2  0
 13 14  1  0
 11 15  1  0
 10 16  1  0
  9 17  1  0
  7 18  1  0
  4 19  1  0
  4 20  1  0
  3 21  1  0
  3 22  1  0
  2 23  1  0
 23 24  1  0
 24 25  2  0
 25 26  1  0
 26 27  2  0
 27 28  1  0
 27 29  1  0
 29 30  1  0
 29 31  2  0
 31 32  1  0
 26 33  1  0
 25 34  1  0
 23 35  1  0
 23 36  1  0
  2 37  1  0
  1 38  1  0
  1 39  1  0
  1 40  1  0
 13  8  1  0
 31 24  1  0
M  CHG  1   2   1
M  END
>  <cnnaffinity>  (1) 
-5.31209

>  <filename>  (1) 
C[NH+](CCC(=O)Nc1cccnc1)Cc1ccc(Cl)c(F)c1

$$$$
