
     RDKit          3D

 40 42  0  0  0  0  0  0  0  0999 V2000
   10.8226    2.5548   21.6863 C   0  0  0  0  0  0  0  0  0  0  0  0
    9.6311    1.6805   21.9307 N   0  0  0  0  0  4  0  0  0  0  0  0
    8.3153    2.5076   21.9615 C   0  0  0  0  0  0  0  0  0  0  0  0
    8.2617    3.4039   23.1713 C   0  0  0  0  0  0  0  0  0  0  0  0
    8.5852    4.7664   23.0492 C   0  0  0  0  0  0  0  0  0  0  0  0
    8.5357    5.6298   24.1451 C   0  0  0  0  0  0  0  0  0  0  0  0
    8.1650    5.1342   25.3996 C   0  0  0  0  0  0  0  0  0  0  0  0
    7.8500    3.7829   25.5572 C   0  0  0  0  0  0  0  0  0  0  0  0
    7.9035    2.9357   24.4481 C   0  0  0  0  0  0  0  0  0  0  0  0
    7.4969    1.2573   24.7052 Cl  0  0  0  0  0  0  0  0  0  0  0  0
    7.5550    3.3681   26.5179 H   0  0  0  0  0  0  0  0  0  0  0  0
    8.1151    5.7985   26.2568 H   0  0  0  0  0  0  0  0  0  0  0  0
    8.7775    6.6812   24.0136 H   0  0  0  0  0  0  0  0  0  0  0  0
    8.8794    5.1393   22.0688 H   0  0  0  0  0  0  0  0  0  0  0  0
    8.2783    3.1086   21.0481 H   0  0  0  0  0  0  0  0  0  0  0  0
    7.4799    1.8038   21.9568 H   0  0  0  0  0  0  0  0  0  0  0  0
    9.5605    0.5671   20.9139 C   0  0  0  0  0  0  0  0  0  0  0  0
    8.6274   -0.4881   21.3973 C   0  0  0  0  0  0  0  0  0  0  0  0
    8.8362   -1.3781   22.4231 C   0  0  0  0  0  0  0  0  0  0  0  0
    7.6191   -2.0783   22.5334 C   0  0  0  0  0  0  0  0  0  0  0  0
    6.7227   -1.6565   21.6551 N   0  0  0  0  0  0  0  0  0  0  0  0
    7.3486   -0.6950   20.9409 N   0  0  0  0  0  0  0  0  0  0  0  0
    6.6531   -0.0042   19.9111 C   0  0  0  0  0  0  0  0  0  0  0  0
    5.4367    0.6403   20.1708 C   0  0  0  0  0  0  0  0  0  0  0  0
    4.8136    1.3097   19.1113 C   0  0  0  0  0  0  0  0  0  0  0  0
    5.4052    1.2941   17.8413 C   0  0  0  0  0  0  0  0  0  0  0  0
    6.5623    0.6671   17.5886 N   0  0  0  0  0  0  0  0  0  0  0  0
    7.1693    0.0420   18.6044 C   0  0  0  0  0  0  0  0  0  0  0  0
    8.1110   -0.4410   18.3576 H   0  0  0  0  0  0  0  0  0  0  0  0
    4.9272    1.7843   16.9939 H   0  0  0  0  0  0  0  0  0  0  0  0
    3.8805    1.8406   19.2590 H   0  0  0  0  0  0  0  0  0  0  0  0
    5.0031    0.6148   21.1764 H   0  0  0  0  0  0  0  0  0  0  0  0
    7.3516   -2.8599   23.2309 H   0  0  0  0  0  0  0  0  0  0  0  0
    9.7375   -1.4713   23.0168 H   0  0  0  0  0  0  0  0  0  0  0  0
   10.5580    0.1296   20.7948 H   0  0  0  0  0  0  0  0  0  0  0  0
    9.2591    0.9933   19.9530 H   0  0  0  0  0  0  0  0  0  0  0  0
    9.6560    1.2348   22.8857 H   0  0  0  0  0  0  0  0  0  0  0  0
   10.7258    3.0435   20.7082 H   0  0  0  0  0  0  0  0  0  0  0  0
   10.9027    3.3290   22.4520 H   0  0  0  0  0  0  0  0  0  0  0  0
   11.7505    1.9686   21.6564 H   0  0  0  0  0  0  0  0  0  0  0  0
  1  2  1  0
  2  3  1  0
  3  4  1  0
  4  5  2  0
  5  6  1  0
  6  7  2  0
  7  8  1  0
  8  9  2  0
  9 10  1  0
  8 11  1  0
  7 12  1  0
  6 13  1  0
  5 14  1  0
  3 15  1  0
  3 16  1  0
  2 17  1  0
 17 18  1  0
 18 19  2  0
 19 20  1  0
 20 21  2  0
 21 22  1  0
 22 23  1  0
 23 24  2  0
 24 25  1  0
 25 26  2  0
 26 27  1  0
 27 28  2  0
 28 29  1  0
 26 30  1  0
 25 31  1  0
 24 32  1  0
 20 33  1  0
 19 34  1  0
 17 35  1  0
 17 36  1  0
  2 37  1  0
  1 38  1  0
  1 39  1  0
  1 40  1  0
  9  4  1  0
 22 18  1  0
 28 23  1  0
M  CHG  1   2   1
M  END
>  <cnnaffinity>  (1) 
-5.20327

>  <filename>  (1) 
C[NH+](Cc1ccccc1Cl)Cc1ccnn1-c1cccnc1

$$$$
