
     RDKit          3D

 49 51  0  0  0  0  0  0  0  0999 V2000
    7.1382    1.6962   26.9604 C   0  0  0  0  0  0  0  0  0  0  0  0
    7.9922    1.4709   25.7692 N   0  0  0  0  0  4  0  0  0  0  0  0
    7.2085    1.7137   24.4713 C   0  0  0  0  0  0  0  0  0  0  0  0
    8.1849    2.0495   23.3628 C   0  0  0  0  0  0  0  0  0  0  0  0
    9.0135    3.1785   23.4625 C   0  0  0  0  0  0  0  0  0  0  0  0
   10.0403    3.3841   22.5378 C   0  0  0  0  0  0  0  0  0  0  0  0
   11.1332    4.7320   22.7459 Cl  0  0  0  0  0  0  0  0  0  0  0  0
   10.2188    2.5106   21.4600 C   0  0  0  0  0  0  0  0  0  0  0  0
    9.3458    1.4305   21.3093 C   0  0  0  0  0  0  0  0  0  0  0  0
    8.3507    1.1875   22.2601 C   0  0  0  0  0  0  0  0  0  0  0  0
    7.5370    0.0863   22.2325 O   0  0  0  0  0  0  0  0  0  0  0  0
    7.4038   -0.6896   21.0492 C   0  0  0  0  0  0  0  0  0  0  0  0
    6.6687    0.0204   19.9265 C   0  0  0  0  0  0  0  0  0  0  0  0
    5.4458    0.6755   20.1552 C   0  0  0  0  0  0  0  0  0  0  0  0
    4.8194    1.3164   19.0867 C   0  0  0  0  0  0  0  0  0  0  0  0
    5.4266    1.2956   17.8294 C   0  0  0  0  0  0  0  0  0  0  0  0
    6.5848    0.6651   17.5869 N   0  0  0  0  0  0  0  0  0  0  0  0
    7.1781    0.0536   18.6200 C   0  0  0  0  0  0  0  0  0  0  0  0
    8.1215   -0.4429   18.3799 H   0  0  0  0  0  0  0  0  0  0  0  0
    4.9629    1.7983   16.9804 H   0  0  0  0  0  0  0  0  0  0  0  0
    3.8765    1.8369   19.2114 H   0  0  0  0  0  0  0  0  0  0  0  0
    5.0012    0.6942   21.1515 H   0  0  0  0  0  0  0  0  0  0  0  0
    6.8492   -1.5701   21.3888 H   0  0  0  0  0  0  0  0  0  0  0  0
    8.3915   -1.0465   20.7330 H   0  0  0  0  0  0  0  0  0  0  0  0
    9.4126    0.7779   20.4465 H   0  0  0  0  0  0  0  0  0  0  0  0
   11.0275    2.7082   20.7584 H   0  0  0  0  0  0  0  0  0  0  0  0
    8.8659    3.9166   24.2500 H   0  0  0  0  0  0  0  0  0  0  0  0
    6.5214    2.5522   24.6446 H   0  0  0  0  0  0  0  0  0  0  0  0
    6.6052    0.8260   24.2594 H   0  0  0  0  0  0  0  0  0  0  0  0
    8.6640    0.0790   25.8228 C   0  0  0  0  0  0  0  0  0  0  0  0
    9.8469   -0.0926   24.8777 C   0  0  0  0  0  0  0  0  0  0  0  0
   10.8979    0.8409   24.8771 C   0  0  0  0  0  0  0  0  0  0  0  0
   11.9253    0.7936   23.9334 C   0  0  0  0  0  0  0  0  0  0  0  0
   11.9277   -0.2091   22.9534 C   0  0  0  0  0  0  0  0  0  0  0  0
   10.9381   -1.1890   22.9645 C   0  0  0  0  0  0  0  0  0  0  0  0
    9.9492   -1.1623   23.9556 C   0  0  0  0  0  0  0  0  0  0  0  0
    9.0193   -2.3200   24.0308 N   0  0  0  0  0  4  0  0  0  0  0  0
    8.7514   -2.9014   22.9885 O   0  0  0  0  0  0  0  0  0  0  0  0
    8.6004   -2.6615   25.1264 O   0  0  0  0  0  1  0  0  0  0  0  0
   10.9361   -1.9850   22.2237 H   0  0  0  0  0  0  0  0  0  0  0  0
   12.7112   -0.2441   22.1998 H   0  0  0  0  0  0  0  0  0  0  0  0
   12.7065    1.5531   23.9283 H   0  0  0  0  0  0  0  0  0  0  0  0
   10.9172    1.6380   25.6166 H   0  0  0  0  0  0  0  0  0  0  0  0
    7.8961   -0.6656   25.6163 H   0  0  0  0  0  0  0  0  0  0  0  0
    8.9996   -0.0883   26.8554 H   0  0  0  0  0  0  0  0  0  0  0  0
    8.7702    2.1573   25.7073 H   0  0  0  0  0  0  0  0  0  0  0  0
    7.7057    1.5497   27.8845 H   0  0  0  0  0  0  0  0  0  0  0  0
    6.7252    2.7113   26.9585 H   0  0  0  0  0  0  0  0  0  0  0  0
    6.2963    0.9879   26.9606 H   0  0  0  0  0  0  0  0  0  0  0  0
  1  2  1  0
  2  3  1  0
  3  4  1  0
  4  5  2  0
  5  6  1  0
  6  7  1  0
  6  8  2  0
  8  9  1  0
  9 10  2  0
 10 11  1  0
 11 12  1  0
 12 13  1  0
 13 14  2  0
 14 15  1  0
 15 16  2  0
 16 17  1  0
 17 18  2  0
 18 19  1  0
 16 20  1  0
 15 21  1  0
 14 22  1  0
 12 23  1  0
 12 24  1  0
  9 25  1  0
  8 26  1  0
  5 27  1  0
  3 28  1  0
  3 29  1  0
  2 30  1  0
 30 31  1  0
 31 32  2  0
 32 33  1  0
 33 34  2  0
 34 35  1  0
 35 36  2  0
 36 37  1  0
 37 38  2  0
 37 39  1  0
 35 40  1  0
 34 41  1  0
 33 42  1  0
 32 43  1  0
 30 44  1  0
 30 45  1  0
  2 46  1  0
  1 47  1  0
  1 48  1  0
  1 49  1  0
 10  4  1  0
 18 13  1  0
 36 31  1  0
M  CHG  3   2   1  37   1  39  -1
M  END
>  <cnnaffinity>  (1) 
-5.73278

>  <filename>  (1) 
C[NH+](Cc1cc(Cl)ccc1OCc1cccnc1)Cc1ccccc1[N+](=O)[O-]

$$$$
