
     RDKit          3D

 37 38  0  0  0  0  0  0  0  0999 V2000
    5.9589   -3.0767   24.0349 C   0  0  0  0  0  0  0  0  0  0  0  0
    7.2645   -2.5929   23.4245 C   0  0  0  0  0  0  0  0  0  0  0  0
    8.0607   -1.7178   24.0665 C   0  0  0  0  0  0  0  0  0  0  0  0
    9.3933   -1.2199   23.6200 C   0  0  0  0  0  0  0  0  0  0  0  0
    9.6827    0.1609   23.6966 C   0  0  0  0  0  0  0  0  0  0  0  0
   10.8951    0.6712   23.2164 C   0  0  0  0  0  0  0  0  0  0  0  0
   11.8134   -0.1864   22.5937 C   0  0  0  0  0  0  0  0  0  0  0  0
   11.5525   -1.5607   22.5220 C   0  0  0  0  0  0  0  0  0  0  0  0
   10.3765   -2.0730   23.0805 C   0  0  0  0  0  0  0  0  0  0  0  0
   10.2256   -3.1486   23.1060 H   0  0  0  0  0  0  0  0  0  0  0  0
   12.2649   -2.2389   22.0538 H   0  0  0  0  0  0  0  0  0  0  0  0
   12.7261    0.2084   22.1557 H   0  0  0  0  0  0  0  0  0  0  0  0
   11.1054    1.7360   23.3104 H   0  0  0  0  0  0  0  0  0  0  0  0
    8.9365    0.8421   24.1128 H   0  0  0  0  0  0  0  0  0  0  0  0
    7.7055   -1.2769   25.0037 H   0  0  0  0  0  0  0  0  0  0  0  0
    7.5764   -3.0192   21.9998 C   0  0  0  0  0  0  0  0  0  0  0  0
    6.9097   -2.0940   21.0477 N   0  0  0  0  0  4  0  0  0  0  0  0
    7.4207   -0.6594   21.0367 C   0  0  0  0  0  0  0  0  0  0  0  0
    6.6638    0.0137   19.9365 C   0  0  0  0  0  0  0  0  0  0  0  0
    5.4473    0.6777   20.1565 C   0  0  0  0  0  0  0  0  0  0  0  0
    4.8227    1.3132   19.0819 C   0  0  0  0  0  0  0  0  0  0  0  0
    5.4272    1.2584   17.8230 C   0  0  0  0  0  0  0  0  0  0  0  0
    6.5649    0.5903   17.5849 N   0  0  0  0  0  0  0  0  0  0  0  0
    7.1523   -0.0196   18.6209 C   0  0  0  0  0  0  0  0  0  0  0  0
    8.0768   -0.5501   18.3931 H   0  0  0  0  0  0  0  0  0  0  0  0
    4.9735    1.7609   16.9684 H   0  0  0  0  0  0  0  0  0  0  0  0
    3.8916    1.8527   19.2047 H   0  0  0  0  0  0  0  0  0  0  0  0
    4.9953    0.6987   21.1508 H   0  0  0  0  0  0  0  0  0  0  0  0
    7.2312   -0.1721   21.9973 H   0  0  0  0  0  0  0  0  0  0  0  0
    8.5056   -0.6334   20.8792 H   0  0  0  0  0  0  0  0  0  0  0  0
    5.9166   -1.9903   21.3816 H   0  0  0  0  0  0  0  0  0  0  0  0
    6.9393   -2.4049   20.0539 H   0  0  0  0  0  0  0  0  0  0  0  0
    7.2461   -4.0436   21.8193 H   0  0  0  0  0  0  0  0  0  0  0  0
    8.6485   -2.9849   21.8215 H   0  0  0  0  0  0  0  0  0  0  0  0
    6.1227   -3.7327   24.9020 H   0  0  0  0  0  0  0  0  0  0  0  0
    5.3478   -3.6349   23.3136 H   0  0  0  0  0  0  0  0  0  0  0  0
    5.3563   -2.2278   24.3870 H   0  0  0  0  0  0  0  0  0  0  0  0
  1  2  1  0
  2  3  2  3
  3  4  1  0
  4  5  2  0
  5  6  1  0
  6  7  2  0
  7  8  1  0
  8  9  2  0
  9 10  1  0
  8 11  1  0
  7 12  1  0
  6 13  1  0
  5 14  1  0
  3 15  1  0
  2 16  1  0
 16 17  1  0
 17 18  1  0
 18 19  1  0
 19 20  2  0
 20 21  1  0
 21 22  2  0
 22 23  1  0
 23 24  2  0
 24 25  1  0
 22 26  1  0
 21 27  1  0
 20 28  1  0
 18 29  1  0
 18 30  1  0
 17 31  1  0
 17 32  1  0
 16 33  1  0
 16 34  1  0
  1 35  1  0
  1 36  1  0
  1 37  1  0
  9  4  1  0
 24 19  1  0
M  CHG  1  17   1
M  END
>  <cnnaffinity>  (1) 
-4.83654

>  <filename>  (1) 
CC(=Cc1ccccc1)C[NH2+]Cc1cccnc1

$$$$
