
     RDKit          3D

 33 34  0  0  0  0  0  0  0  0999 V2000
    8.8240   -0.4632   21.1599 C   0  0  0  0  0  0  0  0  0  0  0  0
    7.3536   -0.7836   20.9905 C   0  0  0  0  0  0  0  0  0  0  0  0
    6.7230   -1.6826   21.7665 C   0  0  0  0  0  0  0  0  0  0  0  0
    7.3653   -2.4175   22.8732 C   0  0  0  0  0  0  0  0  0  0  0  0
    8.5600   -2.4029   23.1211 O   0  0  0  0  0  0  0  0  0  0  0  0
    6.4951   -3.1112   23.6735 N   0  0  0  0  0  0  0  0  0  0  0  0
    6.8503   -3.6782   24.8563 C   0  0  0  0  0  0  0  0  0  0  0  0
    6.0782   -4.7066   25.1595 N   0  0  0  0  0  0  0  0  0  0  0  0
    6.3450   -5.3164   26.3250 C   0  0  0  0  0  0  0  0  0  0  0  0
    5.4122   -6.5078   26.7093 C   0  0  0  0  0  0  0  0  0  0  0  0
    5.8754   -7.2145   27.7482 F   0  0  0  0  0  0  0  0  0  0  0  0
    5.2344   -7.3700   25.6927 F   0  0  0  0  0  0  0  0  0  0  0  0
    4.1912   -6.0479   27.0476 F   0  0  0  0  0  0  0  0  0  0  0  0
    7.3092   -4.9508   27.1734 N   0  0  0  0  0  0  0  0  0  0  0  0
    8.0523   -3.8917   26.8344 C   0  0  0  0  0  0  0  0  0  0  0  0
    7.8590   -3.1850   25.6673 C   0  0  0  0  0  0  0  0  0  0  0  0
    8.4364   -2.3323   25.3626 H   0  0  0  0  0  0  0  0  0  0  0  0
    8.8395   -3.6043   27.5303 H   0  0  0  0  0  0  0  0  0  0  0  0
    5.6922   -3.5842   23.3092 H   0  0  0  0  0  0  0  0  0  0  0  0
    5.6556   -1.8489   21.6632 H   0  0  0  0  0  0  0  0  0  0  0  0
    6.6001   -0.0593   19.9310 C   0  0  0  0  0  0  0  0  0  0  0  0
    5.3801    0.6056   20.1535 C   0  0  0  0  0  0  0  0  0  0  0  0
    4.7934    1.2925   19.0916 C   0  0  0  0  0  0  0  0  0  0  0  0
    5.4194    1.2807   17.8413 C   0  0  0  0  0  0  0  0  0  0  0  0
    6.5763    0.6423   17.6029 N   0  0  0  0  0  0  0  0  0  0  0  0
    7.1443    0.0142   18.6363 C   0  0  0  0  0  0  0  0  0  0  0  0
    8.0999   -0.4726   18.4389 H   0  0  0  0  0  0  0  0  0  0  0  0
    4.9800    1.8121   17.0000 H   0  0  0  0  0  0  0  0  0  0  0  0
    3.8721    1.8484   19.2212 H   0  0  0  0  0  0  0  0  0  0  0  0
    4.9321    0.6236   21.1480 H   0  0  0  0  0  0  0  0  0  0  0  0
    9.1297    0.3814   20.5374 H   0  0  0  0  0  0  0  0  0  0  0  0
    9.4473   -1.3339   20.9323 H   0  0  0  0  0  0  0  0  0  0  0  0
    9.0398   -0.2214   22.2051 H   0  0  0  0  0  0  0  0  0  0  0  0
  1  2  1  0
  2  3  2  3
  3  4  1  0
  4  5  2  0
  4  6  1  0
  6  7  1  0
  7  8  2  0
  8  9  1  0
  9 10  1  0
 10 11  1  0
 10 12  1  0
 10 13  1  0
  9 14  2  0
 14 15  1  0
 15 16  2  0
 16 17  1  0
 15 18  1  0
  6 19  1  0
  3 20  1  0
  2 21  1  0
 21 22  2  0
 22 23  1  0
 23 24  2  0
 24 25  1  0
 25 26  2  0
 26 27  1  0
 24 28  1  0
 23 29  1  0
 22 30  1  0
  1 31  1  0
  1 32  1  0
  1 33  1  0
 16  7  1  0
 26 21  1  0
M  END
>  <cnnaffinity>  (1) 
-5.53597

>  <filename>  (1) 
CC(=CC(=O)Nc1ccnc(C(F)(F)F)n1)c1cccnc1

$$$$
