
     RDKit          3D

 40 42  0  0  0  0  0  0  0  0999 V2000
    4.9413    1.7668   16.9648 H   0  0  0  0  0  0  0  0  0  0  0  0
    5.4331    1.2640   17.7947 C   0  0  0  0  0  0  0  0  0  0  0  0
    6.5976    0.6494   17.5168 N   0  0  0  0  0  0  0  0  0  0  0  0
    7.2310    0.0396   18.5291 C   0  0  0  0  0  0  0  0  0  0  0  0
    8.1799   -0.4405   18.2835 H   0  0  0  0  0  0  0  0  0  0  0  0
    6.7438   -0.0175   19.8565 C   0  0  0  0  0  0  0  0  0  0  0  0
    7.4470   -0.6535   20.8911 N   0  0  0  0  0  0  0  0  0  0  0  0
    8.4565   -0.5994   20.8856 H   0  0  0  0  0  0  0  0  0  0  0  0
    6.8925   -1.5345   21.8336 C   0  0  0  0  0  0  0  0  0  0  0  0
    5.8339   -2.4722   21.7206 C   0  0  0  0  0  0  0  0  0  0  0  0
    5.2063   -2.6600   20.8642 H   0  0  0  0  0  0  0  0  0  0  0  0
    5.6894   -3.1900   22.8288 N   0  0  0  0  0  0  0  0  0  0  0  0
    6.6399   -2.7077   23.6496 N   0  0  0  0  0  0  0  0  0  0  0  0
    6.8065   -3.1850   24.5192 H   0  0  0  0  0  0  0  0  0  0  0  0
    7.4088   -1.7271   23.0985 C   0  0  0  0  0  0  0  0  0  0  0  0
    8.7400   -1.2462   23.6388 C   0  0  0  0  0  0  0  0  0  0  0  0
    8.9706   -0.3078   23.1129 H   0  0  0  0  0  0  0  0  0  0  0  0
    8.8015   -0.9526   25.1471 C   0  0  0  0  0  0  0  0  0  0  0  0
    9.7979   -0.5411   25.3528 H   0  0  0  0  0  0  0  0  0  0  0  0
    8.0768   -0.1831   25.4348 H   0  0  0  0  0  0  0  0  0  0  0  0
    8.6050   -2.1846   26.0265 C   0  0  0  0  0  0  0  0  0  0  0  0
    8.9992   -1.9786   27.0278 H   0  0  0  0  0  0  0  0  0  0  0  0
    7.5351   -2.3793   26.1941 H   0  0  0  0  0  0  0  0  0  0  0  0
    9.3025   -3.3845   25.5152 N   0  0  0  0  0  0  0  0  0  0  0  0
    9.5392   -4.3929   26.4208 C   0  0  0  0  0  0  0  0  0  0  0  0
    9.1211   -4.3550   27.5674 O   0  0  0  0  0  0  0  0  0  0  0  0
   10.4004   -5.5469   25.9506 C   0  0  0  0  0  0  0  0  0  0  0  0
   10.4317   -6.2856   26.7357 H   0  0  0  0  0  0  0  0  0  0  0  0
   10.0333   -6.0085   25.0311 H   0  0  0  0  0  0  0  0  0  0  0  0
   11.4254   -5.2093   25.7822 H   0  0  0  0  0  0  0  0  0  0  0  0
    9.6060   -3.5971   24.0883 C   0  0  0  0  0  0  0  0  0  0  0  0
   10.5283   -4.1775   24.0058 H   0  0  0  0  0  0  0  0  0  0  0  0
    8.8288   -4.2164   23.6144 H   0  0  0  0  0  0  0  0  0  0  0  0
    9.8347   -2.2893   23.3401 C   0  0  0  0  0  0  0  0  0  0  0  0
   10.8081   -1.8931   23.6444 H   0  0  0  0  0  0  0  0  0  0  0  0
    9.8789   -2.4992   22.2675 H   0  0  0  0  0  0  0  0  0  0  0  0
    5.5219    0.6210   20.1191 C   0  0  0  0  0  0  0  0  0  0  0  0
    5.1322    0.6087   21.1376 H   0  0  0  0  0  0  0  0  0  0  0  0
    4.8630    1.2743   19.0723 C   0  0  0  0  0  0  0  0  0  0  0  0
    3.9274    1.7984   19.2417 H   0  0  0  0  0  0  0  0  0  0  0  0
  1  2  1  0
  2  3  2  0
  3  4  1  0
  4  5  1  0
  4  6  2  0
  6  7  1  0
  7  8  1  0
  7  9  1  0
  9 10  1  0
 10 11  1  0
 10 12  2  0
 12 13  1  0
 13 14  1  0
 13 15  1  0
 15 16  1  0
 16 17  1  0
 16 18  1  0
 18 19  1  0
 18 20  1  0
 18 21  1  0
 21 22  1  0
 21 23  1  0
 21 24  1  0
 24 25  1  0
 25 26  2  0
 25 27  1  0
 27 28  1  0
 27 29  1  0
 27 30  1  0
 24 31  1  0
 31 32  1  0
 31 33  1  0
 31 34  1  0
 34 35  1  0
 34 36  1  0
  6 37  1  0
 37 38  1  0
 37 39  2  0
 39 40  1  0
 39  2  1  0
 15  9  2  0
 34 16  1  0
M  END
>  <cnnaffinity>  (1) 
-5.56325

>  <filename>  (1) 
CC(=O)N1CCC(c2[nH]ncc2Nc2cccnc2)CC1

$$$$
