
     RDKit          3D

 46 48  0  0  0  0  0  0  0  0999 V2000
    6.0946   -3.9788   22.9662 C   0  0  0  0  0  0  0  0  0  0  0  0
    7.3607   -4.2933   23.7278 C   0  0  0  0  0  0  0  0  0  0  0  0
    7.8649   -5.4019   23.6332 O   0  0  0  0  0  0  0  0  0  0  0  0
    7.9282   -3.3032   24.5083 N   0  0  0  0  0  0  0  0  0  0  0  0
    8.8678   -3.7128   25.5609 C   0  0  0  0  0  0  0  0  0  0  0  0
    8.5345   -2.9801   26.8529 C   0  0  0  0  0  0  0  0  0  0  0  0
    8.6566   -1.4430   26.7130 C   0  0  0  0  0  0  0  0  0  0  0  0
    8.6261   -1.0170   25.2325 C   0  0  0  0  0  0  0  0  0  0  0  0
    7.6356   -1.8453   24.3668 C   0  0  0  0  0  0  0  0  0  0  0  0
    7.6770   -1.3558   22.9211 C   0  0  0  0  0  0  0  0  0  0  0  0
    6.7490   -0.6989   22.2523 N   0  0  0  0  0  0  0  0  0  0  0  0
    7.2628   -0.6183   20.9980 C   0  0  0  0  0  0  0  0  0  0  0  0
    6.5667    0.0489   19.8966 C   0  0  0  0  0  0  0  0  0  0  0  0
    5.3465    0.7272   20.0616 C   0  0  0  0  0  0  0  0  0  0  0  0
    4.7902    1.3634   18.9546 C   0  0  0  0  0  0  0  0  0  0  0  0
    5.4641    1.3029   17.7291 C   0  0  0  0  0  0  0  0  0  0  0  0
    6.6256    0.6523   17.5612 N   0  0  0  0  0  0  0  0  0  0  0  0
    7.1597    0.0473   18.6253 C   0  0  0  0  0  0  0  0  0  0  0  0
    8.1081   -0.4630   18.4600 H   0  0  0  0  0  0  0  0  0  0  0  0
    5.0502    1.7843   16.8445 H   0  0  0  0  0  0  0  0  0  0  0  0
    3.8520    1.9059   19.0211 H   0  0  0  0  0  0  0  0  0  0  0  0
    4.8517    0.7628   21.0340 H   0  0  0  0  0  0  0  0  0  0  0  0
    8.4481   -1.1937   20.8630 N   0  0  0  0  0  0  0  0  0  0  0  0
    8.7319   -1.6074   22.1156 N   0  0  0  0  0  0  0  0  0  0  0  0
    9.9107   -2.4132   22.3975 C   0  0  0  0  0  0  0  0  0  0  0  0
   11.2288   -1.8454   21.8788 C   0  0  0  0  0  0  0  0  0  0  0  0
   11.6043   -0.4587   22.3588 C   0  0  0  0  0  0  0  0  0  0  0  0
   11.2907   -0.2467   23.6589 F   0  0  0  0  0  0  0  0  0  0  0  0
   12.9392   -0.2933   22.2533 F   0  0  0  0  0  0  0  0  0  0  0  0
   11.0396    0.5295   21.6549 F   0  0  0  0  0  0  0  0  0  0  0  0
   12.0309   -2.5056   22.2162 H   0  0  0  0  0  0  0  0  0  0  0  0
   11.2766   -1.8258   20.7929 H   0  0  0  0  0  0  0  0  0  0  0  0
   10.0065   -2.5313   23.4741 H   0  0  0  0  0  0  0  0  0  0  0  0
    9.7181   -3.4083   22.0085 H   0  0  0  0  0  0  0  0  0  0  0  0
    6.6130   -1.6600   24.7254 H   0  0  0  0  0  0  0  0  0  0  0  0
    9.6333   -1.1624   24.8400 H   0  0  0  0  0  0  0  0  0  0  0  0
    8.4025    0.0502   25.1216 H   0  0  0  0  0  0  0  0  0  0  0  0
    7.8445   -0.9513   27.2626 H   0  0  0  0  0  0  0  0  0  0  0  0
    9.5998   -1.0817   27.1501 H   0  0  0  0  0  0  0  0  0  0  0  0
    9.1926   -3.4049   27.6060 H   0  0  0  0  0  0  0  0  0  0  0  0
    7.5144   -3.2494   27.1482 H   0  0  0  0  0  0  0  0  0  0  0  0
    8.7885   -4.7932   25.7008 H   0  0  0  0  0  0  0  0  0  0  0  0
    9.9085   -3.5069   25.2604 H   0  0  0  0  0  0  0  0  0  0  0  0
    6.3675   -3.6800   21.9514 H   0  0  0  0  0  0  0  0  0  0  0  0
    5.5158   -4.9007   22.9093 H   0  0  0  0  0  0  0  0  0  0  0  0
    5.4988   -3.1892   23.4279 H   0  0  0  0  0  0  0  0  0  0  0  0
  1  2  1  0
  2  3  2  0
  2  4  1  0
  4  5  1  0
  5  6  1  0
  6  7  1  0
  7  8  1  0
  8  9  1  0
  9 10  1  0
 10 11  2  0
 11 12  1  0
 12 13  1  0
 13 14  2  0
 14 15  1  0
 15 16  2  0
 16 17  1  0
 17 18  2  0
 18 19  1  0
 16 20  1  0
 15 21  1  0
 14 22  1  0
 12 23  2  0
 23 24  1  0
 24 25  1  0
 25 26  1  0
 26 27  1  0
 27 28  1  0
 27 29  1  0
 27 30  1  0
 26 31  1  0
 26 32  1  0
 25 33  1  0
 25 34  1  0
  9 35  1  0
  8 36  1  0
  8 37  1  0
  7 38  1  0
  7 39  1  0
  6 40  1  0
  6 41  1  0
  5 42  1  0
  5 43  1  0
  1 44  1  0
  1 45  1  0
  1 46  1  0
  9  4  1  0
 24 10  1  0
 18 13  1  0
M  END
>  <cnnaffinity>  (1) 
-6.40643

>  <filename>  (1) 
CC(=O)N1CCCCC1c1nc(-c2cccnc2)nn1CCC(F)(F)F

$$$$
