
     RDKit          3D

 42 45  0  0  0  0  0  0  0  0999 V2000
    5.0143    1.8332   16.9065 H   0  0  0  0  0  0  0  0  0  0  0  0
    5.3951    1.3062   17.7811 C   0  0  0  0  0  0  0  0  0  0  0  0
    6.5440    0.6330   17.6165 N   0  0  0  0  0  0  0  0  0  0  0  0
    7.0497    0.0162   18.6926 C   0  0  0  0  0  0  0  0  0  0  0  0
    7.9807   -0.5245   18.5272 H   0  0  0  0  0  0  0  0  0  0  0  0
    6.4518    0.0056   19.9681 C   0  0  0  0  0  0  0  0  0  0  0  0
    7.2086   -0.5825   21.0903 C   0  0  0  0  0  0  0  0  0  0  0  0
    8.5638   -0.5153   21.3260 C   0  0  0  0  0  0  0  0  0  0  0  0
    8.7749   -1.1112   22.5603 C   0  0  0  0  0  0  0  0  0  0  0  0
    7.6671   -1.5846   23.0933 N   0  0  0  0  0  0  0  0  0  0  0  0
    6.7173   -1.2408   22.1835 N   0  0  0  0  0  0  0  0  0  0  0  0
    5.7661   -1.5457   22.3481 H   0  0  0  0  0  0  0  0  0  0  0  0
   10.2174   -1.0961   22.9742 C   0  0  0  0  0  0  0  0  0  0  0  0
   10.6392   -2.1092   22.9509 H   0  0  0  0  0  0  0  0  0  0  0  0
   10.3552   -0.7000   23.9852 H   0  0  0  0  0  0  0  0  0  0  0  0
   10.8866   -0.1902   21.8765 C   0  0  2  0  0  0  0  0  0  0  0  0
   11.7584   -0.7240   21.4828 H   0  0  0  0  0  0  0  0  0  0  0  0
   11.3863    1.1484   22.4045 C   0  0  0  0  0  0  0  0  0  0  0  0
   12.7549    1.4625   22.3352 C   0  0  0  0  0  0  0  0  0  0  0  0
   13.4461    0.7327   21.9262 H   0  0  0  0  0  0  0  0  0  0  0  0
   13.2319    2.6964   22.7787 C   0  0  0  0  0  0  0  0  0  0  0  0
   14.2869    2.9399   22.6954 H   0  0  0  0  0  0  0  0  0  0  0  0
   12.3602    3.6334   23.3226 C   0  0  0  0  0  0  0  0  0  0  0  0
   12.7025    4.5894   23.6894 H   0  0  0  0  0  0  0  0  0  0  0  0
   10.9988    3.3312   23.4108 C   0  0  0  0  0  0  0  0  0  0  0  0
   10.1090    4.2675   23.9574 N   0  0  0  0  0  0  0  0  0  0  0  0
    9.1385    4.1266   23.7534 H   0  0  0  0  0  0  0  0  0  0  0  0
   10.3856    5.3211   24.7856 C   0  0  0  0  0  0  0  0  0  0  0  0
   11.4947    5.5987   25.1972 O   0  0  0  0  0  0  0  0  0  0  0  0
    9.1526    6.1013   25.1672 C   0  0  0  0  0  0  0  0  0  0  0  0
    9.4490    6.9415   25.7890 H   0  0  0  0  0  0  0  0  0  0  0  0
    8.6284    6.4695   24.2820 H   0  0  0  0  0  0  0  0  0  0  0  0
    8.4748    5.4710   25.7459 H   0  0  0  0  0  0  0  0  0  0  0  0
   10.5082    2.1032   22.9389 C   0  0  0  0  0  0  0  0  0  0  0  0
    9.4449    1.8800   22.9890 H   0  0  0  0  0  0  0  0  0  0  0  0
    9.8343   -0.0263   20.7229 C   0  0  0  0  0  0  0  0  0  0  0  0
   10.1135   -0.6726   19.8861 H   0  0  0  0  0  0  0  0  0  0  0  0
    9.7630    1.0039   20.3465 H   0  0  0  0  0  0  0  0  0  0  0  0
    5.2239    0.6767   20.1037 C   0  0  0  0  0  0  0  0  0  0  0  0
    4.7070    0.6964   21.0632 H   0  0  0  0  0  0  0  0  0  0  0  0
    4.6994    1.3431   18.9944 C   0  0  0  0  0  0  0  0  0  0  0  0
    3.7805    1.9138   19.0618 H   0  0  0  0  0  0  0  0  0  0  0  0
  1  2  1  0
  2  3  2  0
  3  4  1  0
  4  5  1  0
  4  6  2  0
  6  7  1  0
  7  8  2  0
  8  9  1  0
  9 10  2  0
 10 11  1  0
 11 12  1  0
  9 13  1  0
 13 14  1  0
 13 15  1  0
 13 16  1  0
 16 17  1  6
 16 18  1  0
 18 19  2  0
 19 20  1  0
 19 21  1  0
 21 22  1  0
 21 23  2  0
 23 24  1  0
 23 25  1  0
 25 26  1  0
 26 27  1  0
 26 28  1  0
 28 29  2  0
 28 30  1  0
 30 31  1  0
 30 32  1  0
 30 33  1  0
 25 34  2  0
 34 35  1  0
 16 36  1  0
 36 37  1  0
 36 38  1  0
  6 39  1  0
 39 40  1  0
 39 41  2  0
 41 42  1  0
 41  2  1  0
 11  7  1  0
 34 18  1  0
 36  8  1  0
M  END
>  <cnnaffinity>  (1) 
-5.7309

>  <filename>  (1) 
CC(=O)Nc1cccc([C@H]2Cc3n[nH]c(-c4cccnc4)c3C2)c1

$$$$
