
     RDKit          3D

 43 46  0  0  0  0  0  0  0  0999 V2000
    4.9494    1.7890   16.9964 H   0  0  0  0  0  0  0  0  0  0  0  0
    5.4172    1.2853   17.8387 C   0  0  0  0  0  0  0  0  0  0  0  0
    6.5779    0.6642   17.5817 N   0  0  0  0  0  0  0  0  0  0  0  0
    7.1850    0.0458   18.5964 C   0  0  0  0  0  0  0  0  0  0  0  0
    8.1330   -0.4425   18.3773 H   0  0  0  0  0  0  0  0  0  0  0  0
    6.6611    0.0031   19.9013 C   0  0  0  0  0  0  0  0  0  0  0  0
    7.3962   -0.7219   20.9427 C   0  0  0  0  0  0  0  0  0  0  0  0
    8.5119   -1.3644   20.7488 N   0  0  0  0  0  0  0  0  0  0  0  0
    8.9758   -1.9691   21.8816 N   0  0  0  0  0  0  0  0  0  0  0  0
    8.2077   -1.7721   22.9147 C   0  0  0  0  0  0  0  0  0  0  0  0
    8.5027   -2.3209   24.2733 C   0  0  0  0  0  0  0  0  0  0  0  0
    7.9829   -3.7309   24.5725 C   0  0  0  0  0  0  0  0  0  0  0  0
    8.3297   -3.9902   25.5908 H   0  0  0  0  0  0  0  0  0  0  0  0
    8.5633   -4.7907   23.6122 C   0  0  0  0  0  0  0  0  0  0  0  0
    8.3411   -4.5061   22.5763 H   0  0  0  0  0  0  0  0  0  0  0  0
    9.6567   -4.8236   23.7072 H   0  0  0  0  0  0  0  0  0  0  0  0
    7.9790   -6.1678   23.9041 C   0  0  0  0  0  0  0  0  0  0  0  0
    8.3129   -6.5052   24.9060 H   0  0  0  0  0  0  0  0  0  0  0  0
    8.3155   -6.9082   23.1741 H   0  0  0  0  0  0  0  0  0  0  0  0
    6.5052   -6.1147   23.8761 N   0  0  0  0  0  0  0  0  0  0  0  0
    5.7897   -7.0738   23.1905 C   0  0  0  0  0  0  0  0  0  0  0  0
    6.3238   -7.8405   22.4096 O   0  0  0  0  0  0  0  0  0  0  0  0
    4.3154   -7.1977   23.5234 C   0  0  0  0  0  0  0  0  0  0  0  0
    3.7231   -6.4268   23.0189 H   0  0  0  0  0  0  0  0  0  0  0  0
    4.1504   -7.1263   24.5970 H   0  0  0  0  0  0  0  0  0  0  0  0
    4.0031   -8.1814   23.1919 H   0  0  0  0  0  0  0  0  0  0  0  0
    5.9531   -5.2063   24.8773 C   0  0  0  0  0  0  0  0  0  0  0  0
    6.2610   -5.5287   25.8904 H   0  0  0  0  0  0  0  0  0  0  0  0
    4.8636   -5.2325   24.8493 H   0  0  0  0  0  0  0  0  0  0  0  0
    6.4481   -3.7964   24.5674 C   0  0  0  0  0  0  0  0  0  0  0  0
    6.0861   -3.5291   23.5675 H   0  0  0  0  0  0  0  0  0  0  0  0
    6.0182   -3.0846   25.2799 H   0  0  0  0  0  0  0  0  0  0  0  0
    8.6177   -1.3680   25.4436 C   0  0  0  0  0  0  0  0  0  0  0  0
    8.2618   -1.7076   26.4155 H   0  0  0  0  0  0  0  0  0  0  0  0
    8.4222   -0.3163   25.2490 H   0  0  0  0  0  0  0  0  0  0  0  0
    9.8480   -1.9890   24.8515 C   0  0  0  0  0  0  0  0  0  0  0  0
   10.5249   -1.3673   24.2741 H   0  0  0  0  0  0  0  0  0  0  0  0
   10.3110   -2.8446   25.3368 H   0  0  0  0  0  0  0  0  0  0  0  0
    6.8165   -0.8054   22.5745 S   0  0  0  0  0  0  0  0  0  0  0  0
    5.4419    0.6526   20.1572 C   0  0  0  0  0  0  0  0  0  0  0  0
    5.0014    0.6502   21.1567 H   0  0  0  0  0  0  0  0  0  0  0  0
    4.8122    1.3052   19.1006 C   0  0  0  0  0  0  0  0  0  0  0  0
    3.8785    1.8370   19.2455 H   0  0  0  0  0  0  0  0  0  0  0  0
  1  2  1  0
  2  3  2  0
  3  4  1  0
  4  5  1  0
  4  6  2  0
  6  7  1  0
  7  8  2  0
  8  9  1  0
  9 10  2  0
 10 11  1  0
 11 12  1  0
 12 13  1  0
 12 14  1  0
 14 15  1  0
 14 16  1  0
 14 17  1  0
 17 18  1  0
 17 19  1  0
 17 20  1  0
 20 21  1  0
 21 22  2  0
 21 23  1  0
 23 24  1  0
 23 25  1  0
 23 26  1  0
 20 27  1  0
 27 28  1  0
 27 29  1  0
 27 30  1  0
 30 31  1  0
 30 32  1  0
 11 33  1  0
 33 34  1  0
 33 35  1  0
 33 36  1  0
 36 37  1  0
 36 38  1  0
 10 39  1  0
  6 40  1  0
 40 41  1  0
 40 42  2  0
 42 43  1  0
 42  2  1  0
 39  7  1  0
 36 11  1  0
 30 12  1  0
M  END
>  <cnnaffinity>  (1) 
-6.05259

>  <filename>  (1) 
CC(=O)N1CCC(C2(c3nnc(-c4cccnc4)s3)CC2)CC1

$$$$
