
     RDKit          3D

 31 32  0  0  0  0  0  0  0  0999 V2000
    7.5547    0.1838   22.3983 C   0  0  0  0  0  0  0  0  0  0  0  0
    7.2845   -0.5166   21.0904 C   0  0  0  0  0  0  0  0  0  0  0  0
    7.5580   -1.8542   20.9453 C   0  0  0  0  0  0  0  0  0  0  0  0
    8.1425   -2.6635   21.9948 C   0  0  0  0  0  0  0  0  0  0  0  0
    8.3762   -3.8387   21.7228 O   0  0  0  0  0  0  0  0  0  0  0  0
    8.3249   -2.0671   23.2009 O   0  0  0  0  0  0  0  0  0  0  0  0
    9.0532   -2.7726   24.1127 C   0  0  0  0  0  0  0  0  0  0  0  0
   10.2385   -3.3938   23.7172 C   0  0  0  0  0  0  0  0  0  0  0  0
   10.9359   -4.2002   24.6120 C   0  0  0  0  0  0  0  0  0  0  0  0
   10.4564   -4.3773   25.9155 C   0  0  0  0  0  0  0  0  0  0  0  0
    9.2934   -3.7205   26.3290 C   0  0  0  0  0  0  0  0  0  0  0  0
    8.5973   -2.9024   25.4347 C   0  0  0  0  0  0  0  0  0  0  0  0
    7.0024   -2.0060   26.0100 Br  0  0  0  0  0  0  0  0  0  0  0  0
    8.9042   -3.8684   27.3340 H   0  0  0  0  0  0  0  0  0  0  0  0
   10.9852   -5.0207   26.6092 H   0  0  0  0  0  0  0  0  0  0  0  0
   11.8321   -4.7058   24.2899 H   0  0  0  0  0  0  0  0  0  0  0  0
   10.5902   -3.2477   22.6991 H   0  0  0  0  0  0  0  0  0  0  0  0
    7.2681   -2.3498   20.0339 H   0  0  0  0  0  0  0  0  0  0  0  0
    6.6267    0.1438   19.9758 C   0  0  0  0  0  0  0  0  0  0  0  0
    5.4225    0.8100   20.1710 C   0  0  0  0  0  0  0  0  0  0  0  0
    4.8098    1.3779   19.0597 C   0  0  0  0  0  0  0  0  0  0  0  0
    5.4188    1.2974   17.8027 C   0  0  0  0  0  0  0  0  0  0  0  0
    6.5698    0.6281   17.6091 N   0  0  0  0  0  0  0  0  0  0  0  0
    7.1499    0.0497   18.6741 C   0  0  0  0  0  0  0  0  0  0  0  0
    8.0733   -0.4977   18.5044 H   0  0  0  0  0  0  0  0  0  0  0  0
    4.9270    1.7649   16.9560 H   0  0  0  0  0  0  0  0  0  0  0  0
    3.8650    1.8904   19.1664 H   0  0  0  0  0  0  0  0  0  0  0  0
    4.9778    0.8568   21.1648 H   0  0  0  0  0  0  0  0  0  0  0  0
    6.9438   -0.2646   23.1915 H   0  0  0  0  0  0  0  0  0  0  0  0
    8.6104    0.0768   22.6750 H   0  0  0  0  0  0  0  0  0  0  0  0
    7.3191    1.2517   22.3236 H   0  0  0  0  0  0  0  0  0  0  0  0
  1  2  1  0
  2  3  2  3
  3  4  1  0
  4  5  2  0
  4  6  1  0
  6  7  1  0
  7  8  2  0
  8  9  1  0
  9 10  2  0
 10 11  1  0
 11 12  2  0
 12 13  1  0
 11 14  1  0
 10 15  1  0
  9 16  1  0
  8 17  1  0
  3 18  1  0
  2 19  1  0
 19 20  2  0
 20 21  1  0
 21 22  2  0
 22 23  1  0
 23 24  2  0
 24 25  1  0
 22 26  1  0
 21 27  1  0
 20 28  1  0
  1 29  1  0
  1 30  1  0
  1 31  1  0
 12  7  1  0
 24 19  1  0
M  END
>  <cnnaffinity>  (1) 
-5.24843

>  <filename>  (1) 
CC(=CC(=O)Oc1ccccc1Br)c1cccnc1

$$$$
