
     RDKit          3D

 35 36  0  0  0  0  0  0  0  0999 V2000
    5.0461    1.9965   16.7527 H   0  0  0  0  0  0  0  0  0  0  0  0
    5.3502    1.3572   17.5777 C   0  0  0  0  0  0  0  0  0  0  0  0
    6.4020    0.5553   17.3487 N   0  0  0  0  0  0  0  0  0  0  0  0
    6.8045   -0.2282   18.3587 C   0  0  0  0  0  0  0  0  0  0  0  0
    7.6685   -0.8649   18.1698 H   0  0  0  0  0  0  0  0  0  0  0  0
    6.1959   -0.2563   19.6247 C   0  0  0  0  0  0  0  0  0  0  0  0
    6.9145   -1.2342   20.9148 S   0  0  0  0  0  0  0  0  0  0  0  0
    7.9835    0.0446   21.6293 C   0  0  0  0  0  0  0  0  0  0  0  0
    7.4047    0.9728   21.6869 H   0  0  0  0  0  0  0  0  0  0  0  0
    8.1478   -0.2741   22.6591 H   0  0  0  0  0  0  0  0  0  0  0  0
    9.3430    0.3137   20.9554 C   0  0  0  0  0  0  0  0  0  0  0  0
    9.2153    0.3254   19.8658 H   0  0  0  0  0  0  0  0  0  0  0  0
   10.3866   -0.7610   21.3203 C   0  0  0  0  0  0  0  0  0  0  0  0
   10.0296   -1.7638   21.0499 H   0  0  0  0  0  0  0  0  0  0  0  0
   11.3101   -0.5817   20.7606 H   0  0  0  0  0  0  0  0  0  0  0  0
   10.7722   -0.6978   22.8077 C   0  0  0  0  0  0  0  0  0  0  0  0
   11.6057   -1.3691   23.0001 H   0  0  0  0  0  0  0  0  0  0  0  0
    9.9512   -1.0179   23.4559 H   0  0  0  0  0  0  0  0  0  0  0  0
   11.1725    0.6583   23.2292 N   0  0  0  0  0  0  0  0  0  0  0  0
   12.5026    1.0049   23.0003 C   0  0  0  0  0  0  0  0  0  0  0  0
   13.2879    0.2691   22.4291 O   0  0  0  0  0  0  0  0  0  0  0  0
   12.9932    2.3033   23.5999 C   0  0  0  0  0  0  0  0  0  0  0  0
   13.7615    2.0080   24.3145 H   0  0  0  0  0  0  0  0  0  0  0  0
   12.2358    2.8871   24.1217 H   0  0  0  0  0  0  0  0  0  0  0  0
   13.4695    2.9053   22.8232 H   0  0  0  0  0  0  0  0  0  0  0  0
   10.1448    1.6730   22.9327 C   0  0  0  0  0  0  0  0  0  0  0  0
    9.2318    1.4396   23.4956 H   0  0  0  0  0  0  0  0  0  0  0  0
   10.4832    2.6407   23.2979 H   0  0  0  0  0  0  0  0  0  0  0  0
    9.8624    1.6957   21.4160 C   0  0  0  0  0  0  0  0  0  0  0  0
    9.1698    2.5017   21.1429 H   0  0  0  0  0  0  0  0  0  0  0  0
   10.8070    1.9175   20.9061 H   0  0  0  0  0  0  0  0  0  0  0  0
    5.0793    0.5651   19.8383 C   0  0  0  0  0  0  0  0  0  0  0  0
    4.5717    0.5681   20.8033 H   0  0  0  0  0  0  0  0  0  0  0  0
    4.6563    1.3917   18.7934 C   0  0  0  0  0  0  0  0  0  0  0  0
    3.8206    2.0705   18.9166 H   0  0  0  0  0  0  0  0  0  0  0  0
  1  2  1  0
  2  3  2  0
  3  4  1  0
  4  5  1  0
  4  6  2  0
  6  7  1  0
  7  8  1  0
  8  9  1  0
  8 10  1  0
  8 11  1  0
 11 12  1  0
 11 13  1  0
 13 14  1  0
 13 15  1  0
 13 16  1  0
 16 17  1  0
 16 18  1  0
 16 19  1  0
 19 20  1  0
 20 21  2  0
 20 22  1  0
 22 23  1  0
 22 24  1  0
 22 25  1  0
 19 26  1  0
 26 27  1  0
 26 28  1  0
 26 29  1  0
 29 30  1  0
 29 31  1  0
  6 32  1  0
 32 33  1  0
 32 34  2  0
 34 35  1  0
 34  2  1  0
 29 11  1  0
M  END
>  <cnnaffinity>  (1) 
-4.71388

>  <filename>  (1) 
CC(=O)N1CCC(CSc2cccnc2)CC1

$$$$
