
     RDKit          3D

 37 39  0  0  0  0  0  0  0  0999 V2000
    8.8491   -0.4091   21.1641 C   0  0  0  0  0  0  0  0  0  0  0  0
    7.3829   -0.7283   20.9839 C   0  0  0  0  0  0  0  0  0  0  0  0
    6.7241   -1.6194   21.7478 C   0  0  0  0  0  0  0  0  0  0  0  0
    7.3348   -2.4409   22.8150 C   0  0  0  0  0  0  0  0  0  0  0  0
    8.5290   -2.4658   23.0822 O   0  0  0  0  0  0  0  0  0  0  0  0
    6.4552   -3.2188   23.5110 N   0  0  0  0  0  0  0  0  0  0  0  0
    6.9214   -4.0596   24.6137 C   0  0  0  0  0  0  0  0  0  0  0  0
    5.8077   -4.7316   25.3425 C   0  0  0  0  0  0  0  0  0  0  0  0
    5.0428   -4.2733   26.3566 C   0  0  0  0  0  0  0  0  0  0  0  0
    4.0923   -5.3290   26.6471 C   0  0  0  0  0  0  0  0  0  0  0  0
    3.0180   -5.5338   27.5275 C   0  0  0  0  0  0  0  0  0  0  0  0
    2.3057   -6.6602   27.5295 N   0  0  0  0  0  0  0  0  0  0  0  0
    2.6358   -7.6361   26.6630 C   0  0  0  0  0  0  0  0  0  0  0  0
    3.6699   -7.5568   25.7353 C   0  0  0  0  0  0  0  0  0  0  0  0
    4.3950   -6.3631   25.7530 C   0  0  0  0  0  0  0  0  0  0  0  0
    5.4339   -6.0048   24.9583 O   0  0  0  0  0  0  0  0  0  0  0  0
    3.8709   -8.3719   25.0585 H   0  0  0  0  0  0  0  0  0  0  0  0
    2.0106   -8.5242   26.7319 H   0  0  0  0  0  0  0  0  0  0  0  0
    2.7162   -4.7726   28.2460 H   0  0  0  0  0  0  0  0  0  0  0  0
    5.1395   -3.3084   26.8355 H   0  0  0  0  0  0  0  0  0  0  0  0
    7.6421   -4.7996   24.2434 H   0  0  0  0  0  0  0  0  0  0  0  0
    7.4747   -3.4348   25.3311 H   0  0  0  0  0  0  0  0  0  0  0  0
    5.4756   -3.1268   23.3090 H   0  0  0  0  0  0  0  0  0  0  0  0
    5.6655   -1.7775   21.5649 H   0  0  0  0  0  0  0  0  0  0  0  0
    6.6328   -0.0113   19.9098 C   0  0  0  0  0  0  0  0  0  0  0  0
    5.4125    0.6430   20.1462 C   0  0  0  0  0  0  0  0  0  0  0  0
    4.7942    1.3157   19.0921 C   0  0  0  0  0  0  0  0  0  0  0  0
    5.3956    1.2968   17.8286 C   0  0  0  0  0  0  0  0  0  0  0  0
    6.5571    0.6735   17.5752 N   0  0  0  0  0  0  0  0  0  0  0  0
    7.1541    0.0596   18.6039 C   0  0  0  0  0  0  0  0  0  0  0  0
    8.1104   -0.4164   18.3841 H   0  0  0  0  0  0  0  0  0  0  0  0
    4.9316    1.7983   16.9813 H   0  0  0  0  0  0  0  0  0  0  0  0
    3.8653    1.8533   19.2356 H   0  0  0  0  0  0  0  0  0  0  0  0
    4.9928    0.6446   21.1524 H   0  0  0  0  0  0  0  0  0  0  0  0
    9.4801   -1.2748   20.9389 H   0  0  0  0  0  0  0  0  0  0  0  0
    9.1318    0.4294   20.5237 H   0  0  0  0  0  0  0  0  0  0  0  0
    9.0754   -0.1550   22.2053 H   0  0  0  0  0  0  0  0  0  0  0  0
  1  2  1  0
  2  3  2  3
  3  4  1  0
  4  5  2  0
  4  6  1  0
  6  7  1  0
  7  8  1  0
  8  9  2  0
  9 10  1  0
 10 11  2  0
 11 12  1  0
 12 13  2  0
 13 14  1  0
 14 15  2  0
 15 16  1  0
 14 17  1  0
 13 18  1  0
 11 19  1  0
  9 20  1  0
  7 21  1  0
  7 22  1  0
  6 23  1  0
  3 24  1  0
  2 25  1  0
 25 26  2  0
 26 27  1  0
 27 28  2  0
 28 29  1  0
 29 30  2  0
 30 31  1  0
 28 32  1  0
 27 33  1  0
 26 34  1  0
  1 35  1  0
  1 36  1  0
  1 37  1  0
 16  8  1  0
 30 25  1  0
 15 10  1  0
M  END
>  <cnnaffinity>  (1) 
-5.24754

>  <filename>  (1) 
CC(=CC(=O)NCc1cc2cnccc2o1)c1cccnc1

$$$$
