
     RDKit          3D

 36 38  0  0  0  0  0  0  0  0999 V2000
    4.9387    1.7842   16.9976 H   0  0  0  0  0  0  0  0  0  0  0  0
    5.4063    1.2880   17.8439 C   0  0  0  0  0  0  0  0  0  0  0  0
    6.5695    0.6703   17.5882 N   0  0  0  0  0  0  0  0  0  0  0  0
    7.1635    0.0424   18.6031 C   0  0  0  0  0  0  0  0  0  0  0  0
    8.1112   -0.4483   18.3890 H   0  0  0  0  0  0  0  0  0  0  0  0
    6.6421    0.0048   19.9060 C   0  0  0  0  0  0  0  0  0  0  0  0
    7.4007   -0.7198   20.9468 C   0  0  0  0  0  0  0  0  0  0  0  0
    8.1401   -1.6844   20.5590 N   0  0  0  0  0  0  0  0  0  0  0  0
    8.7401   -2.6083   21.5111 C   0  0  0  0  0  0  0  0  0  0  0  0
    9.4951   -2.0903   22.1196 H   0  0  0  0  0  0  0  0  0  0  0  0
    9.2929   -3.3147   20.8849 H   0  0  0  0  0  0  0  0  0  0  0  0
    7.8160   -3.4077   22.4383 C   0  0  0  0  0  0  0  0  0  0  0  0
    6.8304   -4.2746   21.8659 C   0  0  0  0  0  0  0  0  0  0  0  0
    6.7830   -4.3499   20.7798 H   0  0  0  0  0  0  0  0  0  0  0  0
    5.9512   -4.9638   22.6645 C   0  0  0  0  0  0  0  0  0  0  0  0
    5.1911   -5.6077   22.2252 H   0  0  0  0  0  0  0  0  0  0  0  0
    6.0061   -4.8429   24.0887 C   0  0  0  0  0  0  0  0  0  0  0  0
    5.1029   -5.5392   24.9489 C   0  0  0  0  0  0  0  0  0  0  0  0
    4.3492   -6.1807   24.4928 H   0  0  0  0  0  0  0  0  0  0  0  0
    5.1865   -5.4027   26.3155 C   0  0  0  0  0  0  0  0  0  0  0  0
    4.4982   -5.9379   26.9659 H   0  0  0  0  0  0  0  0  0  0  0  0
    6.1799   -4.5567   26.8990 C   0  0  0  0  0  0  0  0  0  0  0  0
    6.2331   -4.4612   27.9805 H   0  0  0  0  0  0  0  0  0  0  0  0
    7.0645   -3.8719   26.0960 C   0  0  0  0  0  0  0  0  0  0  0  0
    7.8282   -3.2240   26.5262 H   0  0  0  0  0  0  0  0  0  0  0  0
    7.0056   -3.9988   24.6750 C   0  0  0  0  0  0  0  0  0  0  0  0
    7.9093   -3.3053   23.8121 C   0  0  0  0  0  0  0  0  0  0  0  0
    8.6587   -2.6635   24.2741 H   0  0  0  0  0  0  0  0  0  0  0  0
    7.2902   -0.2508   22.3821 C   0  0  0  0  0  0  0  0  0  0  0  0
    6.5039   -0.7994   22.9092 H   0  0  0  0  0  0  0  0  0  0  0  0
    8.2235   -0.3983   22.9342 H   0  0  0  0  0  0  0  0  0  0  0  0
    7.0412    0.8097   22.4080 H   0  0  0  0  0  0  0  0  0  0  0  0
    5.4312    0.6573   20.1622 C   0  0  0  0  0  0  0  0  0  0  0  0
    4.9939    0.6497   21.1635 H   0  0  0  0  0  0  0  0  0  0  0  0
    4.8057    1.3068   19.1040 C   0  0  0  0  0  0  0  0  0  0  0  0
    3.8780    1.8395   19.2483 H   0  0  0  0  0  0  0  0  0  0  0  0
  1  2  1  0
  2  3  2  0
  3  4  1  0
  4  5  1  0
  4  6  2  0
  6  7  1  0
  7  8  2  3
  8  9  1  0
  9 10  1  0
  9 11  1  0
  9 12  1  0
 12 13  2  0
 13 14  1  0
 13 15  1  0
 15 16  1  0
 15 17  2  0
 17 18  1  0
 18 19  1  0
 18 20  2  0
 20 21  1  0
 20 22  1  0
 22 23  1  0
 22 24  2  0
 24 25  1  0
 24 26  1  0
 26 27  2  0
 27 28  1  0
  7 29  1  0
 29 30  1  0
 29 31  1  0
 29 32  1  0
  6 33  1  0
 33 34  1  0
 33 35  2  0
 35 36  1  0
 35  2  1  0
 27 12  1  0
 26 17  1  0
M  END
>  <cnnaffinity>  (1) 
-4.81196

>  <filename>  (1) 
CC(=NCc1ccc2ccccc2c1)c1cccnc1

$$$$
