
     RDKit          3D

 32 33  0  0  0  0  0  0  0  0999 V2000
    5.6819   -1.7690   21.5980 H   0  0  0  0  0  0  0  0  0  0  0  0
    6.7434   -1.5945   21.7549 C   0  0  0  0  0  0  0  0  0  0  0  0
    7.4008   -0.7227   20.9847 C   0  0  0  0  0  0  0  0  0  0  0  0
    6.6509   -0.0062   19.9097 C   0  0  0  0  0  0  0  0  0  0  0  0
    7.1651    0.0692   18.6017 C   0  0  0  0  0  0  0  0  0  0  0  0
    8.1090   -0.4187   18.3792 H   0  0  0  0  0  0  0  0  0  0  0  0
    6.5624    0.6763   17.5733 N   0  0  0  0  0  0  0  0  0  0  0  0
    5.4000    1.2957   17.8321 C   0  0  0  0  0  0  0  0  0  0  0  0
    4.9159    1.7853   16.9895 H   0  0  0  0  0  0  0  0  0  0  0  0
    4.8041    1.3148   19.1002 C   0  0  0  0  0  0  0  0  0  0  0  0
    3.8708    1.8467   19.2526 H   0  0  0  0  0  0  0  0  0  0  0  0
    5.4255    0.6414   20.1526 C   0  0  0  0  0  0  0  0  0  0  0  0
    5.0074    0.6356   21.1628 H   0  0  0  0  0  0  0  0  0  0  0  0
    8.8784   -0.4412   21.1548 C   0  0  0  0  0  0  0  0  0  0  0  0
    9.1846    0.3893   20.5098 H   0  0  0  0  0  0  0  0  0  0  0  0
    9.1090   -0.1580   22.1941 H   0  0  0  0  0  0  0  0  0  0  0  0
    9.4862   -1.3203   20.8946 H   0  0  0  0  0  0  0  0  0  0  0  0
    7.2962   -2.3547   22.7923 N   0  0  0  0  0  0  0  0  0  0  0  0
    8.2854   -2.2797   22.9308 H   0  0  0  0  0  0  0  0  0  0  0  0
    6.5702   -3.2614   23.5490 C   0  0  0  0  0  0  0  0  0  0  0  0
    5.4320   -3.5572   23.2326 O   0  0  0  0  0  0  0  0  0  0  0  0
    7.2539   -3.8684   24.7662 C   0  0  0  0  0  0  0  0  0  0  0  0
    8.2887   -3.2315   25.4803 C   0  0  0  0  0  0  0  0  0  0  0  0
    8.6581   -2.2525   25.1708 H   0  0  0  0  0  0  0  0  0  0  0  0
    8.8349   -3.8253   26.6241 C   0  0  0  0  0  0  0  0  0  0  0  0
    9.6454   -3.3263   27.1496 H   0  0  0  0  0  0  0  0  0  0  0  0
    8.3556   -5.0590   27.0836 C   0  0  0  0  0  0  0  0  0  0  0  0
    8.7933   -5.5227   27.9677 H   0  0  0  0  0  0  0  0  0  0  0  0
    7.3116   -5.6900   26.3974 C   0  0  0  0  0  0  0  0  0  0  0  0
    6.9276   -6.6431   26.7598 H   0  0  0  0  0  0  0  0  0  0  0  0
    6.7621   -5.0996   25.2570 C   0  0  0  0  0  0  0  0  0  0  0  0
    5.9328   -5.5894   24.7508 H   0  0  0  0  0  0  0  0  0  0  0  0
  1  2  1  0
  2  3  2  3
  3  4  1  0
  4  5  2  0
  5  6  1  0
  5  7  1  0
  7  8  2  0
  8  9  1  0
  8 10  1  0
 10 11  1  0
 10 12  2  0
 12 13  1  0
  3 14  1  0
 14 15  1  0
 14 16  1  0
 14 17  1  0
  2 18  1  0
 18 19  1  0
 18 20  1  0
 20 21  2  0
 20 22  1  0
 22 23  2  0
 23 24  1  0
 23 25  1  0
 25 26  1  0
 25 27  2  0
 27 28  1  0
 27 29  1  0
 29 30  1  0
 29 31  2  0
 31 32  1  0
 12  4  1  0
 31 22  1  0
M  END
>  <cnnaffinity>  (1) 
-4.53357

>  <filename>  (1) 
CC(=CNC(=O)c1ccccc1)c1cccnc1

$$$$
