
     RDKit          3D

 34 35  0  0  0  0  0  0  0  0999 V2000
    8.8421   -0.1062   21.3134 C   0  0  0  0  0  0  0  0  0  0  0  0
    7.4755   -0.6806   21.0110 C   0  0  0  0  0  0  0  0  0  0  0  0
    7.0185   -1.6857   21.7719 C   0  0  0  0  0  0  0  0  0  0  0  0
    5.9844   -2.6803   21.3973 C   0  0  0  0  0  0  0  0  0  0  0  0
    5.6062   -2.9095   20.2614 O   0  0  0  0  0  0  0  0  0  0  0  0
    5.5037   -3.3805   22.4796 N   0  0  0  0  0  0  0  0  0  0  0  0
    4.4675   -4.4085   22.3082 C   0  0  0  0  0  0  0  0  0  0  0  0
    3.9592   -5.1597   23.5416 C   0  0  0  0  0  0  0  0  0  0  0  0
    4.0010   -6.5002   23.5151 N   0  0  0  0  0  0  0  0  0  0  0  0
    3.4031   -7.1850   24.4982 C   0  0  0  0  0  0  0  0  0  0  0  0
    2.7165   -6.5784   25.5515 C   0  0  0  0  0  0  0  0  0  0  0  0
    2.6598   -5.1804   25.5858 C   0  0  0  0  0  0  0  0  0  0  0  0
    1.7421   -4.3664   26.8021 Cl  0  0  0  0  0  0  0  0  0  0  0  0
    3.3056   -4.4644   24.5773 C   0  0  0  0  0  0  0  0  0  0  0  0
    3.2444   -3.1236   24.5474 F   0  0  0  0  0  0  0  0  0  0  0  0
    2.2405   -7.1720   26.3228 H   0  0  0  0  0  0  0  0  0  0  0  0
    3.4577   -8.2672   24.4222 H   0  0  0  0  0  0  0  0  0  0  0  0
    4.8392   -5.1614   21.6066 H   0  0  0  0  0  0  0  0  0  0  0  0
    3.5747   -3.9623   21.8522 H   0  0  0  0  0  0  0  0  0  0  0  0
    5.6793   -2.9507   23.3699 H   0  0  0  0  0  0  0  0  0  0  0  0
    7.4999   -1.8606   22.7311 H   0  0  0  0  0  0  0  0  0  0  0  0
    6.6899   -0.0802   19.8875 C   0  0  0  0  0  0  0  0  0  0  0  0
    5.4544    0.5487   20.1204 C   0  0  0  0  0  0  0  0  0  0  0  0
    4.8416    1.2439   19.0738 C   0  0  0  0  0  0  0  0  0  0  0  0
    5.4738    1.2637   17.8236 C   0  0  0  0  0  0  0  0  0  0  0  0
    6.6381    0.6457   17.5651 N   0  0  0  0  0  0  0  0  0  0  0  0
    7.2203   -0.0006   18.5862 C   0  0  0  0  0  0  0  0  0  0  0  0
    8.1660   -0.4924   18.3546 H   0  0  0  0  0  0  0  0  0  0  0  0
    5.0234    1.7970   16.9872 H   0  0  0  0  0  0  0  0  0  0  0  0
    3.9040    1.7790   19.2099 H   0  0  0  0  0  0  0  0  0  0  0  0
    5.0056    0.5139   21.1154 H   0  0  0  0  0  0  0  0  0  0  0  0
    9.6511   -0.7498   20.9381 H   0  0  0  0  0  0  0  0  0  0  0  0
    8.9638    0.8744   20.8483 H   0  0  0  0  0  0  0  0  0  0  0  0
    8.9961    0.0123   22.3942 H   0  0  0  0  0  0  0  0  0  0  0  0
  1  2  1  0
  2  3  2  3
  3  4  1  0
  4  5  2  0
  4  6  1  0
  6  7  1  0
  7  8  1  0
  8  9  2  0
  9 10  1  0
 10 11  2  0
 11 12  1  0
 12 13  1  0
 12 14  2  0
 14 15  1  0
 11 16  1  0
 10 17  1  0
  7 18  1  0
  7 19  1  0
  6 20  1  0
  3 21  1  0
  2 22  1  0
 22 23  2  0
 23 24  1  0
 24 25  2  0
 25 26  1  0
 26 27  2  0
 27 28  1  0
 25 29  1  0
 24 30  1  0
 23 31  1  0
  1 32  1  0
  1 33  1  0
  1 34  1  0
 14  8  1  0
 27 22  1  0
M  END
>  <cnnaffinity>  (1) 
-5.29265

>  <filename>  (1) 
CC(=CC(=O)NCc1nccc(Cl)c1F)c1cccnc1

$$$$
