
     RDKit          3D

 31 32  0  0  0  0  0  0  0  0999 V2000
    7.7629   -1.6152   20.4736 H   0  0  0  0  0  0  0  0  0  0  0  0
    7.2825   -0.6871   20.7891 C   0  0  0  0  0  0  0  0  0  0  0  0
    7.4545   -0.3118   22.0628 C   0  0  0  0  0  0  0  0  0  0  0  0
    7.8284   -1.2558   23.0386 N   0  0  0  0  0  0  0  0  0  0  0  0
    8.6402   -1.0091   23.5841 H   0  0  0  0  0  0  0  0  0  0  0  0
    7.5116   -2.5973   23.0379 C   0  0  0  0  0  0  0  0  0  0  0  0
    6.5410   -3.0554   22.4626 O   0  0  0  0  0  0  0  0  0  0  0  0
    8.4701   -3.4951   23.8515 C   0  0  0  0  0  0  0  0  0  0  0  0
    9.7139   -3.0279   24.1028 N   0  0  0  0  0  0  0  0  0  0  0  0
   10.5810   -3.8181   24.7368 C   0  0  0  0  0  0  0  0  0  0  0  0
   11.5685   -3.4048   24.9084 H   0  0  0  0  0  0  0  0  0  0  0  0
   10.2459   -5.0969   25.1811 C   0  0  0  0  0  0  0  0  0  0  0  0
   10.9850   -5.6866   25.7043 H   0  0  0  0  0  0  0  0  0  0  0  0
    8.9488   -5.5678   24.9784 C   0  0  0  0  0  0  0  0  0  0  0  0
    8.6597   -6.5393   25.3786 H   0  0  0  0  0  0  0  0  0  0  0  0
    8.0381   -4.7592   24.2942 C   0  0  0  0  0  0  0  0  0  0  0  0
    7.0205   -5.0821   24.0940 H   0  0  0  0  0  0  0  0  0  0  0  0
    7.4870    1.0916   22.5754 C   0  0  0  0  0  0  0  0  0  0  0  0
    6.5996    1.3394   23.1700 H   0  0  0  0  0  0  0  0  0  0  0  0
    8.3562    1.2251   23.2283 H   0  0  0  0  0  0  0  0  0  0  0  0
    7.5840    1.7830   21.7347 H   0  0  0  0  0  0  0  0  0  0  0  0
    6.5933    0.0645   19.7197 C   0  0  0  0  0  0  0  0  0  0  0  0
    7.0913    0.0590   18.3962 C   0  0  0  0  0  0  0  0  0  0  0  0
    8.0062   -0.4926   18.1756 H   0  0  0  0  0  0  0  0  0  0  0  0
    6.5222    0.7025   17.3721 N   0  0  0  0  0  0  0  0  0  0  0  0
    5.3848    1.3761   17.6322 C   0  0  0  0  0  0  0  0  0  0  0  0
    4.9373    1.8869   16.7838 H   0  0  0  0  0  0  0  0  0  0  0  0
    4.7863    1.4336   18.8963 C   0  0  0  0  0  0  0  0  0  0  0  0
    3.8614    1.9869   19.0316 H   0  0  0  0  0  0  0  0  0  0  0  0
    5.4076    0.7756   19.9596 C   0  0  0  0  0  0  0  0  0  0  0  0
    4.9849    0.7823   20.9657 H   0  0  0  0  0  0  0  0  0  0  0  0
  1  2  1  0
  2  3  2  3
  3  4  1  0
  4  5  1  0
  4  6  1  0
  6  7  2  0
  6  8  1  0
  8  9  2  0
  9 10  1  0
 10 11  1  0
 10 12  2  0
 12 13  1  0
 12 14  1  0
 14 15  1  0
 14 16  2  0
 16 17  1  0
  3 18  1  0
 18 19  1  0
 18 20  1  0
 18 21  1  0
  2 22  1  0
 22 23  2  0
 23 24  1  0
 23 25  1  0
 25 26  2  0
 26 27  1  0
 26 28  1  0
 28 29  1  0
 28 30  2  0
 30 31  1  0
 16  8  1  0
 30 22  1  0
M  END
>  <cnnaffinity>  (1) 
-4.76865

>  <filename>  (1) 
CC(=Cc1cccnc1)NC(=O)c1ccccn1

$$$$
