
     RDKit          3D

 39 41  0  0  0  0  0  0  0  0999 V2000
    8.4627   -0.5295   21.0040 C   0  0  0  0  0  0  0  0  0  0  0  0
    7.0785   -0.8590   20.4983 C   0  0  0  0  0  0  0  0  0  0  0  0
    6.3935   -1.9523   20.8477 C   0  0  0  0  0  0  0  0  0  0  0  0
    6.7131   -2.8498   21.9949 C   0  0  0  0  0  0  0  0  0  0  0  0
    6.5921   -4.0600   21.9206 O   0  0  0  0  0  0  0  0  0  0  0  0
    7.1546   -2.2184   23.1166 N   0  0  0  0  0  0  0  0  0  0  0  0
    7.9715   -2.8720   24.1192 C   0  0  0  0  0  0  0  0  0  0  0  0
    8.8489   -1.8590   24.8147 C   0  0  0  0  0  0  0  0  0  0  0  0
   10.1412   -1.5460   24.3649 C   0  0  0  0  0  0  0  0  0  0  0  0
   10.9541   -0.6129   25.0542 C   0  0  0  0  0  0  0  0  0  0  0  0
   10.5045   -0.0143   26.2219 C   0  0  0  0  0  0  0  0  0  0  0  0
    9.2059   -0.3094   26.6572 C   0  0  0  0  0  0  0  0  0  0  0  0
    8.3413   -1.1691   25.9468 C   0  0  0  0  0  0  0  0  0  0  0  0
    7.0783   -1.1137   26.6362 C   0  0  0  0  0  0  0  0  0  0  0  0
    7.2323   -0.2928   27.7186 C   0  0  0  0  0  0  0  0  0  0  0  0
    8.5236    0.1842   27.7382 N   0  0  0  0  0  0  0  0  0  0  0  0
    8.9814    0.6668   28.4975 H   0  0  0  0  0  0  0  0  0  0  0  0
    6.5431   -0.0696   28.5232 H   0  0  0  0  0  0  0  0  0  0  0  0
    6.1486   -1.5613   26.3121 H   0  0  0  0  0  0  0  0  0  0  0  0
   11.1092    0.6787   26.7850 H   0  0  0  0  0  0  0  0  0  0  0  0
   11.9596   -0.3793   24.7113 H   0  0  0  0  0  0  0  0  0  0  0  0
   10.5522   -2.0461   23.4900 H   0  0  0  0  0  0  0  0  0  0  0  0
    8.5750   -3.6509   23.6381 H   0  0  0  0  0  0  0  0  0  0  0  0
    7.3242   -3.3920   24.8359 H   0  0  0  0  0  0  0  0  0  0  0  0
    7.1089   -1.2144   23.1249 H   0  0  0  0  0  0  0  0  0  0  0  0
    5.6218   -2.3636   20.1998 H   0  0  0  0  0  0  0  0  0  0  0  0
    6.4953    0.0667   19.4886 C   0  0  0  0  0  0  0  0  0  0  0  0
    5.2901    0.7522   19.7097 C   0  0  0  0  0  0  0  0  0  0  0  0
    4.7875    1.5535   18.6838 C   0  0  0  0  0  0  0  0  0  0  0  0
    5.4883    1.6202   17.4737 C   0  0  0  0  0  0  0  0  0  0  0  0
    6.6509    0.9860   17.2515 N   0  0  0  0  0  0  0  0  0  0  0  0
    7.1430    0.2534   18.2559 C   0  0  0  0  0  0  0  0  0  0  0  0
    8.1025   -0.2368   18.0834 H   0  0  0  0  0  0  0  0  0  0  0  0
    5.1019    2.2007   16.6395 H   0  0  0  0  0  0  0  0  0  0  0  0
    3.8731    2.1238   18.8003 H   0  0  0  0  0  0  0  0  0  0  0  0
    4.7871    0.6650   20.6755 H   0  0  0  0  0  0  0  0  0  0  0  0
    8.9064   -1.3985   21.5016 H   0  0  0  0  0  0  0  0  0  0  0  0
    9.1171   -0.2219   20.1813 H   0  0  0  0  0  0  0  0  0  0  0  0
    8.4297    0.3171   21.7011 H   0  0  0  0  0  0  0  0  0  0  0  0
  1  2  1  0
  2  3  2  3
  3  4  1  0
  4  5  2  0
  4  6  1  0
  6  7  1  0
  7  8  1  0
  8  9  2  0
  9 10  1  0
 10 11  2  0
 11 12  1  0
 12 13  2  0
 13 14  1  0
 14 15  2  0
 15 16  1  0
 16 17  1  0
 15 18  1  0
 14 19  1  0
 11 20  1  0
 10 21  1  0
  9 22  1  0
  7 23  1  0
  7 24  1  0
  6 25  1  0
  3 26  1  0
  2 27  1  0
 27 28  2  0
 28 29  1  0
 29 30  2  0
 30 31  1  0
 31 32  2  0
 32 33  1  0
 30 34  1  0
 29 35  1  0
 28 36  1  0
  1 37  1  0
  1 38  1  0
  1 39  1  0
 13  8  1  0
 32 27  1  0
 16 12  1  0
M  END
>  <cnnaffinity>  (1) 
-5.34537

>  <filename>  (1) 
CC(=CC(=O)NCc1cccc2[nH]ccc12)c1cccnc1

$$$$
