
     RDKit          3D

 28 29  0  0  0  0  0  0  0  0999 V2000
    7.0975   -2.4874   20.0307 H   0  0  0  0  0  0  0  0  0  0  0  0
    7.6217   -1.9666   20.8332 C   0  0  0  0  0  0  0  0  0  0  0  0
    7.3722   -0.6567   21.0038 C   0  0  0  0  0  0  0  0  0  0  0  0
    6.6564    0.0509   19.9020 C   0  0  0  0  0  0  0  0  0  0  0  0
    7.1559    0.0697   18.5836 C   0  0  0  0  0  0  0  0  0  0  0  0
    8.1008   -0.4226   18.3512 H   0  0  0  0  0  0  0  0  0  0  0  0
    6.5459    0.6770   17.5590 N   0  0  0  0  0  0  0  0  0  0  0  0
    5.3854    1.3035   17.8109 C   0  0  0  0  0  0  0  0  0  0  0  0
    4.9257    1.8117   16.9657 H   0  0  0  0  0  0  0  0  0  0  0  0
    4.7837    1.3290   19.0739 C   0  0  0  0  0  0  0  0  0  0  0  0
    3.8457    1.8579   19.2154 H   0  0  0  0  0  0  0  0  0  0  0  0
    5.4330    0.6945   20.1326 C   0  0  0  0  0  0  0  0  0  0  0  0
    5.0064    0.6724   21.1359 H   0  0  0  0  0  0  0  0  0  0  0  0
    7.7094    0.0989   22.2653 C   0  0  0  0  0  0  0  0  0  0  0  0
    7.5818   -0.5417   23.1453 H   0  0  0  0  0  0  0  0  0  0  0  0
    7.0784    0.9848   22.3786 H   0  0  0  0  0  0  0  0  0  0  0  0
    8.7528    0.4413   22.2644 H   0  0  0  0  0  0  0  0  0  0  0  0
    8.4576   -2.7834   21.7079 C   0  0  0  0  0  0  0  0  0  0  0  0
    9.5490   -2.4642   22.5075 C   0  0  0  0  0  0  0  0  0  0  0  0
   10.0373   -1.5046   22.5603 H   0  0  0  0  0  0  0  0  0  0  0  0
    9.8376   -3.6425   23.2178 C   0  0  0  0  0  0  0  0  0  0  0  0
   10.6452   -3.8724   23.9082 H   0  0  0  0  0  0  0  0  0  0  0  0
    9.0012   -4.6163   22.8766 N   0  0  0  0  0  0  0  0  0  0  0  0
    8.1973   -4.0958   21.9461 N   0  0  0  0  0  0  0  0  0  0  0  0
    7.2313   -4.9439   21.2808 C   0  0  0  0  0  0  0  0  0  0  0  0
    7.5042   -5.1039   20.2317 H   0  0  0  0  0  0  0  0  0  0  0  0
    7.2441   -5.9003   21.8059 H   0  0  0  0  0  0  0  0  0  0  0  0
    6.2385   -4.4854   21.3426 H   0  0  0  0  0  0  0  0  0  0  0  0
  1  2  1  0
  2  3  2  3
  3  4  1  0
  4  5  2  0
  5  6  1  0
  5  7  1  0
  7  8  2  0
  8  9  1  0
  8 10  1  0
 10 11  1  0
 10 12  2  0
 12 13  1  0
  3 14  1  0
 14 15  1  0
 14 16  1  0
 14 17  1  0
  2 18  1  0
 18 19  2  0
 19 20  1  0
 19 21  1  0
 21 22  1  0
 21 23  2  0
 23 24  1  0
 24 25  1  0
 25 26  1  0
 25 27  1  0
 25 28  1  0
 12  4  1  0
 24 18  1  0
M  END
>  <cnnaffinity>  (1) 
-4.68394

>  <filename>  (1) 
CC(=Cc1ccnn1C)c1cccnc1

$$$$
