
     RDKit          3D

 32 33  0  0  0  0  0  0  0  0999 V2000
    4.9539    1.8425   16.9725 H   0  0  0  0  0  0  0  0  0  0  0  0
    5.3997    1.2990   17.8035 C   0  0  0  0  0  0  0  0  0  0  0  0
    6.5644    0.6783   17.5511 N   0  0  0  0  0  0  0  0  0  0  0  0
    7.1526    0.0465   18.5739 C   0  0  0  0  0  0  0  0  0  0  0  0
    8.1135   -0.4227   18.3486 H   0  0  0  0  0  0  0  0  0  0  0  0
    6.6224   -0.0400   19.8753 C   0  0  0  0  0  0  0  0  0  0  0  0
    7.4004   -0.7258   20.9797 C   0  0  0  0  0  0  0  0  0  0  0  0
    6.7585   -0.9648   21.8331 H   0  0  0  0  0  0  0  0  0  0  0  0
    7.8484   -1.6688   20.6398 H   0  0  0  0  0  0  0  0  0  0  0  0
    8.8321    0.2359   21.6184 S   0  0  0  0  0  0  0  0  0  0  0  0
    7.9540    1.5904   22.3813 C   0  0  0  0  0  0  0  0  0  0  0  0
    7.5146    1.5255   23.7075 C   0  0  0  0  0  0  0  0  0  0  0  0
    7.7548    0.6598   24.3210 H   0  0  0  0  0  0  0  0  0  0  0  0
    6.7513    2.5806   24.2140 C   0  0  0  0  0  0  0  0  0  0  0  0
    6.3669    2.5212   25.2259 H   0  0  0  0  0  0  0  0  0  0  0  0
    6.4618    3.7043   23.4413 C   0  0  0  0  0  0  0  0  0  0  0  0
    5.8733    4.5220   23.8424 H   0  0  0  0  0  0  0  0  0  0  0  0
    6.9286    3.7849   22.1233 C   0  0  0  0  0  0  0  0  0  0  0  0
    6.6171    4.9243   21.3394 N   0  0  0  0  0  0  0  0  0  0  0  0
    6.2501    4.7612   20.4127 H   0  0  0  0  0  0  0  0  0  0  0  0
    6.4220    6.1899   21.8460 C   0  0  0  0  0  0  0  0  0  0  0  0
    6.7124    6.5055   22.9819 O   0  0  0  0  0  0  0  0  0  0  0  0
    5.8531    7.1841   20.8586 C   0  0  0  0  0  0  0  0  0  0  0  0
    5.4637    8.0362   21.4190 H   0  0  0  0  0  0  0  0  0  0  0  0
    5.0444    6.7556   20.2596 H   0  0  0  0  0  0  0  0  0  0  0  0
    6.6493    7.5347   20.1927 H   0  0  0  0  0  0  0  0  0  0  0  0
    7.6633    2.7117   21.5981 C   0  0  0  0  0  0  0  0  0  0  0  0
    8.0164    2.6588   20.5809 H   0  0  0  0  0  0  0  0  0  0  0  0
    5.3922    0.5987   20.1049 C   0  0  0  0  0  0  0  0  0  0  0  0
    4.9342    0.5910   21.0956 H   0  0  0  0  0  0  0  0  0  0  0  0
    4.7796    1.2842   19.0519 C   0  0  0  0  0  0  0  0  0  0  0  0
    3.8444    1.8175   19.1912 H   0  0  0  0  0  0  0  0  0  0  0  0
  1  2  1  0
  2  3  2  0
  3  4  1  0
  4  5  1  0
  4  6  2  0
  6  7  1  0
  7  8  1  0
  7  9  1  0
  7 10  1  0
 10 11  1  0
 11 12  2  0
 12 13  1  0
 12 14  1  0
 14 15  1  0
 14 16  2  0
 16 17  1  0
 16 18  1  0
 18 19  1  0
 19 20  1  0
 19 21  1  0
 21 22  2  0
 21 23  1  0
 23 24  1  0
 23 25  1  0
 23 26  1  0
 18 27  2  0
 27 28  1  0
  6 29  1  0
 29 30  1  0
 29 31  2  0
 31 32  1  0
 31  2  1  0
 27 11  1  0
M  END
>  <cnnaffinity>  (1) 
-4.63493

>  <filename>  (1) 
CC(=O)Nc1cccc(SCc2cccnc2)c1

$$$$
