
     RDKit          3D

 34 36  0  0  0  0  0  0  0  0999 V2000
    5.0729    1.8595   17.0184 H   0  0  0  0  0  0  0  0  0  0  0  0
    5.5597    1.3157   17.8261 C   0  0  0  0  0  0  0  0  0  0  0  0
    6.6934    0.6725   17.5008 N   0  0  0  0  0  0  0  0  0  0  0  0
    7.3292   -0.0010   18.4646 C   0  0  0  0  0  0  0  0  0  0  0  0
    8.2588   -0.4925   18.1787 H   0  0  0  0  0  0  0  0  0  0  0  0
    6.8555   -0.1025   19.7846 C   0  0  0  0  0  0  0  0  0  0  0  0
    7.5568   -0.8635   20.7478 N   0  0  0  0  0  0  0  0  0  0  0  0
    8.9018   -0.7592   21.0962 C   0  0  0  0  0  0  0  0  0  0  0  0
    9.5201   -0.0562   20.5545 H   0  0  0  0  0  0  0  0  0  0  0  0
    9.1687   -1.6102   22.1236 C   0  0  0  0  0  0  0  0  0  0  0  0
   10.0536   -1.8083   22.7074 H   0  0  0  0  0  0  0  0  0  0  0  0
    7.9672   -2.2626   22.3987 N   0  0  0  0  0  0  0  0  0  0  0  0
    7.5389   -3.2220   23.2584 N   0  0  0  0  0  0  0  0  0  0  0  0
    6.2393   -3.4018   22.9180 C   0  0  0  0  0  0  0  0  0  0  0  0
    5.3395   -4.4845   23.4736 C   0  0  0  0  0  0  0  0  0  0  0  0
    5.3606   -5.0750   24.6190 N   0  0  0  0  0  0  0  0  0  0  0  0
    6.2687   -4.7614   25.5896 N   0  0  0  0  0  0  0  0  0  0  0  0
    6.9403   -4.0011   25.4982 H   0  0  0  0  0  0  0  0  0  0  0  0
    6.3433   -5.3918   26.8020 C   0  0  0  0  0  0  0  0  0  0  0  0
    7.4352   -4.8610   27.9313 S   0  0  0  0  0  0  0  0  0  0  0  0
    5.5061   -6.4252   27.0372 N   0  0  0  0  0  0  0  0  0  0  0  0
    5.0517   -6.8044   26.2207 H   0  0  0  0  0  0  0  0  0  0  0  0
    5.8685   -7.0567   27.7340 H   0  0  0  0  0  0  0  0  0  0  0  0
    4.2423   -5.0432   22.5854 C   0  0  0  0  0  0  0  0  0  0  0  0
    4.0678   -4.4083   21.7240 H   0  0  0  0  0  0  0  0  0  0  0  0
    3.3177   -5.1302   23.1625 H   0  0  0  0  0  0  0  0  0  0  0  0
    4.5309   -6.0406   22.2317 H   0  0  0  0  0  0  0  0  0  0  0  0
    5.8448   -2.5027   21.8797 C   0  0  0  0  0  0  0  0  0  0  0  0
    4.8631   -2.3059   21.5075 H   0  0  0  0  0  0  0  0  0  0  0  0
    6.9965   -1.8116   21.5786 C   0  0  0  0  0  0  0  0  0  0  0  0
    5.6566    0.5502   20.1131 C   0  0  0  0  0  0  0  0  0  0  0  0
    5.2592    0.4723   21.1276 H   0  0  0  0  0  0  0  0  0  0  0  0
    5.0121    1.2857   19.1154 C   0  0  0  0  0  0  0  0  0  0  0  0
    4.0921    1.8241   19.3184 H   0  0  0  0  0  0  0  0  0  0  0  0
  1  2  1  0
  2  3  2  0
  3  4  1  0
  4  5  1  0
  4  6  2  0
  6  7  1  0
  7  8  1  0
  8  9  1  0
  8 10  2  0
 10 11  1  0
 10 12  1  0
 12 13  1  0
 13 14  2  0
 14 15  1  0
 15 16  2  3
 16 17  1  0
 17 18  1  0
 17 19  1  0
 19 20  2  0
 19 21  1  0
 21 22  1  0
 21 23  1  0
 15 24  1  0
 24 25  1  0
 24 26  1  0
 24 27  1  0
 14 28  1  0
 28 29  1  0
 28 30  2  0
  6 31  1  0
 31 32  1  0
 31 33  2  0
 33 34  1  0
 33  2  1  0
 30  7  1  0
 30 12  1  0
M  END
>  <cnnaffinity>  (1) 
-5.19071

>  <filename>  (1) 
CC(=NNC(N)=S)c1cc2n(-c3cccnc3)ccn2n1

$$$$
