
     RDKit          3D

 37 39  0  0  0  0  0  0  0  0999 V2000
    4.9763    1.8415   17.0163 H   0  0  0  0  0  0  0  0  0  0  0  0
    5.4273    1.3094   17.8538 C   0  0  0  0  0  0  0  0  0  0  0  0
    6.5729    0.6532   17.6030 N   0  0  0  0  0  0  0  0  0  0  0  0
    7.1522   -0.0058   18.6148 C   0  0  0  0  0  0  0  0  0  0  0  0
    8.0735   -0.5375   18.3846 H   0  0  0  0  0  0  0  0  0  0  0  0
    6.6200   -0.0457   19.9125 C   0  0  0  0  0  0  0  0  0  0  0  0
    7.2434   -0.7708   20.9704 N   0  0  0  0  0  0  0  0  0  0  0  0
    6.5074   -1.5949   21.7503 N   0  0  0  0  0  0  0  0  0  0  0  0
    7.2714   -1.9958   22.6919 N   0  0  0  0  0  0  0  0  0  0  0  0
    8.5074   -1.4624   22.5850 N   0  0  0  0  0  0  0  0  0  0  0  0
    8.4920   -0.7110   21.5084 C   0  0  0  0  0  0  0  0  0  0  0  0
    9.8649    0.1033   20.7865 S   0  0  0  0  0  0  0  0  0  0  0  0
    9.8154    1.7425   21.6191 C   0  0  0  0  0  0  0  0  0  0  0  0
   10.5497    2.3330   21.0440 H   0  0  0  0  0  0  0  0  0  0  0  0
   10.2619    1.6171   23.0750 C   0  0  0  0  0  0  0  0  0  0  0  0
    9.5839    0.9118   23.5763 H   0  0  0  0  0  0  0  0  0  0  0  0
   11.2717    1.1970   23.1471 H   0  0  0  0  0  0  0  0  0  0  0  0
   10.2186    2.9711   23.7745 C   0  0  0  0  0  0  0  0  0  0  0  0
   10.4833    2.8426   24.8258 H   0  0  0  0  0  0  0  0  0  0  0  0
   10.9470    3.6745   23.3285 H   0  0  0  0  0  0  0  0  0  0  0  0
    8.8657    3.5449   23.7024 N   0  0  0  0  0  0  0  0  0  0  0  0
    8.4293    4.3123   24.7650 C   0  0  0  0  0  0  0  0  0  0  0  0
    9.1130    4.5151   25.7565 O   0  0  0  0  0  0  0  0  0  0  0  0
    7.0525    4.9169   24.6105 C   0  0  0  0  0  0  0  0  0  0  0  0
    6.3329    4.1853   24.2369 H   0  0  0  0  0  0  0  0  0  0  0  0
    7.1154    5.7478   23.9005 H   0  0  0  0  0  0  0  0  0  0  0  0
    6.7101    5.2996   25.5674 H   0  0  0  0  0  0  0  0  0  0  0  0
    8.3191    3.6851   22.3398 C   0  0  0  0  0  0  0  0  0  0  0  0
    7.2571    3.9334   22.3786 H   0  0  0  0  0  0  0  0  0  0  0  0
    8.8165    4.5131   21.8048 H   0  0  0  0  0  0  0  0  0  0  0  0
    8.4177    2.3654   21.5713 C   0  0  0  0  0  0  0  0  0  0  0  0
    7.7028    1.6636   22.0259 H   0  0  0  0  0  0  0  0  0  0  0  0
    8.1032    2.5001   20.5365 H   0  0  0  0  0  0  0  0  0  0  0  0
    5.4235    0.6363   20.1700 C   0  0  0  0  0  0  0  0  0  0  0  0
    4.9792    0.6008   21.1659 H   0  0  0  0  0  0  0  0  0  0  0  0
    4.8194    1.3230   19.1138 C   0  0  0  0  0  0  0  0  0  0  0  0
    3.8879    1.8600   19.2571 H   0  0  0  0  0  0  0  0  0  0  0  0
  1  2  1  0
  2  3  2  0
  3  4  1  0
  4  5  1  0
  4  6  2  0
  6  7  1  0
  7  8  1  0
  8  9  2  0
  9 10  1  0
 10 11  2  0
 11 12  1  0
 12 13  1  0
 13 14  1  0
 13 15  1  0
 15 16  1  0
 15 17  1  0
 15 18  1  0
 18 19  1  0
 18 20  1  0
 18 21  1  0
 21 22  1  0
 22 23  2  0
 22 24  1  0
 24 25  1  0
 24 26  1  0
 24 27  1  0
 21 28  1  0
 28 29  1  0
 28 30  1  0
 28 31  1  0
 31 32  1  0
 31 33  1  0
  6 34  1  0
 34 35  1  0
 34 36  2  0
 36 37  1  0
 36  2  1  0
 11  7  1  0
 31 13  1  0
M  END
>  <cnnaffinity>  (1) 
-5.25693

>  <filename>  (1) 
CC(=O)N1CCC(Sc2nnnn2-c2cccnc2)CC1

$$$$
