
     RDKit          3D

 30 31  0  0  0  0  0  0  0  0999 V2000
    6.6868   -1.4441   21.5471 H   0  0  0  0  0  0  0  0  0  0  0  0
    7.3064   -0.7105   21.0215 C   0  0  0  0  0  0  0  0  0  0  0  0
    8.5633   -0.4931   21.4307 C   0  0  0  0  0  0  0  0  0  0  0  0
    9.1359   -1.3162   22.5340 C   0  0  0  0  0  0  0  0  0  0  0  0
   10.1337   -2.1191   22.1537 N   0  0  0  0  0  0  0  0  0  0  0  0
   10.6858   -2.9269   23.0616 C   0  0  0  0  0  0  0  0  0  0  0  0
   11.5070   -3.5420   22.7049 H   0  0  0  0  0  0  0  0  0  0  0  0
   10.2753   -2.9755   24.3971 C   0  0  0  0  0  0  0  0  0  0  0  0
   10.7626   -3.6672   25.0729 H   0  0  0  0  0  0  0  0  0  0  0  0
    9.2817   -2.1020   24.8231 C   0  0  0  0  0  0  0  0  0  0  0  0
    8.9570   -2.0556   25.8657 H   0  0  0  0  0  0  0  0  0  0  0  0
    8.7249   -1.2418   23.8737 C   0  0  0  0  0  0  0  0  0  0  0  0
    7.6869   -0.2391   24.2408 C   0  0  0  0  0  0  0  0  0  0  0  0
    7.6801    0.0214   25.5577 F   0  0  0  0  0  0  0  0  0  0  0  0
    7.8552    0.9354   23.6076 F   0  0  0  0  0  0  0  0  0  0  0  0
    6.4580   -0.6925   23.9126 F   0  0  0  0  0  0  0  0  0  0  0  0
    9.4566    0.5109   20.7615 C   0  0  0  0  0  0  0  0  0  0  0  0
   10.3092    0.8212   21.3771 H   0  0  0  0  0  0  0  0  0  0  0  0
    9.8278    0.0356   19.8520 H   0  0  0  0  0  0  0  0  0  0  0  0
    8.8720    1.3896   20.4729 H   0  0  0  0  0  0  0  0  0  0  0  0
    6.6365   -0.0147   19.9040 C   0  0  0  0  0  0  0  0  0  0  0  0
    7.1573    0.0552   18.5905 C   0  0  0  0  0  0  0  0  0  0  0  0
    8.1023   -0.4272   18.3496 H   0  0  0  0  0  0  0  0  0  0  0  0
    6.5540    0.6816   17.5721 N   0  0  0  0  0  0  0  0  0  0  0  0
    5.3940    1.3017   17.8251 C   0  0  0  0  0  0  0  0  0  0  0  0
    4.9307    1.8110   16.9826 H   0  0  0  0  0  0  0  0  0  0  0  0
    4.7892    1.3093   19.0879 C   0  0  0  0  0  0  0  0  0  0  0  0
    3.8629    1.8500   19.2330 H   0  0  0  0  0  0  0  0  0  0  0  0
    5.4133    0.6346   20.1367 C   0  0  0  0  0  0  0  0  0  0  0  0
    4.9945    0.6204   21.1425 H   0  0  0  0  0  0  0  0  0  0  0  0
  1  2  1  0
  2  3  2  3
  3  4  1  0
  4  5  2  0
  5  6  1  0
  6  7  1  0
  6  8  2  0
  8  9  1  0
  8 10  1  0
 10 11  1  0
 10 12  2  0
 12 13  1  0
 13 14  1  0
 13 15  1  0
 13 16  1  0
  3 17  1  0
 17 18  1  0
 17 19  1  0
 17 20  1  0
  2 21  1  0
 21 22  2  0
 22 23  1  0
 22 24  1  0
 24 25  2  0
 25 26  1  0
 25 27  1  0
 27 28  1  0
 27 29  2  0
 29 30  1  0
 12  4  1  0
 29 21  1  0
M  END
>  <cnnaffinity>  (1) 
-5.25612

>  <filename>  (1) 
CC(=Cc1cccnc1)c1ncccc1C(F)(F)F

$$$$
