
     RDKit          3D

 38 40  0  0  0  0  0  0  0  0999 V2000
    8.8435   -0.4741   21.1444 C   0  0  0  0  0  0  0  0  0  0  0  0
    7.3646   -0.7639   21.0100 C   0  0  0  0  0  0  0  0  0  0  0  0
    6.7404   -1.6385   21.8150 C   0  0  0  0  0  0  0  0  0  0  0  0
    7.4205   -2.4467   22.8517 C   0  0  0  0  0  0  0  0  0  0  0  0
    8.6312   -2.5745   22.9710 O   0  0  0  0  0  0  0  0  0  0  0  0
    6.5655   -3.0877   23.7002 N   0  0  0  0  0  0  0  0  0  0  0  0
    7.0264   -3.7060   24.9367 C   0  0  0  0  0  0  0  0  0  0  0  0
    5.9072   -4.4586   25.5729 C   0  0  0  0  0  0  0  0  0  0  0  0
    5.2907   -4.3987   26.7979 C   0  0  0  0  0  0  0  0  0  0  0  0
    4.3370   -5.3538   26.9559 N   0  0  0  0  0  0  0  0  0  0  0  0
    4.3284   -6.0165   25.8114 C   0  0  0  0  0  0  0  0  0  0  0  0
    3.5135   -7.1151   25.3893 C   0  0  0  0  0  0  0  0  0  0  0  0
    3.5666   -7.5222   24.0836 C   0  0  0  0  0  0  0  0  0  0  0  0
    4.4998   -6.9119   23.1605 C   0  0  0  0  0  0  0  0  0  0  0  0
    5.3485   -5.9381   23.6005 C   0  0  0  0  0  0  0  0  0  0  0  0
    5.2569   -5.4924   24.9109 N   0  0  0  0  0  0  0  0  0  0  0  0
    6.1327   -5.4556   23.0286 H   0  0  0  0  0  0  0  0  0  0  0  0
    4.5487   -7.2094   22.1176 H   0  0  0  0  0  0  0  0  0  0  0  0
    2.8894   -8.3000   23.7304 H   0  0  0  0  0  0  0  0  0  0  0  0
    2.8677   -7.5757   26.1324 H   0  0  0  0  0  0  0  0  0  0  0  0
    5.4655   -3.6750   27.5829 H   0  0  0  0  0  0  0  0  0  0  0  0
    7.4316   -2.9583   25.6291 H   0  0  0  0  0  0  0  0  0  0  0  0
    7.8602   -4.3845   24.7027 H   0  0  0  0  0  0  0  0  0  0  0  0
    5.6061   -2.7966   23.6790 H   0  0  0  0  0  0  0  0  0  0  0  0
    5.6734   -1.8103   21.6965 H   0  0  0  0  0  0  0  0  0  0  0  0
    6.6097   -0.0632   19.9294 C   0  0  0  0  0  0  0  0  0  0  0  0
    5.3756    0.5811   20.1300 C   0  0  0  0  0  0  0  0  0  0  0  0
    4.7997    1.2776   19.0642 C   0  0  0  0  0  0  0  0  0  0  0  0
    5.4508    1.2777   17.8242 C   0  0  0  0  0  0  0  0  0  0  0  0
    6.6051    0.6321   17.5950 N   0  0  0  0  0  0  0  0  0  0  0  0
    7.1586   -0.0023   18.6333 C   0  0  0  0  0  0  0  0  0  0  0  0
    8.0992   -0.5148   18.4356 H   0  0  0  0  0  0  0  0  0  0  0  0
    5.0310    1.8100   16.9734 H   0  0  0  0  0  0  0  0  0  0  0  0
    3.8707    1.8288   19.1763 H   0  0  0  0  0  0  0  0  0  0  0  0
    4.9037    0.5663   21.1140 H   0  0  0  0  0  0  0  0  0  0  0  0
    9.1006   -0.2005   22.1735 H   0  0  0  0  0  0  0  0  0  0  0  0
    9.1404    0.3433   20.4859 H   0  0  0  0  0  0  0  0  0  0  0  0
    9.4396   -1.3665   20.9267 H   0  0  0  0  0  0  0  0  0  0  0  0
  1  2  1  0
  2  3  2  3
  3  4  1  0
  4  5  2  0
  4  6  1  0
  6  7  1  0
  7  8  1  0
  8  9  2  0
  9 10  1  0
 10 11  2  0
 11 12  1  0
 12 13  2  0
 13 14  1  0
 14 15  2  0
 15 16  1  0
 15 17  1  0
 14 18  1  0
 13 19  1  0
 12 20  1  0
  9 21  1  0
  7 22  1  0
  7 23  1  0
  6 24  1  0
  3 25  1  0
  2 26  1  0
 26 27  2  0
 27 28  1  0
 28 29  2  0
 29 30  1  0
 30 31  2  0
 31 32  1  0
 29 33  1  0
 28 34  1  0
 27 35  1  0
  1 36  1  0
  1 37  1  0
  1 38  1  0
 16  8  1  0
 31 26  1  0
 16 11  1  0
M  END
>  <cnnaffinity>  (1) 
-5.26041

>  <filename>  (1) 
CC(=CC(=O)NCc1cnc2ccccn12)c1cccnc1

$$$$
