
     RDKit          3D

 34 35  0  0  0  0  0  0  0  0999 V2000
    5.0627    1.7457   16.9121 H   0  0  0  0  0  0  0  0  0  0  0  0
    5.4650    1.2647   17.8020 C   0  0  0  0  0  0  0  0  0  0  0  0
    6.6141    0.5897   17.6392 N   0  0  0  0  0  0  0  0  0  0  0  0
    7.1229   -0.0154   18.7183 C   0  0  0  0  0  0  0  0  0  0  0  0
    8.0682   -0.5441   18.5784 H   0  0  0  0  0  0  0  0  0  0  0  0
    6.5513    0.0400   19.9898 C   0  0  0  0  0  0  0  0  0  0  0  0
    7.2644   -0.6568   21.0945 C   0  0  0  0  0  0  0  0  0  0  0  0
    7.6283   -0.0921   22.1754 N   0  0  0  0  0  0  0  0  0  0  0  0
    7.8557    1.3412   22.2675 C   0  0  0  0  0  0  0  0  0  0  0  0
    6.9002    1.8778   22.3183 H   0  0  0  0  0  0  0  0  0  0  0  0
    8.3254    1.4915   23.2464 H   0  0  0  0  0  0  0  0  0  0  0  0
    8.7283    2.0441   21.1934 C   0  0  0  0  0  0  0  0  0  0  0  0
    8.2367    1.9979   20.2206 H   0  0  0  0  0  0  0  0  0  0  0  0
    8.8189    3.1069   21.4495 H   0  0  0  0  0  0  0  0  0  0  0  0
   10.0203    1.4803   20.9647 O   0  0  0  0  0  0  0  0  0  0  0  0
   10.9262    1.4136   21.9875 C   0  0  0  0  0  0  0  0  0  0  0  0
   11.9031    0.4084   21.8859 C   0  0  0  0  0  0  0  0  0  0  0  0
   11.8849   -0.2500   21.0257 H   0  0  0  0  0  0  0  0  0  0  0  0
   12.8550    0.2516   22.8950 C   0  0  0  0  0  0  0  0  0  0  0  0
   13.5990   -0.5389   22.8269 H   0  0  0  0  0  0  0  0  0  0  0  0
   12.8407    1.0930   24.0118 C   0  0  0  0  0  0  0  0  0  0  0  0
   13.5492    0.9455   24.8161 H   0  0  0  0  0  0  0  0  0  0  0  0
   11.9004    2.1173   24.0926 C   0  0  0  0  0  0  0  0  0  0  0  0
   11.8886    2.7774   24.9540 H   0  0  0  0  0  0  0  0  0  0  0  0
   10.9553    2.2970   23.0770 C   0  0  0  0  0  0  0  0  0  0  0  0
   10.2574    3.1239   23.1340 H   0  0  0  0  0  0  0  0  0  0  0  0
    7.6149   -2.1164   20.9429 C   0  0  0  0  0  0  0  0  0  0  0  0
    8.6643   -2.2173   20.6330 H   0  0  0  0  0  0  0  0  0  0  0  0
    7.5197   -2.6260   21.9060 H   0  0  0  0  0  0  0  0  0  0  0  0
    6.9757   -2.6117   20.2105 H   0  0  0  0  0  0  0  0  0  0  0  0
    5.3601    0.7675   20.1538 C   0  0  0  0  0  0  0  0  0  0  0  0
    4.8918    0.8591   21.1356 H   0  0  0  0  0  0  0  0  0  0  0  0
    4.7982    1.3667   19.0265 C   0  0  0  0  0  0  0  0  0  0  0  0
    3.8664    1.9183   19.0850 H   0  0  0  0  0  0  0  0  0  0  0  0
  1  2  1  0
  2  3  2  0
  3  4  1  0
  4  5  1  0
  4  6  2  0
  6  7  1  0
  7  8  2  3
  8  9  1  0
  9 10  1  0
  9 11  1  0
  9 12  1  0
 12 13  1  0
 12 14  1  0
 12 15  1  0
 15 16  1  0
 16 17  2  0
 17 18  1  0
 17 19  1  0
 19 20  1  0
 19 21  2  0
 21 22  1  0
 21 23  1  0
 23 24  1  0
 23 25  2  0
 25 26  1  0
  7 27  1  0
 27 28  1  0
 27 29  1  0
 27 30  1  0
  6 31  1  0
 31 32  1  0
 31 33  2  0
 33 34  1  0
 33  2  1  0
 25 16  1  0
M  END
>  <cnnaffinity>  (1) 
-4.66546

>  <filename>  (1) 
CC(=NCCOc1ccccc1)c1cccnc1

$$$$
