
     RDKit          3D

 41 43  0  0  0  0  0  0  0  0999 V2000
    4.9167    1.7757   17.0028 H   0  0  0  0  0  0  0  0  0  0  0  0
    5.4047    1.2894   17.8484 C   0  0  0  0  0  0  0  0  0  0  0  0
    6.5654    0.6666   17.5912 N   0  0  0  0  0  0  0  0  0  0  0  0
    7.1782    0.0471   18.6077 C   0  0  0  0  0  0  0  0  0  0  0  0
    8.1264   -0.4273   18.3791 H   0  0  0  0  0  0  0  0  0  0  0  0
    6.6683   -0.0104   19.9188 C   0  0  0  0  0  0  0  0  0  0  0  0
    7.3672   -0.7129   20.9585 N   0  0  0  0  0  0  0  0  0  0  0  0
    6.5382   -1.5243   21.7614 N   0  0  0  0  0  0  0  0  0  0  0  0
    7.1003   -2.3420   22.5968 C   0  0  0  0  0  0  0  0  0  0  0  0
    6.3377   -3.1721   23.4139 N   0  0  0  0  0  0  0  0  0  0  0  0
    5.0638   -3.7011   22.9277 C   0  0  0  0  0  0  0  0  0  0  0  0
    5.0991   -3.7756   21.8366 H   0  0  0  0  0  0  0  0  0  0  0  0
    4.2164   -3.0468   23.1693 H   0  0  0  0  0  0  0  0  0  0  0  0
    4.7925   -5.0951   23.5194 C   0  0  0  0  0  0  0  0  0  0  0  0
    3.7890   -5.4197   23.2348 H   0  0  0  0  0  0  0  0  0  0  0  0
    5.5011   -5.8079   23.0718 H   0  0  0  0  0  0  0  0  0  0  0  0
    4.9078   -5.1174   24.9945 N   0  0  0  0  0  0  0  0  0  0  0  0
    4.0513   -5.9184   25.7371 C   0  0  0  0  0  0  0  0  0  0  0  0
    2.9771   -6.2819   25.2946 O   0  0  0  0  0  0  0  0  0  0  0  0
    4.4848   -6.3350   27.1361 C   0  0  0  0  0  0  0  0  0  0  0  0
    5.5124   -6.7059   27.1653 H   0  0  0  0  0  0  0  0  0  0  0  0
    4.3910   -5.5020   27.8389 H   0  0  0  0  0  0  0  0  0  0  0  0
    3.8136   -7.1269   27.4701 H   0  0  0  0  0  0  0  0  0  0  0  0
    6.1569   -4.5172   25.4931 C   0  0  0  0  0  0  0  0  0  0  0  0
    6.1086   -4.4126   26.5807 H   0  0  0  0  0  0  0  0  0  0  0  0
    7.0171   -5.1629   25.2641 H   0  0  0  0  0  0  0  0  0  0  0  0
    6.4113   -3.1227   24.8822 C   0  0  0  0  0  0  0  0  0  0  0  0
    5.6812   -2.4139   25.3110 H   0  0  0  0  0  0  0  0  0  0  0  0
    7.4009   -2.7778   25.2029 H   0  0  0  0  0  0  0  0  0  0  0  0
    8.6066   -2.5381   22.6332 C   0  0  0  0  0  0  0  0  0  0  0  0
    8.8456   -3.2670   21.8442 H   0  0  0  0  0  0  0  0  0  0  0  0
    8.9449   -2.9830   23.5741 H   0  0  0  0  0  0  0  0  0  0  0  0
    9.3420   -1.2252   22.3556 C   0  0  0  0  0  0  0  0  0  0  0  0
   10.3977   -1.3908   22.1340 H   0  0  0  0  0  0  0  0  0  0  0  0
    9.3063   -0.5545   23.2217 H   0  0  0  0  0  0  0  0  0  0  0  0
    8.7471   -0.4544   21.1880 C   0  0  0  0  0  0  0  0  0  0  0  0
    9.3988    0.3196   20.5105 O   0  0  0  0  0  0  0  0  0  0  0  0
    5.4508    0.6383   20.1743 C   0  0  0  0  0  0  0  0  0  0  0  0
    5.0172    0.6105   21.1742 H   0  0  0  0  0  0  0  0  0  0  0  0
    4.8168    1.3077   19.1197 C   0  0  0  0  0  0  0  0  0  0  0  0
    3.8807    1.8397   19.2672 H   0  0  0  0  0  0  0  0  0  0  0  0
  1  2  1  0
  2  3  2  0
  3  4  1  0
  4  5  1  0
  4  6  2  0
  6  7  1  0
  7  8  1  0
  8  9  2  0
  9 10  1  0
 10 11  1  0
 11 12  1  0
 11 13  1  0
 11 14  1  0
 14 15  1  0
 14 16  1  0
 14 17  1  0
 17 18  1  0
 18 19  2  0
 18 20  1  0
 20 21  1  0
 20 22  1  0
 20 23  1  0
 17 24  1  0
 24 25  1  0
 24 26  1  0
 24 27  1  0
 27 28  1  0
 27 29  1  0
  9 30  1  0
 30 31  1  0
 30 32  1  0
 30 33  1  0
 33 34  1  0
 33 35  1  0
 33 36  1  0
 36 37  2  0
  6 38  1  0
 38 39  1  0
 38 40  2  0
 40 41  1  0
 40  2  1  0
 36  7  1  0
 27 10  1  0
M  END
>  <cnnaffinity>  (1) 
-5.22164

>  <filename>  (1) 
CC(=O)N1CCN(C2=NN(c3cccnc3)C(=O)CC2)CC1

$$$$
