
     RDKit          3D

 50 54  0  0  0  0  0  0  0  0999 V2000
    8.3144    0.7009   27.1222 C   0  0  0  0  0  0  0  0  0  0  0  0
    9.1001    1.2875   25.9729 C   0  0  0  0  0  0  0  0  0  0  0  0
   10.1287    0.7749   25.5607 O   0  0  0  0  0  0  0  0  0  0  0  0
    8.5797    2.4107   25.3803 N   0  0  0  0  0  0  0  0  0  0  0  0
    7.4624    3.2129   25.8579 C   0  0  0  0  0  0  0  0  0  0  0  0
    7.5980    4.5188   25.0723 C   0  0  0  0  0  0  0  0  0  0  0  0
    8.2549    4.1166   23.7475 C   0  0  0  0  0  0  0  0  0  0  0  0
    9.0722    2.8434   24.0619 C   0  0  2  0  0  0  0  0  0  0  0  0
    8.9593    1.7891   22.9661 C   0  0  0  0  0  0  0  0  0  0  0  0
    7.8845    1.0987   22.6250 N   0  0  0  0  0  0  0  0  0  0  0  0
    8.3400    0.2629   21.6542 C   0  0  0  0  0  0  0  0  0  0  0  0
    7.4431   -0.7005   20.9290 C   0  0  0  0  0  0  0  0  0  0  0  0
    6.6596   -0.0471   19.7933 C   0  0  0  0  0  0  0  0  0  0  0  0
    5.4617    0.6296   20.0643 C   0  0  0  0  0  0  0  0  0  0  0  0
    4.8162    1.3144   19.0307 C   0  0  0  0  0  0  0  0  0  0  0  0
    5.3967    1.3016   17.7587 C   0  0  0  0  0  0  0  0  0  0  0  0
    6.5327    0.6480   17.4703 N   0  0  0  0  0  0  0  0  0  0  0  0
    7.1361   -0.0057   18.4713 C   0  0  0  0  0  0  0  0  0  0  0  0
    8.0545   -0.5329   18.2091 H   0  0  0  0  0  0  0  0  0  0  0  0
    4.9362    1.8402   16.9315 H   0  0  0  0  0  0  0  0  0  0  0  0
    3.8917    1.8598   19.1946 H   0  0  0  0  0  0  0  0  0  0  0  0
    5.0542    0.6182   21.0780 H   0  0  0  0  0  0  0  0  0  0  0  0
    8.0628   -1.5280   20.5652 H   0  0  0  0  0  0  0  0  0  0  0  0
    6.7443   -1.1090   21.6679 H   0  0  0  0  0  0  0  0  0  0  0  0
    9.6257    0.3942   21.3683 N   0  0  0  0  0  0  0  0  0  0  0  0
   10.0039    1.4240   22.1724 N   0  0  0  0  0  0  0  0  0  0  0  0
   11.2996    1.9922   22.1827 C   0  0  0  0  0  0  0  0  0  0  0  0
   11.5105    3.3725   22.2451 C   0  0  0  0  0  0  0  0  0  0  0  0
   12.7962    3.9019   22.4864 C   0  0  0  0  0  0  0  0  0  0  0  0
   13.8913    3.0645   22.6812 C   0  0  0  0  0  0  0  0  0  0  0  0
   13.6954    1.6612   22.6256 C   0  0  0  0  0  0  0  0  0  0  0  0
   12.4217    1.1641   22.3016 C   0  0  0  0  0  0  0  0  0  0  0  0
   12.5752   -0.1978   22.2336 N   0  0  0  0  0  0  0  0  0  0  0  0
   13.8836   -0.4579   22.4961 C   0  0  0  0  0  0  0  0  0  0  0  0
   14.5908    0.6049   22.7398 N   0  0  0  0  0  0  0  0  0  0  0  0
   14.2596   -1.4756   22.5076 H   0  0  0  0  0  0  0  0  0  0  0  0
   11.8705   -0.8150   21.8639 H   0  0  0  0  0  0  0  0  0  0  0  0
   14.8826    3.4900   22.7354 H   0  0  0  0  0  0  0  0  0  0  0  0
   12.9269    4.9794   22.5386 H   0  0  0  0  0  0  0  0  0  0  0  0
   10.6763    4.0535   22.1304 H   0  0  0  0  0  0  0  0  0  0  0  0
   10.1287    3.0898   24.1927 H   0  0  0  0  0  0  0  0  0  0  0  0
    8.8894    4.9122   23.3347 H   0  0  0  0  0  0  0  0  0  0  0  0
    7.4982    3.8773   22.9914 H   0  0  0  0  0  0  0  0  0  0  0  0
    8.2382    5.2209   25.6171 H   0  0  0  0  0  0  0  0  0  0  0  0
    6.6266    4.9980   24.9268 H   0  0  0  0  0  0  0  0  0  0  0  0
    6.5021    2.7137   25.6601 H   0  0  0  0  0  0  0  0  0  0  0  0
    7.5285    3.3773   26.9386 H   0  0  0  0  0  0  0  0  0  0  0  0
    8.2496    1.3989   27.9607 H   0  0  0  0  0  0  0  0  0  0  0  0
    8.8283   -0.2029   27.4420 H   0  0  0  0  0  0  0  0  0  0  0  0
    7.2942    0.4556   26.8103 H   0  0  0  0  0  0  0  0  0  0  0  0
  1  2  1  0
  2  3  2  0
  2  4  1  0
  4  5  1  0
  5  6  1  0
  6  7  1  0
  7  8  1  0
  8  9  1  0
  9 10  2  0
 10 11  1  0
 11 12  1  0
 12 13  1  0
 13 14  2  0
 14 15  1  0
 15 16  2  0
 16 17  1  0
 17 18  2  0
 18 19  1  0
 16 20  1  0
 15 21  1  0
 14 22  1  0
 12 23  1  0
 12 24  1  0
 11 25  2  0
 25 26  1  0
 26 27  1  0
 27 28  2  0
 28 29  1  0
 29 30  2  0
 30 31  1  0
 31 32  2  0
 32 33  1  0
 33 34  1  0
 34 35  2  0
 34 36  1  0
 33 37  1  0
 30 38  1  0
 29 39  1  0
 28 40  1  0
  8 41  1  1
  7 42  1  0
  7 43  1  0
  6 44  1  0
  6 45  1  0
  5 46  1  0
  5 47  1  0
  1 48  1  0
  1 49  1  0
  1 50  1  0
  8  4  1  0
 26  9  1  0
 32 27  1  0
 18 13  1  0
 35 31  1  0
M  END
>  <cnnaffinity>  (1) 
-6.67217

>  <filename>  (1) 
CC(=O)N1CCC[C@@H]1c1nc(Cc2cccnc2)nn1-c1cccc2nc[nH]c12

$$$$
