
     RDKit          3D

 34 36  0  0  0  0  0  0  0  0999 V2000
    5.6762   -1.8013   21.4900 H   0  0  0  0  0  0  0  0  0  0  0  0
    6.7227   -1.5861   21.7274 C   0  0  0  0  0  0  0  0  0  0  0  0
    7.3925   -0.7021   20.9651 C   0  0  0  0  0  0  0  0  0  0  0  0
    6.6572    0.0160   19.8978 C   0  0  0  0  0  0  0  0  0  0  0  0
    7.1698    0.0789   18.5909 C   0  0  0  0  0  0  0  0  0  0  0  0
    8.1134   -0.4187   18.3757 H   0  0  0  0  0  0  0  0  0  0  0  0
    6.5620    0.6786   17.5624 N   0  0  0  0  0  0  0  0  0  0  0  0
    5.4003    1.2961   17.8335 C   0  0  0  0  0  0  0  0  0  0  0  0
    4.9131    1.7829   16.9931 H   0  0  0  0  0  0  0  0  0  0  0  0
    4.8036    1.3148   19.1032 C   0  0  0  0  0  0  0  0  0  0  0  0
    3.8688    1.8466   19.2568 H   0  0  0  0  0  0  0  0  0  0  0  0
    5.4291    0.6432   20.1526 C   0  0  0  0  0  0  0  0  0  0  0  0
    5.0132    0.6233   21.1650 H   0  0  0  0  0  0  0  0  0  0  0  0
    8.8688   -0.4580   21.1192 C   0  0  0  0  0  0  0  0  0  0  0  0
    9.4199   -1.3818   20.9106 H   0  0  0  0  0  0  0  0  0  0  0  0
    9.2235    0.3363   20.4586 H   0  0  0  0  0  0  0  0  0  0  0  0
    9.1102   -0.1857   22.1527 H   0  0  0  0  0  0  0  0  0  0  0  0
    7.3128   -2.3698   22.8194 C   0  0  0  0  0  0  0  0  0  0  0  0
    7.7179   -1.7352   23.9826 C   0  0  0  0  0  0  0  0  0  0  0  0
    7.5644   -0.6622   24.0673 H   0  0  0  0  0  0  0  0  0  0  0  0
    8.3052   -2.4639   25.0487 C   0  0  0  0  0  0  0  0  0  0  0  0
    8.6012   -1.9337   25.9497 H   0  0  0  0  0  0  0  0  0  0  0  0
    8.4956   -3.8217   24.9339 C   0  0  0  0  0  0  0  0  0  0  0  0
    8.9416   -4.3930   25.7469 H   0  0  0  0  0  0  0  0  0  0  0  0
    8.1026   -4.5182   23.7489 C   0  0  0  0  0  0  0  0  0  0  0  0
    8.2873   -5.9269   23.6179 C   0  0  0  0  0  0  0  0  0  0  0  0
    8.7342   -6.4615   24.4559 H   0  0  0  0  0  0  0  0  0  0  0  0
    7.9063   -6.5863   22.4734 C   0  0  0  0  0  0  0  0  0  0  0  0
    8.0472   -7.6623   22.3921 H   0  0  0  0  0  0  0  0  0  0  0  0
    7.3282   -5.8709   21.3877 C   0  0  0  0  0  0  0  0  0  0  0  0
    7.0349   -6.3993   20.4859 H   0  0  0  0  0  0  0  0  0  0  0  0
    7.1345   -4.5074   21.4797 C   0  0  0  0  0  0  0  0  0  0  0  0
    6.7052   -3.9389   20.6545 H   0  0  0  0  0  0  0  0  0  0  0  0
    7.4989   -3.7922   22.6665 C   0  0  0  0  0  0  0  0  0  0  0  0
  1  2  1  0
  2  3  2  3
  3  4  1  0
  4  5  2  0
  5  6  1  0
  5  7  1  0
  7  8  2  0
  8  9  1  0
  8 10  1  0
 10 11  1  0
 10 12  2  0
 12 13  1  0
  3 14  1  0
 14 15  1  0
 14 16  1  0
 14 17  1  0
  2 18  1  0
 18 19  2  0
 19 20  1  0
 19 21  1  0
 21 22  1  0
 21 23  2  0
 23 24  1  0
 23 25  1  0
 25 26  2  0
 26 27  1  0
 26 28  1  0
 28 29  1  0
 28 30  2  0
 30 31  1  0
 30 32  1  0
 32 33  1  0
 32 34  2  0
 12  4  1  0
 34 18  1  0
 34 25  1  0
M  END
>  <cnnaffinity>  (1) 
-5.12489

>  <filename>  (1) 
CC(=Cc1cccc2ccccc12)c1cccnc1

$$$$
