
     RDKit          3D

 35 36  0  0  0  0  0  0  0  0999 V2000
    8.7675   -0.1815   21.3583 C   0  0  0  0  0  0  0  0  0  0  0  0
    7.3895   -0.7243   21.0185 C   0  0  0  0  0  0  0  0  0  0  0  0
    6.8843   -1.7999   21.6380 C   0  0  0  0  0  0  0  0  0  0  0  0
    5.8338   -2.7144   21.0896 C   0  0  0  0  0  0  0  0  0  0  0  0
    5.5645   -2.8589   19.9182 O   0  0  0  0  0  0  0  0  0  0  0  0
    5.2409   -3.4165   22.1560 N   0  0  0  0  0  0  0  0  0  0  0  0
    4.0359   -4.1134   22.0752 N   0  0  0  0  0  0  0  0  0  0  0  0
    3.5935   -5.0790   22.9599 C   0  0  0  0  0  0  0  0  0  0  0  0
    4.3734   -5.8320   23.8556 C   0  0  0  0  0  0  0  0  0  0  0  0
    3.7175   -6.7570   24.6355 C   0  0  0  0  0  0  0  0  0  0  0  0
    2.3194   -6.8902   24.4672 C   0  0  0  0  0  0  0  0  0  0  0  0
    1.5681   -7.9227   25.2757 C   0  0  0  0  0  0  0  0  0  0  0  0
    2.0247   -9.1627   24.9936 F   0  0  0  0  0  0  0  0  0  0  0  0
    1.7796   -7.7334   26.5956 F   0  0  0  0  0  0  0  0  0  0  0  0
    0.2547   -7.9142   25.0653 F   0  0  0  0  0  0  0  0  0  0  0  0
    1.6398   -6.1479   23.5916 N   0  0  0  0  0  0  0  0  0  0  0  0
    2.2606   -5.2590   22.8476 N   0  0  0  0  0  0  0  0  0  0  0  0
    4.2445   -7.3639   25.3664 H   0  0  0  0  0  0  0  0  0  0  0  0
    5.4427   -5.6648   23.9062 H   0  0  0  0  0  0  0  0  0  0  0  0
    3.2010   -3.6737   21.6896 H   0  0  0  0  0  0  0  0  0  0  0  0
    5.4380   -2.9346   23.0275 H   0  0  0  0  0  0  0  0  0  0  0  0
    7.2978   -2.0875   22.6031 H   0  0  0  0  0  0  0  0  0  0  0  0
    6.6303   -0.0407   19.9325 C   0  0  0  0  0  0  0  0  0  0  0  0
    5.4127    0.6174   20.1608 C   0  0  0  0  0  0  0  0  0  0  0  0
    4.8118    1.2945   19.0961 C   0  0  0  0  0  0  0  0  0  0  0  0
    5.4349    1.2769   17.8425 C   0  0  0  0  0  0  0  0  0  0  0  0
    6.5927    0.6410   17.6015 N   0  0  0  0  0  0  0  0  0  0  0  0
    7.1626    0.0104   18.6384 C   0  0  0  0  0  0  0  0  0  0  0  0
    8.1091   -0.4915   18.4331 H   0  0  0  0  0  0  0  0  0  0  0  0
    4.9832    1.7972   16.9966 H   0  0  0  0  0  0  0  0  0  0  0  0
    3.8864    1.8448   19.2245 H   0  0  0  0  0  0  0  0  0  0  0  0
    4.9766    0.6210   21.1613 H   0  0  0  0  0  0  0  0  0  0  0  0
    8.8855   -0.0359   22.4403 H   0  0  0  0  0  0  0  0  0  0  0  0
    8.9323    0.7880   20.8718 H   0  0  0  0  0  0  0  0  0  0  0  0
    9.5756   -0.8564   21.0312 H   0  0  0  0  0  0  0  0  0  0  0  0
  1  2  1  0
  2  3  2  3
  3  4  1  0
  4  5  2  0
  4  6  1  0
  6  7  1  0
  7  8  1  0
  8  9  2  0
  9 10  1  0
 10 11  2  0
 11 12  1  0
 12 13  1  0
 12 14  1  0
 12 15  1  0
 11 16  1  0
 16 17  2  0
 10 18  1  0
  9 19  1  0
  7 20  1  0
  6 21  1  0
  3 22  1  0
  2 23  1  0
 23 24  2  0
 24 25  1  0
 25 26  2  0
 26 27  1  0
 27 28  2  0
 28 29  1  0
 26 30  1  0
 25 31  1  0
 24 32  1  0
  1 33  1  0
  1 34  1  0
  1 35  1  0
 17  8  1  0
 28 23  1  0
M  END
>  <cnnaffinity>  (1) 
-5.19628

>  <filename>  (1) 
CC(=CC(=O)NNc1ccc(C(F)(F)F)nn1)c1cccnc1

$$$$
