
     RDKit          3D

 37 38  0  0  0  0  0  0  0  0999 V2000
    5.0676    1.7317   17.0570 H   0  0  0  0  0  0  0  0  0  0  0  0
    5.4998    1.2400   17.9292 C   0  0  0  0  0  0  0  0  0  0  0  0
    6.6631    0.6008   17.7345 N   0  0  0  0  0  0  0  0  0  0  0  0
    7.2044   -0.0255   18.7821 C   0  0  0  0  0  0  0  0  0  0  0  0
    8.1419   -0.5522   18.6182 H   0  0  0  0  0  0  0  0  0  0  0  0
    6.6345   -0.0509   20.0580 C   0  0  0  0  0  0  0  0  0  0  0  0
    7.3521   -0.8789   21.0429 C   0  0  0  0  0  0  0  0  0  0  0  0
    8.1596   -1.7320   20.7543 O   0  0  0  0  0  0  0  0  0  0  0  0
    6.9917   -0.6005   22.3339 N   0  0  0  0  0  0  0  0  0  0  0  0
    6.8550    0.3546   22.6050 H   0  0  0  0  0  0  0  0  0  0  0  0
    7.8899   -1.2830   23.5106 S   0  0  0  0  0  0  0  0  0  0  0  0
    7.4399   -0.5196   24.6595 O   0  0  0  0  0  0  0  0  0  0  0  0
    9.2911   -1.3740   23.2052 O   0  0  0  0  0  0  0  0  0  0  0  0
    7.2426   -2.8342   23.4497 N   0  0  0  0  0  0  0  0  0  0  0  0
    5.7729   -3.0044   23.3814 C   0  0  0  0  0  0  0  0  0  0  0  0
    5.5925   -4.0640   23.1455 H   0  0  0  0  0  0  0  0  0  0  0  0
    5.3536   -2.4572   22.5372 H   0  0  0  0  0  0  0  0  0  0  0  0
    5.0811   -2.6951   24.7161 C   0  0  0  0  0  0  0  0  0  0  0  0
    4.0039   -2.8474   24.6342 H   0  0  0  0  0  0  0  0  0  0  0  0
    5.2658   -1.6452   24.9844 H   0  0  0  0  0  0  0  0  0  0  0  0
    5.6118   -3.5820   25.7789 N   0  0  0  0  0  0  0  0  0  0  0  0
    4.7603   -3.9484   26.8085 C   0  0  0  0  0  0  0  0  0  0  0  0
    3.5513   -3.8256   26.7143 O   0  0  0  0  0  0  0  0  0  0  0  0
    5.3896   -4.5250   28.0563 C   0  0  0  0  0  0  0  0  0  0  0  0
    6.2035   -3.8960   28.4125 H   0  0  0  0  0  0  0  0  0  0  0  0
    5.7907   -5.5256   27.8683 H   0  0  0  0  0  0  0  0  0  0  0  0
    4.6138   -4.5816   28.8175 H   0  0  0  0  0  0  0  0  0  0  0  0
    7.0921   -3.5955   25.8734 C   0  0  0  0  0  0  0  0  0  0  0  0
    7.4259   -4.4356   26.4899 H   0  0  0  0  0  0  0  0  0  0  0  0
    7.4637   -2.6626   26.3209 H   0  0  0  0  0  0  0  0  0  0  0  0
    7.7587   -3.7646   24.4817 C   0  0  0  0  0  0  0  0  0  0  0  0
    8.8526   -3.7028   24.5391 H   0  0  0  0  0  0  0  0  0  0  0  0
    7.5211   -4.7739   24.1117 H   0  0  0  0  0  0  0  0  0  0  0  0
    5.4288    0.6445   20.2622 C   0  0  0  0  0  0  0  0  0  0  0  0
    4.9467    0.6815   21.2421 H   0  0  0  0  0  0  0  0  0  0  0  0
    4.8502    1.2862   19.1692 C   0  0  0  0  0  0  0  0  0  0  0  0
    3.9182    1.8317   19.2652 H   0  0  0  0  0  0  0  0  0  0  0  0
  1  2  1  0
  2  3  2  0
  3  4  1  0
  4  5  1  0
  4  6  2  0
  6  7  1  0
  7  8  2  0
  7  9  1  0
  9 10  1  0
  9 11  1  0
 11 12  2  0
 11 13  2  0
 11 14  1  0
 14 15  1  0
 15 16  1  0
 15 17  1  0
 15 18  1  0
 18 19  1  0
 18 20  1  0
 18 21  1  0
 21 22  1  0
 22 23  2  0
 22 24  1  0
 24 25  1  0
 24 26  1  0
 24 27  1  0
 21 28  1  0
 28 29  1  0
 28 30  1  0
 28 31  1  0
 31 32  1  0
 31 33  1  0
  6 34  1  0
 34 35  1  0
 34 36  2  0
 36 37  1  0
 36  2  1  0
 31 14  1  0
M  END
>  <cnnaffinity>  (1) 
-4.83952

>  <filename>  (1) 
CC(=O)N1CCN(S(=O)(=O)NC(=O)c2cccnc2)CC1

$$$$
