
     RDKit          3D

 35 36  0  0  0  0  0  0  0  0999 V2000
    8.5073    2.0652   21.2465 C   0  0  0  0  0  0  0  0  0  0  0  0
    7.7459    1.4449   22.3971 C   0  0  0  0  0  0  0  0  0  0  0  0
    7.4503    2.1076   23.5310 C   0  0  0  0  0  0  0  0  0  0  0  0
    7.4766    3.5775   23.7094 C   0  0  0  0  0  0  0  0  0  0  0  0
    6.9630    4.4678   22.7405 C   0  0  0  0  0  0  0  0  0  0  0  0
    7.0325    5.8524   22.9066 C   0  0  0  0  0  0  0  0  0  0  0  0
    7.6369    6.3892   24.0494 C   0  0  0  0  0  0  0  0  0  0  0  0
    8.1493    5.5366   25.0354 C   0  0  0  0  0  0  0  0  0  0  0  0
    8.0400    4.1529   24.8717 C   0  0  0  0  0  0  0  0  0  0  0  0
    8.6488    3.1408   26.1580 Cl  0  0  0  0  0  0  0  0  0  0  0  0
    8.6239    5.9331   25.9314 H   0  0  0  0  0  0  0  0  0  0  0  0
    7.7090    7.4667   24.1766 H   0  0  0  0  0  0  0  0  0  0  0  0
    6.6149    6.5087   22.1451 H   0  0  0  0  0  0  0  0  0  0  0  0
    6.5053    4.0496   21.8459 H   0  0  0  0  0  0  0  0  0  0  0  0
    7.2288    1.5508   24.4465 H   0  0  0  0  0  0  0  0  0  0  0  0
    7.4809   -0.0523   22.3316 C   0  0  0  0  0  0  0  0  0  0  0  0
    7.5107   -0.7525   23.3322 O   0  0  0  0  0  0  0  0  0  0  0  0
    7.2461   -0.6123   21.0716 N   0  0  0  0  0  0  0  0  0  0  0  0
    7.3365   -2.0768   20.9744 C   0  0  0  0  0  0  0  0  0  0  0  0
    8.3672   -2.4209   21.1151 H   0  0  0  0  0  0  0  0  0  0  0  0
    6.9803   -2.3951   19.9915 H   0  0  0  0  0  0  0  0  0  0  0  0
    6.7434   -2.5444   21.7661 H   0  0  0  0  0  0  0  0  0  0  0  0
    6.6213    0.0994   19.9907 C   0  0  0  0  0  0  0  0  0  0  0  0
    5.4151    0.7875   20.1794 C   0  0  0  0  0  0  0  0  0  0  0  0
    4.8064    1.3767   19.0677 C   0  0  0  0  0  0  0  0  0  0  0  0
    5.4411    1.3094   17.8232 C   0  0  0  0  0  0  0  0  0  0  0  0
    6.6222    0.6971   17.6335 N   0  0  0  0  0  0  0  0  0  0  0  0
    7.1825    0.1015   18.6959 C   0  0  0  0  0  0  0  0  0  0  0  0
    8.1353   -0.4040   18.5366 H   0  0  0  0  0  0  0  0  0  0  0  0
    4.9870    1.7714   16.9499 H   0  0  0  0  0  0  0  0  0  0  0  0
    3.8558    1.8880   19.1605 H   0  0  0  0  0  0  0  0  0  0  0  0
    4.9908    0.8577   21.1822 H   0  0  0  0  0  0  0  0  0  0  0  0
    9.0063    2.9944   21.5414 H   0  0  0  0  0  0  0  0  0  0  0  0
    9.2637    1.3640   20.8854 H   0  0  0  0  0  0  0  0  0  0  0  0
    7.8538    2.2925   20.4033 H   0  0  0  0  0  0  0  0  0  0  0  0
  1  2  1  0
  2  3  2  3
  3  4  1  0
  4  5  2  0
  5  6  1  0
  6  7  2  0
  7  8  1  0
  8  9  2  0
  9 10  1  0
  8 11  1  0
  7 12  1  0
  6 13  1  0
  5 14  1  0
  3 15  1  0
  2 16  1  0
 16 17  2  0
 16 18  1  0
 18 19  1  0
 19 20  1  0
 19 21  1  0
 19 22  1  0
 18 23  1  0
 23 24  2  0
 24 25  1  0
 25 26  2  0
 26 27  1  0
 27 28  2  0
 28 29  1  0
 26 30  1  0
 25 31  1  0
 24 32  1  0
  1 33  1  0
  1 34  1  0
  1 35  1  0
  9  4  1  0
 28 23  1  0
M  END
>  <cnnaffinity>  (1) 
-5.06377

>  <filename>  (1) 
CC(=Cc1ccccc1Cl)C(=O)N(C)c1cccnc1

$$$$
