
     RDKit          3D

 37 39  0  0  0  0  0  0  0  0999 V2000
   12.3233    0.7884   23.3673 C   0  0  0  0  0  0  0  0  0  0  0  0
   10.8063    0.9576   23.3088 C   0  0  0  0  0  0  0  0  0  0  0  0
   10.2188    2.1208   22.9796 C   0  0  0  0  0  0  0  0  0  0  0  0
    8.7651    2.4179   23.0075 C   0  0  0  0  0  0  0  0  0  0  0  0
    7.9209    1.9487   24.0258 C   0  0  0  0  0  0  0  0  0  0  0  0
    6.5510    2.2298   23.9972 C   0  0  0  0  0  0  0  0  0  0  0  0
    6.0123    2.9918   22.9570 C   0  0  0  0  0  0  0  0  0  0  0  0
    6.8455    3.4680   21.9375 C   0  0  0  0  0  0  0  0  0  0  0  0
    8.2094    3.1809   21.9682 C   0  0  0  0  0  0  0  0  0  0  0  0
    8.8495    3.4944   21.1520 H   0  0  0  0  0  0  0  0  0  0  0  0
    6.4226    4.0609   21.1281 H   0  0  0  0  0  0  0  0  0  0  0  0
    4.9441    3.1977   22.9175 H   0  0  0  0  0  0  0  0  0  0  0  0
    5.9007    1.8426   24.7761 H   0  0  0  0  0  0  0  0  0  0  0  0
    8.3441    1.3500   24.8263 H   0  0  0  0  0  0  0  0  0  0  0  0
   10.8484    2.9314   22.5992 H   0  0  0  0  0  0  0  0  0  0  0  0
   10.0113   -0.2466   23.5357 C   0  0  0  0  0  0  0  0  0  0  0  0
    8.9604   -0.6524   22.7537 C   0  0  0  0  0  0  0  0  0  0  0  0
    7.7981   -1.8976   23.1977 S   0  0  0  0  0  0  0  0  0  0  0  0
    6.8401   -1.6819   21.7378 C   0  0  0  0  0  0  0  0  0  0  0  0
    5.5620   -2.6299   21.3598 S   0  0  0  0  0  0  0  0  0  0  0  0
    7.3810   -0.6691   20.9705 N   0  0  0  0  0  0  0  0  0  0  0  0
    6.6551   -0.0193   19.8871 C   0  0  0  0  0  0  0  0  0  0  0  0
    5.4379    0.6174   20.1505 C   0  0  0  0  0  0  0  0  0  0  0  0
    4.8014    1.3044   19.1047 C   0  0  0  0  0  0  0  0  0  0  0  0
    5.3975    1.2951   17.8365 C   0  0  0  0  0  0  0  0  0  0  0  0
    6.5520    0.6645   17.5665 N   0  0  0  0  0  0  0  0  0  0  0  0
    7.1688    0.0391   18.5776 C   0  0  0  0  0  0  0  0  0  0  0  0
    8.1261   -0.4294   18.3737 H   0  0  0  0  0  0  0  0  0  0  0  0
    4.9325    1.8112   16.9987 H   0  0  0  0  0  0  0  0  0  0  0  0
    3.8687    1.8480   19.2502 H   0  0  0  0  0  0  0  0  0  0  0  0
    5.0141    0.5800   21.1567 H   0  0  0  0  0  0  0  0  0  0  0  0
    8.6769   -0.2170   21.3725 C   0  0  0  0  0  0  0  0  0  0  0  0
    9.4001    0.3997   20.6268 O   0  0  0  0  0  0  0  0  0  0  0  0
   10.3346   -0.8982   24.3458 H   0  0  0  0  0  0  0  0  0  0  0  0
   12.5872   -0.2685   23.2761 H   0  0  0  0  0  0  0  0  0  0  0  0
   12.8116    1.3113   22.5370 H   0  0  0  0  0  0  0  0  0  0  0  0
   12.7761    1.1604   24.2935 H   0  0  0  0  0  0  0  0  0  0  0  0
  1  2  1  0
  2  3  2  3
  3  4  1  0
  4  5  2  0
  5  6  1  0
  6  7  2  0
  7  8  1  0
  8  9  2  0
  9 10  1  0
  8 11  1  0
  7 12  1  0
  6 13  1  0
  5 14  1  0
  3 15  1  0
  2 16  1  0
 16 17  2  3
 17 18  1  0
 18 19  1  0
 19 20  2  0
 19 21  1  0
 21 22  1  0
 22 23  2  0
 23 24  1  0
 24 25  2  0
 25 26  1  0
 26 27  2  0
 27 28  1  0
 25 29  1  0
 24 30  1  0
 23 31  1  0
 21 32  1  0
 32 33  2  0
 16 34  1  0
  1 35  1  0
  1 36  1  0
  1 37  1  0
  9  4  1  0
 32 17  1  0
 27 22  1  0
M  END
>  <cnnaffinity>  (1) 
-6.09505

>  <filename>  (1) 
CC(=Cc1ccccc1)C=C1SC(=S)N(c2cccnc2)C1=O

$$$$
