
     RDKit          3D

 30 31  0  0  0  0  0  0  0  0999 V2000
    8.7400    0.4116   20.4882 H   0  0  0  0  0  0  0  0  0  0  0  0
    8.2434   -0.3435   21.0927 C   0  0  0  0  0  0  0  0  0  0  0  0
    6.9492   -0.6015   20.8285 C   0  0  0  0  0  0  0  0  0  0  0  0
    6.2824    0.1079   19.6974 C   0  0  0  0  0  0  0  0  0  0  0  0
    6.8916    0.1300   18.4274 C   0  0  0  0  0  0  0  0  0  0  0  0
    7.7949   -0.4558   18.2630 H   0  0  0  0  0  0  0  0  0  0  0  0
    6.4203    0.8059   17.3740 N   0  0  0  0  0  0  0  0  0  0  0  0
    5.2845    1.4982   17.5537 C   0  0  0  0  0  0  0  0  0  0  0  0
    4.9324    2.0637   16.6936 H   0  0  0  0  0  0  0  0  0  0  0  0
    4.5585    1.4974   18.7526 C   0  0  0  0  0  0  0  0  0  0  0  0
    3.6402    2.0695   18.8210 H   0  0  0  0  0  0  0  0  0  0  0  0
    5.0502    0.7651   19.8357 C   0  0  0  0  0  0  0  0  0  0  0  0
    4.5085    0.7104   20.7834 H   0  0  0  0  0  0  0  0  0  0  0  0
    6.1897   -1.6408   21.5878 C   0  0  0  0  0  0  0  0  0  0  0  0
    5.1966   -1.7979   21.1724 H   0  0  0  0  0  0  0  0  0  0  0  0
    6.7487   -2.5837   21.5821 H   0  0  0  0  0  0  0  0  0  0  0  0
    6.1509   -1.3650   22.6457 H   0  0  0  0  0  0  0  0  0  0  0  0
    9.1074   -1.0179   22.0916 C   0  0  0  0  0  0  0  0  0  0  0  0
    8.5463   -1.5970   23.1671 N   0  0  0  0  0  0  0  0  0  0  0  0
    9.2979   -2.3284   24.0040 C   0  0  0  0  0  0  0  0  0  0  0  0
    8.6564   -2.8254   25.3271 C   0  0  0  0  0  0  0  0  0  0  0  0
    8.9805   -2.0265   26.3654 F   0  0  0  0  0  0  0  0  0  0  0  0
    9.1086   -4.0577   25.6398 F   0  0  0  0  0  0  0  0  0  0  0  0
    7.3219   -2.9053   25.2837 F   0  0  0  0  0  0  0  0  0  0  0  0
   10.6357   -2.6225   23.7347 C   0  0  0  0  0  0  0  0  0  0  0  0
   11.1835   -3.3225   24.3578 H   0  0  0  0  0  0  0  0  0  0  0  0
   11.2504   -1.9845   22.6468 C   0  0  0  0  0  0  0  0  0  0  0  0
   12.3057   -2.1658   22.4433 H   0  0  0  0  0  0  0  0  0  0  0  0
   10.4980   -1.1176   21.8558 C   0  0  0  0  0  0  0  0  0  0  0  0
   10.9431   -0.5551   21.0417 H   0  0  0  0  0  0  0  0  0  0  0  0
  1  2  1  0
  2  3  2  3
  3  4  1  0
  4  5  2  0
  5  6  1  0
  5  7  1  0
  7  8  2  0
  8  9  1  0
  8 10  1  0
 10 11  1  0
 10 12  2  0
 12 13  1  0
  3 14  1  0
 14 15  1  0
 14 16  1  0
 14 17  1  0
  2 18  1  0
 18 19  2  0
 19 20  1  0
 20 21  1  0
 21 22  1  0
 21 23  1  0
 21 24  1  0
 20 25  2  0
 25 26  1  0
 25 27  1  0
 27 28  1  0
 27 29  2  0
 29 30  1  0
 12  4  1  0
 29 18  1  0
M  END
>  <cnnaffinity>  (1) 
-5.4011

>  <filename>  (1) 
CC(=Cc1cccc(C(F)(F)F)n1)c1cccnc1

$$$$
