
     RDKit          3D

 29 30  0  0  0  0  0  0  0  0999 V2000
    5.0329    1.6838   17.0215 H   0  0  0  0  0  0  0  0  0  0  0  0
    5.4839    1.2813   17.9266 C   0  0  0  0  0  0  0  0  0  0  0  0
    6.6803    0.6899   17.7863 N   0  0  0  0  0  0  0  0  0  0  0  0
    7.2144    0.1446   18.8784 C   0  0  0  0  0  0  0  0  0  0  0  0
    8.1620   -0.3764   18.7473 H   0  0  0  0  0  0  0  0  0  0  0  0
    6.6243    0.1709   20.1472 C   0  0  0  0  0  0  0  0  0  0  0  0
    7.2962   -0.5304   21.2460 C   0  0  0  0  0  0  0  0  0  0  0  0
    7.1534    0.0071   22.4154 N   0  0  0  0  0  0  0  0  0  0  0  0
    7.8916   -0.4381   23.4750 C   0  0  0  0  0  0  0  0  0  0  0  0
    8.9615   -1.2340   23.2995 N   0  0  0  0  0  0  0  0  0  0  0  0
    9.5992   -1.7091   24.3686 C   0  0  0  0  0  0  0  0  0  0  0  0
   10.4512   -2.3641   24.1665 H   0  0  0  0  0  0  0  0  0  0  0  0
    9.1997   -1.4203   25.6720 C   0  0  0  0  0  0  0  0  0  0  0  0
    9.7115   -1.8604   26.5117 H   0  0  0  0  0  0  0  0  0  0  0  0
    8.1392   -0.5458   25.8837 C   0  0  0  0  0  0  0  0  0  0  0  0
    7.8478   -0.2898   26.9065 H   0  0  0  0  0  0  0  0  0  0  0  0
    7.5009   -0.0155   24.7669 C   0  0  0  0  0  0  0  0  0  0  0  0
    6.4515    1.0437   24.8009 C   0  0  0  0  0  0  0  0  0  0  0  0
    5.2764    0.6442   24.2835 F   0  0  0  0  0  0  0  0  0  0  0  0
    6.2002    1.4453   26.0668 F   0  0  0  0  0  0  0  0  0  0  0  0
    6.8229    2.1354   24.1091 F   0  0  0  0  0  0  0  0  0  0  0  0
    7.9583   -1.8215   20.8716 C   0  0  0  0  0  0  0  0  0  0  0  0
    8.9989   -1.6378   20.5816 H   0  0  0  0  0  0  0  0  0  0  0  0
    7.9654   -2.5315   21.6941 H   0  0  0  0  0  0  0  0  0  0  0  0
    7.4010   -2.2500   20.0412 H   0  0  0  0  0  0  0  0  0  0  0  0
    5.3943    0.8243   20.2915 C   0  0  0  0  0  0  0  0  0  0  0  0
    4.9370    0.8965   21.2828 H   0  0  0  0  0  0  0  0  0  0  0  0
    4.8064    1.3581   19.1507 C   0  0  0  0  0  0  0  0  0  0  0  0
    3.8356    1.8334   19.1973 H   0  0  0  0  0  0  0  0  0  0  0  0
  1  2  1  0
  2  3  2  0
  3  4  1  0
  4  5  1  0
  4  6  2  0
  6  7  1  0
  7  8  2  3
  8  9  1  0
  9 10  2  0
 10 11  1  0
 11 12  1  0
 11 13  2  0
 13 14  1  0
 13 15  1  0
 15 16  1  0
 15 17  2  0
 17 18  1  0
 18 19  1  0
 18 20  1  0
 18 21  1  0
  7 22  1  0
 22 23  1  0
 22 24  1  0
 22 25  1  0
  6 26  1  0
 26 27  1  0
 26 28  2  0
 28 29  1  0
 28  2  1  0
 17  9  1  0
M  END
>  <cnnaffinity>  (1) 
-4.75062

>  <filename>  (1) 
CC(=Nc1ncccc1C(F)(F)F)c1cccnc1

$$$$
