
     RDKit          3D

 32 33  0  0  0  0  0  0  0  0999 V2000
    4.9298    1.7884   17.0004 H   0  0  0  0  0  0  0  0  0  0  0  0
    5.4000    1.2916   17.8474 C   0  0  0  0  0  0  0  0  0  0  0  0
    6.5558    0.6629   17.5871 N   0  0  0  0  0  0  0  0  0  0  0  0
    7.1637    0.0355   18.5988 C   0  0  0  0  0  0  0  0  0  0  0  0
    8.1237   -0.4251   18.3794 H   0  0  0  0  0  0  0  0  0  0  0  0
    6.6364   -0.0279   19.8999 C   0  0  0  0  0  0  0  0  0  0  0  0
    7.3319   -0.7283   20.9449 N   0  0  0  0  0  0  0  0  0  0  0  0
    6.5785   -1.6023   21.6737 N   0  0  0  0  0  0  0  0  0  0  0  0
    7.1580   -2.2888   22.6380 C   0  0  0  0  0  0  0  0  0  0  0  0
    6.3206   -3.2935   23.4059 C   0  0  0  0  0  0  0  0  0  0  0  0
    6.9350   -3.9551   24.3305 N   0  0  0  0  0  0  0  0  0  0  0  0
    6.3171   -4.8927   25.1122 N   0  0  0  0  0  0  0  0  0  0  0  0
    5.3442   -5.1760   25.0722 H   0  0  0  0  0  0  0  0  0  0  0  0
    6.9292   -5.6074   26.1175 C   0  0  0  0  0  0  0  0  0  0  0  0
    6.0233   -6.6975   26.9832 S   0  0  0  0  0  0  0  0  0  0  0  0
    8.2190   -5.3938   26.3523 N   0  0  0  0  0  0  0  0  0  0  0  0
    8.7028   -4.7076   25.7973 H   0  0  0  0  0  0  0  0  0  0  0  0
    8.6164   -5.9502   27.0914 H   0  0  0  0  0  0  0  0  0  0  0  0
    4.8572   -3.4909   23.0667 C   0  0  0  0  0  0  0  0  0  0  0  0
    4.6544   -4.5271   22.7697 H   0  0  0  0  0  0  0  0  0  0  0  0
    4.2250   -3.2576   23.9352 H   0  0  0  0  0  0  0  0  0  0  0  0
    4.5810   -2.8417   22.2353 H   0  0  0  0  0  0  0  0  0  0  0  0
    8.5512   -2.1008   22.9711 C   0  0  0  0  0  0  0  0  0  0  0  0
    8.9712   -2.6900   23.7764 H   0  0  0  0  0  0  0  0  0  0  0  0
    9.2871   -1.1963   22.2824 C   0  0  0  0  0  0  0  0  0  0  0  0
   10.3307   -0.9931   22.4765 H   0  0  0  0  0  0  0  0  0  0  0  0
    8.7112   -0.4128   21.2042 C   0  0  0  0  0  0  0  0  0  0  0  0
    9.3206    0.4251   20.5615 O   0  0  0  0  0  0  0  0  0  0  0  0
    5.4312    0.6267   20.1665 C   0  0  0  0  0  0  0  0  0  0  0  0
    5.0201    0.5923   21.1741 H   0  0  0  0  0  0  0  0  0  0  0  0
    4.8090    1.3101   19.1156 C   0  0  0  0  0  0  0  0  0  0  0  0
    3.8795    1.8479   19.2600 H   0  0  0  0  0  0  0  0  0  0  0  0
  1  2  1  0
  2  3  2  0
  3  4  1  0
  4  5  1  0
  4  6  2  0
  6  7  1  0
  7  8  1  0
  8  9  2  0
  9 10  1  0
 10 11  2  3
 11 12  1  0
 12 13  1  0
 12 14  1  0
 14 15  2  0
 14 16  1  0
 16 17  1  0
 16 18  1  0
 10 19  1  0
 19 20  1  0
 19 21  1  0
 19 22  1  0
  9 23  1  0
 23 24  1  0
 23 25  2  0
 25 26  1  0
 25 27  1  0
 27 28  2  0
  6 29  1  0
 29 30  1  0
 29 31  2  0
 31 32  1  0
 31  2  1  0
 27  7  1  0
M  END
>  <cnnaffinity>  (1) 
-5.57057

>  <filename>  (1) 
CC(=NNC(N)=S)c1ccc(=O)n(-c2cccnc2)n1

$$$$
