
     RDKit          3D

 40 41  0  0  0  0  0  0  0  0999 V2000
    9.4312    1.9876   24.0877 C   0  0  0  0  0  0  0  0  0  0  0  0
    8.8814    0.5698   24.2185 C   0  0  0  0  0  0  0  0  0  0  0  0
    8.5944    0.0609   25.4239 C   0  0  0  0  0  0  0  0  0  0  0  0
    8.0370   -1.2884   25.7333 C   0  0  0  0  0  0  0  0  0  0  0  0
    8.7167   -2.1245   26.6387 C   0  0  0  0  0  0  0  0  0  0  0  0
    8.2472   -3.4123   26.9188 C   0  0  0  0  0  0  0  0  0  0  0  0
    7.0645   -3.8707   26.3247 C   0  0  0  0  0  0  0  0  0  0  0  0
    6.3566   -3.0367   25.4540 C   0  0  0  0  0  0  0  0  0  0  0  0
    6.8431   -1.7580   25.1650 C   0  0  0  0  0  0  0  0  0  0  0  0
    6.2880   -1.1026   24.4976 H   0  0  0  0  0  0  0  0  0  0  0  0
    5.4289   -3.3700   24.9957 H   0  0  0  0  0  0  0  0  0  0  0  0
    6.6924   -4.8689   26.5516 H   0  0  0  0  0  0  0  0  0  0  0  0
    8.8069   -4.0585   27.5933 H   0  0  0  0  0  0  0  0  0  0  0  0
    9.6319   -1.7573   27.0986 H   0  0  0  0  0  0  0  0  0  0  0  0
    8.8534    0.6532   26.3109 H   0  0  0  0  0  0  0  0  0  0  0  0
    8.8440   -0.2807   22.9717 C   0  0  0  0  0  0  0  0  0  0  0  0
    7.7318    0.1339   22.0849 N   0  0  0  0  0  4  0  0  0  0  0  0
    7.4078   -0.7703   20.9525 C   0  0  1  0  0  0  0  0  0  0  0  0
    6.6071   -1.9929   21.4103 C   0  0  0  0  0  0  0  0  0  0  0  0
    6.3698   -2.6060   20.5387 H   0  0  0  0  0  0  0  0  0  0  0  0
    5.6599   -1.6830   21.8616 H   0  0  0  0  0  0  0  0  0  0  0  0
    7.1477   -2.6058   22.1417 H   0  0  0  0  0  0  0  0  0  0  0  0
    6.6578    0.0471   19.9325 C   0  0  0  0  0  0  0  0  0  0  0  0
    5.4292    0.6942   20.1635 C   0  0  0  0  0  0  0  0  0  0  0  0
    4.7966    1.3358   19.0960 C   0  0  0  0  0  0  0  0  0  0  0  0
    5.3935    1.3065   17.8332 C   0  0  0  0  0  0  0  0  0  0  0  0
    6.5580    0.6907   17.5943 N   0  0  0  0  0  0  0  0  0  0  0  0
    7.1602    0.0896   18.6254 C   0  0  0  0  0  0  0  0  0  0  0  0
    8.1070   -0.4010   18.3931 H   0  0  0  0  0  0  0  0  0  0  0  0
    4.9374    1.8032   16.9760 H   0  0  0  0  0  0  0  0  0  0  0  0
    3.8553    1.8555   19.2230 H   0  0  0  0  0  0  0  0  0  0  0  0
    4.9536    0.6819   21.1467 H   0  0  0  0  0  0  0  0  0  0  0  0
    8.3507   -1.1148   20.5008 H   0  0  0  0  0  0  0  0  0  0  0  0
    7.8971    1.0945   21.6904 H   0  0  0  0  0  0  0  0  0  0  0  0
    6.8538    0.1988   22.6707 H   0  0  0  0  0  0  0  0  0  0  0  0
    8.7397   -1.3344   23.2583 H   0  0  0  0  0  0  0  0  0  0  0  0
    9.8069   -0.1884   22.4528 H   0  0  0  0  0  0  0  0  0  0  0  0
    8.6960    2.7334   24.4217 H   0  0  0  0  0  0  0  0  0  0  0  0
    9.7011    2.2284   23.0525 H   0  0  0  0  0  0  0  0  0  0  0  0
   10.3408    2.1201   24.6944 H   0  0  0  0  0  0  0  0  0  0  0  0
  1  2  1  0
  2  3  2  3
  3  4  1  0
  4  5  2  0
  5  6  1  0
  6  7  2  0
  7  8  1  0
  8  9  2  0
  9 10  1  0
  8 11  1  0
  7 12  1  0
  6 13  1  0
  5 14  1  0
  3 15  1  0
  2 16  1  0
 16 17  1  0
 17 18  1  0
 18 19  1  0
 19 20  1  0
 19 21  1  0
 19 22  1  0
 18 23  1  0
 23 24  2  0
 24 25  1  0
 25 26  2  0
 26 27  1  0
 27 28  2  0
 28 29  1  0
 26 30  1  0
 25 31  1  0
 24 32  1  0
 18 33  1  6
 17 34  1  0
 17 35  1  0
 16 36  1  0
 16 37  1  0
  1 38  1  0
  1 39  1  0
  1 40  1  0
  9  4  1  0
 28 23  1  0
M  CHG  1  17   1
M  END
>  <cnnaffinity>  (1) 
-5.11584

>  <filename>  (1) 
CC(=Cc1ccccc1)C[NH2+][C@@H](C)c1cccnc1

$$$$
