
     RDKit          3D

 37 39  0  0  0  0  0  0  0  0999 V2000
    4.9574    1.8125   17.0030 H   0  0  0  0  0  0  0  0  0  0  0  0
    5.4267    1.3190   17.8506 C   0  0  0  0  0  0  0  0  0  0  0  0
    6.6037    0.7190   17.6095 N   0  0  0  0  0  0  0  0  0  0  0  0
    7.1973    0.0784   18.6273 C   0  0  0  0  0  0  0  0  0  0  0  0
    8.1511   -0.4040   18.4122 H   0  0  0  0  0  0  0  0  0  0  0  0
    6.6442    0.0067   19.9276 C   0  0  0  0  0  0  0  0  0  0  0  0
    7.2657   -0.6930   21.0196 N   0  0  0  0  0  0  0  0  0  0  0  0
    7.6734   -0.1752   22.2715 C   0  0  0  0  0  0  0  0  0  0  0  0
    7.4386    1.1028   22.6860 N   0  0  0  0  0  0  0  0  0  0  0  0
    7.7581    2.2991   21.9078 C   0  0  0  0  0  0  0  0  0  0  0  0
    6.8378    2.7707   21.5300 H   0  0  0  0  0  0  0  0  0  0  0  0
    8.3660    2.0269   21.0422 H   0  0  0  0  0  0  0  0  0  0  0  0
    8.5110    3.3199   22.7862 C   0  0  0  0  0  0  0  0  0  0  0  0
    8.6488    4.2430   22.2060 H   0  0  0  0  0  0  0  0  0  0  0  0
    9.5093    2.9096   23.0097 H   0  0  0  0  0  0  0  0  0  0  0  0
    7.7808    3.6137   24.0407 N   0  0  0  0  0  0  0  0  0  0  0  0
    8.1381    4.6287   24.9007 C   0  0  0  0  0  0  0  0  0  0  0  0
    7.4566    4.9353   25.8674 O   0  0  0  0  0  0  0  0  0  0  0  0
    9.4369    5.3432   24.5926 C   0  0  0  0  0  0  0  0  0  0  0  0
   10.2570    4.6291   24.4769 H   0  0  0  0  0  0  0  0  0  0  0  0
    9.3479    5.9128   23.6627 H   0  0  0  0  0  0  0  0  0  0  0  0
    9.6585    6.0260   25.4104 H   0  0  0  0  0  0  0  0  0  0  0  0
    6.6178    2.7621   24.3592 C   0  0  0  0  0  0  0  0  0  0  0  0
    5.7377    3.0857   23.7799 H   0  0  0  0  0  0  0  0  0  0  0  0
    6.3773    2.8882   25.4191 H   0  0  0  0  0  0  0  0  0  0  0  0
    6.9352    1.2908   24.0586 C   0  0  0  0  0  0  0  0  0  0  0  0
    6.0245    0.6930   24.1952 H   0  0  0  0  0  0  0  0  0  0  0  0
    7.6669    0.9235   24.7957 H   0  0  0  0  0  0  0  0  0  0  0  0
    8.1528   -1.2097   22.9780 C   0  0  0  0  0  0  0  0  0  0  0  0
    8.6937   -1.2377   23.9095 H   0  0  0  0  0  0  0  0  0  0  0  0
    7.9217   -2.3876   22.2964 O   0  0  0  0  0  0  0  0  0  0  0  0
    7.2332   -2.0841   21.1555 C   0  0  0  0  0  0  0  0  0  0  0  0
    6.6955   -2.8927   20.4481 O   0  0  0  0  0  0  0  0  0  0  0  0
    5.4298    0.6501   20.1611 C   0  0  0  0  0  0  0  0  0  0  0  0
    5.0172    0.6449   21.1693 H   0  0  0  0  0  0  0  0  0  0  0  0
    4.8059    1.3113   19.1016 C   0  0  0  0  0  0  0  0  0  0  0  0
    3.8625    1.8216   19.2420 H   0  0  0  0  0  0  0  0  0  0  0  0
  1  2  1  0
  2  3  2  0
  3  4  1  0
  4  5  1  0
  4  6  2  0
  6  7  1  0
  7  8  1  0
  8  9  1  0
  9 10  1  0
 10 11  1  0
 10 12  1  0
 10 13  1  0
 13 14  1  0
 13 15  1  0
 13 16  1  0
 16 17  1  0
 17 18  2  0
 17 19  1  0
 19 20  1  0
 19 21  1  0
 19 22  1  0
 16 23  1  0
 23 24  1  0
 23 25  1  0
 23 26  1  0
 26 27  1  0
 26 28  1  0
  8 29  2  0
 29 30  1  0
 29 31  1  0
 31 32  1  0
 32 33  2  0
  6 34  1  0
 34 35  1  0
 34 36  2  0
 36 37  1  0
 36  2  1  0
 32  7  1  0
 26  9  1  0
M  END
>  <cnnaffinity>  (1) 
-4.92703

>  <filename>  (1) 
CC(=O)N1CCN(c2coc(=O)n2-c2cccnc2)CC1

$$$$
