
     RDKit          3D

 36 37  0  0  0  0  0  0  0  0999 V2000
    7.6175    0.0825   22.3241 C   0  0  0  0  0  0  0  0  0  0  0  0
    7.3624   -0.6036   21.0142 C   0  0  0  0  0  0  0  0  0  0  0  0
    7.6717   -1.9200   20.8433 C   0  0  0  0  0  0  0  0  0  0  0  0
    8.3790   -2.7474   21.7989 C   0  0  0  0  0  0  0  0  0  0  0  0
    8.4477   -3.9302   21.4860 O   0  0  0  0  0  0  0  0  0  0  0  0
    8.8807   -2.2058   22.9553 O   0  0  0  0  0  0  0  0  0  0  0  0
    9.4569   -3.1372   23.9200 C   0  0  0  0  0  0  0  0  0  0  0  0
    8.4455   -4.0972   24.5875 C   0  0  0  0  0  0  0  0  0  0  0  0
    8.6454   -5.3121   24.5300 O   0  0  0  0  0  0  0  0  0  0  0  0
    7.2644   -3.5760   25.3070 C   0  0  0  0  0  0  0  0  0  0  0  0
    7.1349   -2.1994   25.5770 C   0  0  0  0  0  0  0  0  0  0  0  0
    6.0000   -1.7078   26.2342 C   0  0  0  0  0  0  0  0  0  0  0  0
    4.9776   -2.5743   26.6267 C   0  0  0  0  0  0  0  0  0  0  0  0
    3.4259   -1.9022   27.5153 Br  0  0  0  0  0  0  0  0  0  0  0  0
    5.0985   -3.9402   26.3672 C   0  0  0  0  0  0  0  0  0  0  0  0
    6.2322   -4.4394   25.7201 C   0  0  0  0  0  0  0  0  0  0  0  0
    6.3011   -5.5069   25.5222 H   0  0  0  0  0  0  0  0  0  0  0  0
    4.2997   -4.6101   26.6670 H   0  0  0  0  0  0  0  0  0  0  0  0
    5.8989   -0.6461   26.4386 H   0  0  0  0  0  0  0  0  0  0  0  0
    7.9115   -1.5015   25.2723 H   0  0  0  0  0  0  0  0  0  0  0  0
    9.9208   -2.5508   24.7228 H   0  0  0  0  0  0  0  0  0  0  0  0
   10.2440   -3.7401   23.4473 H   0  0  0  0  0  0  0  0  0  0  0  0
    7.2830   -2.3909   19.9543 H   0  0  0  0  0  0  0  0  0  0  0  0
    6.6602    0.0600   19.9279 C   0  0  0  0  0  0  0  0  0  0  0  0
    5.4470    0.6947   20.1673 C   0  0  0  0  0  0  0  0  0  0  0  0
    4.8173    1.3105   19.0912 C   0  0  0  0  0  0  0  0  0  0  0  0
    5.4082    1.2804   17.8248 C   0  0  0  0  0  0  0  0  0  0  0  0
    6.5593    0.6297   17.5787 N   0  0  0  0  0  0  0  0  0  0  0  0
    7.1699    0.0313   18.6179 C   0  0  0  0  0  0  0  0  0  0  0  0
    8.1117   -0.4764   18.4314 H   0  0  0  0  0  0  0  0  0  0  0  0
    4.9156    1.8127   17.0193 H   0  0  0  0  0  0  0  0  0  0  0  0
    3.8821    1.8369   19.2291 H   0  0  0  0  0  0  0  0  0  0  0  0
    5.0100    0.6947   21.1651 H   0  0  0  0  0  0  0  0  0  0  0  0
    8.6856    0.0863   22.5540 H   0  0  0  0  0  0  0  0  0  0  0  0
    7.0937   -0.4474   23.1242 H   0  0  0  0  0  0  0  0  0  0  0  0
    7.2568    1.1135   22.2920 H   0  0  0  0  0  0  0  0  0  0  0  0
  1  2  1  0
  2  3  2  3
  3  4  1  0
  4  5  2  0
  4  6  1  0
  6  7  1  0
  7  8  1  0
  8  9  2  0
  8 10  1  0
 10 11  2  0
 11 12  1  0
 12 13  2  0
 13 14  1  0
 13 15  1  0
 15 16  2  0
 16 17  1  0
 15 18  1  0
 12 19  1  0
 11 20  1  0
  7 21  1  0
  7 22  1  0
  3 23  1  0
  2 24  1  0
 24 25  2  0
 25 26  1  0
 26 27  2  0
 27 28  1  0
 28 29  2  0
 29 30  1  0
 27 31  1  0
 26 32  1  0
 25 33  1  0
  1 34  1  0
  1 35  1  0
  1 36  1  0
 16 10  1  0
 29 24  1  0
M  END
>  <cnnaffinity>  (1) 
-5.04519

>  <filename>  (1) 
CC(=CC(=O)OCC(=O)c1ccc(Br)cc1)c1cccnc1

$$$$
