
     RDKit          3D

 40 41  0  0  0  0  0  0  0  0999 V2000
    9.6615   -2.8704   22.6282 C   0  0  0  0  0  0  0  0  0  0  0  0
    8.1990   -2.8132   22.9977 C   0  0  0  0  0  0  0  0  0  0  0  0
    7.7853   -2.6662   24.2739 C   0  0  0  0  0  0  0  0  0  0  0  0
    8.5737   -2.1222   25.4254 C   0  0  0  0  0  0  0  0  0  0  0  0
    8.6189   -2.9914   26.8015 C   0  0  0  0  0  0  0  0  0  0  0  0
    8.5270   -2.8584   26.8012 C   0  0  0  0  0  0  0  0  0  0  0  0
    9.5504   -1.2819   27.6149 C   0  0  0  0  0  0  0  0  0  0  0  0
    9.8182   -0.4622   26.5884 C   0  0  0  0  0  0  0  0  0  0  0  0
    9.2529   -0.9365   25.3115 C   0  0  0  0  0  0  0  0  0  0  0  0
    9.2962   -0.3587   24.3929 H   0  0  0  0  0  0  0  0  0  0  0  0
   10.3834    0.4647   26.6653 H   0  0  0  0  0  0  0  0  0  0  0  0
    9.6867   -1.0602   28.6953 H   0  0  0  0  0  0  0  0  0  0  0  0
    9.4387   -3.4702   27.5334 H   0  0  0  0  0  0  0  0  0  0  0  0
    7.4637   -3.4991   26.7419 H   0  0  0  0  0  0  0  0  0  0  0  0
    6.7495   -2.9722   24.4630 H   0  0  0  0  0  0  0  0  0  0  0  0
    7.1695   -2.9962   21.8930 C   0  0  0  0  0  0  0  0  0  0  0  0
    6.5036   -1.7023   21.5873 N   0  0  0  0  0  4  0  0  0  0  0  0
    7.3904   -0.6353   20.9325 C   0  0  0  0  0  0  0  0  0  0  0  0
    7.8796    0.3961   21.9409 C   0  0  0  0  0  0  0  0  0  0  0  0
    8.4999    1.1411   21.4396 H   0  0  0  0  0  0  0  0  0  0  0  0
    8.4824   -0.0829   22.7084 H   0  0  0  0  0  0  0  0  0  0  0  0
    7.0409    0.9152   22.4169 H   0  0  0  0  0  0  0  0  0  0  0  0
    6.5943    0.0042   19.8256 C   0  0  0  0  0  0  0  0  0  0  0  0
    5.3962    0.7012   20.0490 C   0  0  0  0  0  0  0  0  0  0  0  0
    4.7976    1.3659   18.9800 C   0  0  0  0  0  0  0  0  0  0  0  0
    5.4095    1.3117   17.7239 C   0  0  0  0  0  0  0  0  0  0  0  0
    6.5417    0.6372   17.4861 N   0  0  0  0  0  0  0  0  0  0  0  0
    7.1083    0.0100   18.5240 C   0  0  0  0  0  0  0  0  0  0  0  0
    8.0354   -0.5214   18.3068 H   0  0  0  0  0  0  0  0  0  0  0  0
    4.9700    1.8314   16.8736 H   0  0  0  0  0  0  0  0  0  0  0  0
    3.8822    1.9311   19.1097 H   0  0  0  0  0  0  0  0  0  0  0  0
    4.9422    0.7506   21.0438 H   0  0  0  0  0  0  0  0  0  0  0  0
    8.2539   -1.1630   20.5155 H   0  0  0  0  0  0  0  0  0  0  0  0
    5.6904   -1.7767   20.9520 H   0  0  0  0  0  0  0  0  0  0  0  0
    6.2111   -1.2921   22.5087 H   0  0  0  0  0  0  0  0  0  0  0  0
    6.4197   -3.7403   22.1749 H   0  0  0  0  0  0  0  0  0  0  0  0
    7.6709   -3.3686   20.9947 H   0  0  0  0  0  0  0  0  0  0  0  0
   10.1131   -3.7976   22.9964 H   0  0  0  0  0  0  0  0  0  0  0  0
   10.2393   -2.0494   23.0612 H   0  0  0  0  0  0  0  0  0  0  0  0
    9.7977   -2.8234   21.5445 H   0  0  0  0  0  0  0  0  0  0  0  0
  1  2  1  0
  2  3  2  3
  3  4  1  0
  4  5  2  0
  5  6  1  0
  6  7  2  0
  7  8  1  0
  8  9  2  0
  9 10  1  0
  8 11  1  0
  7 12  1  0
  6 13  1  0
  5 14  1  0
  3 15  1  0
  2 16  1  0
 16 17  1  0
 17 18  1  0
 18 19  1  0
 19 20  1  0
 19 21  1  0
 19 22  1  0
 18 23  1  0
 23 24  2  0
 24 25  1  0
 25 26  2  0
 26 27  1  0
 27 28  2  0
 28 29  1  0
 26 30  1  0
 25 31  1  0
 24 32  1  0
 18 33  1  0
 17 34  1  0
 17 35  1  0
 16 36  1  0
 16 37  1  0
  1 38  1  0
  1 39  1  0
  1 40  1  0
  9  4  1  0
 28 23  1  0
M  CHG  1  17   1
M  END
>  <cnnaffinity>  (1) 
-4.72053

>  <filename>  (1) 
CC(=Cc1ccccc1)C[NH2+]C(C)c1cccnc1

$$$$
