
     RDKit          3D

 39 41  0  0  0  0  0  0  0  0999 V2000
    4.9164    1.8117   16.9643 H   0  0  0  0  0  0  0  0  0  0  0  0
    5.3816    1.3027   17.8090 C   0  0  0  0  0  0  0  0  0  0  0  0
    6.5447    0.6821   17.5501 N   0  0  0  0  0  0  0  0  0  0  0  0
    7.1551    0.0624   18.5677 C   0  0  0  0  0  0  0  0  0  0  0  0
    8.1134   -0.3926   18.3138 H   0  0  0  0  0  0  0  0  0  0  0  0
    6.6478    0.0131   19.8860 C   0  0  0  0  0  0  0  0  0  0  0  0
    7.3563   -0.6389   21.0041 C   0  0  0  0  0  0  0  0  0  0  0  0
    7.4230   -0.3461   22.3630 C   0  0  0  0  0  0  0  0  0  0  0  0
    6.7786    0.7280   22.9056 O   0  0  0  0  0  0  0  0  0  0  0  0
    6.9678    1.0383   24.2901 C   0  0  0  0  0  0  0  0  0  0  0  0
    6.8881    0.1008   24.8653 H   0  0  0  0  0  0  0  0  0  0  0  0
    8.3216    1.7127   24.5430 C   0  0  0  0  0  0  0  0  0  0  0  0
    9.1386    1.0301   24.2798 H   0  0  0  0  0  0  0  0  0  0  0  0
    8.4048    2.5913   23.8896 H   0  0  0  0  0  0  0  0  0  0  0  0
    8.4490    2.1312   26.0085 C   0  0  0  0  0  0  0  0  0  0  0  0
    9.3540    2.7227   26.1630 H   0  0  0  0  0  0  0  0  0  0  0  0
    8.5196    1.2333   26.6492 H   0  0  0  0  0  0  0  0  0  0  0  0
    7.3104    2.9571   26.4404 N   0  0  0  0  0  0  0  0  0  0  0  0
    7.5373    4.0678   27.2289 C   0  0  0  0  0  0  0  0  0  0  0  0
    8.5815    4.6948   27.1775 O   0  0  0  0  0  0  0  0  0  0  0  0
    6.4239    4.5208   28.1620 C   0  0  0  0  0  0  0  0  0  0  0  0
    5.7328    5.1549   27.5996 H   0  0  0  0  0  0  0  0  0  0  0  0
    6.8822    5.1322   28.9390 H   0  0  0  0  0  0  0  0  0  0  0  0
    5.8487    3.7128   28.6247 H   0  0  0  0  0  0  0  0  0  0  0  0
    5.9787    2.4240   26.1598 C   0  0  0  0  0  0  0  0  0  0  0  0
    5.7601    1.5615   26.8145 H   0  0  0  0  0  0  0  0  0  0  0  0
    5.2363    3.1991   26.3776 H   0  0  0  0  0  0  0  0  0  0  0  0
    5.8506    2.0001   24.6906 C   0  0  0  0  0  0  0  0  0  0  0  0
    4.8752    1.5250   24.5345 H   0  0  0  0  0  0  0  0  0  0  0  0
    5.8979    2.8848   24.0376 H   0  0  0  0  0  0  0  0  0  0  0  0
    8.2476   -1.3535   22.9310 C   0  0  0  0  0  0  0  0  0  0  0  0
    8.5724   -1.5156   23.9552 H   0  0  0  0  0  0  0  0  0  0  0  0
    8.6614   -2.2037   21.9912 N   0  0  0  0  0  0  0  0  0  0  0  0
    8.1304   -1.7503   20.8562 N   0  0  0  0  0  0  0  0  0  0  0  0
    8.2590   -2.2769   19.9997 H   0  0  0  0  0  0  0  0  0  0  0  0
    5.4280    0.6631   20.1269 C   0  0  0  0  0  0  0  0  0  0  0  0
    5.0269    0.6548   21.1380 H   0  0  0  0  0  0  0  0  0  0  0  0
    4.7855    1.3150   19.0749 C   0  0  0  0  0  0  0  0  0  0  0  0
    3.8567    1.8537   19.2229 H   0  0  0  0  0  0  0  0  0  0  0  0
  1  2  1  0
  2  3  2  0
  3  4  1  0
  4  5  1  0
  4  6  2  0
  6  7  1  0
  7  8  2  0
  8  9  1  0
  9 10  1  0
 10 11  1  0
 10 12  1  0
 12 13  1  0
 12 14  1  0
 12 15  1  0
 15 16  1  0
 15 17  1  0
 15 18  1  0
 18 19  1  0
 19 20  2  0
 19 21  1  0
 21 22  1  0
 21 23  1  0
 21 24  1  0
 18 25  1  0
 25 26  1  0
 25 27  1  0
 25 28  1  0
 28 29  1  0
 28 30  1  0
  8 31  1  0
 31 32  1  0
 31 33  2  0
 33 34  1  0
 34 35  1  0
  6 36  1  0
 36 37  1  0
 36 38  2  0
 38 39  1  0
 38  2  1  0
 34  7  1  0
 28 10  1  0
M  END
>  <cnnaffinity>  (1) 
-4.99609

>  <filename>  (1) 
CC(=O)N1CCC(Oc2cn[nH]c2-c2cccnc2)CC1

$$$$
