
     RDKit          3D

 44 45  0  0  0  0  0  0  0  0999 V2000
    4.9250    1.7954   16.9856 H   0  0  0  0  0  0  0  0  0  0  0  0
    5.4025    1.2966   17.8266 C   0  0  0  0  0  0  0  0  0  0  0  0
    6.5671    0.6766   17.5630 N   0  0  0  0  0  0  0  0  0  0  0  0
    7.1926    0.0709   18.5825 C   0  0  0  0  0  0  0  0  0  0  0  0
    8.1359   -0.4206   18.3401 H   0  0  0  0  0  0  0  0  0  0  0  0
    6.6924    0.0279   19.9050 C   0  0  0  0  0  0  0  0  0  0  0  0
    7.3737   -0.5938   20.9888 N   0  0  0  0  0  0  0  0  0  0  0  0
    8.3750   -0.6884   20.9236 H   0  0  0  0  0  0  0  0  0  0  0  0
    6.7464   -1.4136   21.9280 C   0  0  0  0  0  0  0  0  0  0  0  0
    5.6826   -1.9502   21.6816 O   0  0  0  0  0  0  0  0  0  0  0  0
    7.4796   -1.6298   23.3052 C   0  0  0  0  0  0  0  0  0  0  0  0
    9.0116   -1.4362   23.2000 C   0  0  0  0  0  0  0  0  0  0  0  0
    9.2964   -0.4074   22.9443 H   0  0  0  0  0  0  0  0  0  0  0  0
    9.4397   -2.1118   22.4489 H   0  0  0  0  0  0  0  0  0  0  0  0
    9.4974   -1.6779   24.1531 H   0  0  0  0  0  0  0  0  0  0  0  0
    7.2115   -3.1044   23.7143 C   0  0  0  0  0  0  0  0  0  0  0  0
    7.8127   -3.3997   24.5811 H   0  0  0  0  0  0  0  0  0  0  0  0
    7.4639   -3.7760   22.8868 H   0  0  0  0  0  0  0  0  0  0  0  0
    6.1527   -3.2628   23.9505 H   0  0  0  0  0  0  0  0  0  0  0  0
    6.8478   -0.6595   24.3920 C   0  0  0  0  0  0  0  0  0  0  0  0
    5.7706   -0.9053   24.4104 H   0  0  0  0  0  0  0  0  0  0  0  0
    7.3691   -0.8674   25.8387 C   0  0  0  0  0  0  0  0  0  0  0  0
    8.4463   -0.6448   25.8892 H   0  0  0  0  0  0  0  0  0  0  0  0
    7.2372   -1.9068   26.1591 H   0  0  0  0  0  0  0  0  0  0  0  0
    6.6421    0.0296   26.8515 C   0  0  0  0  0  0  0  0  0  0  0  0
    5.5836   -0.2710   26.9496 H   0  0  0  0  0  0  0  0  0  0  0  0
    7.0872   -0.0590   27.8475 H   0  0  0  0  0  0  0  0  0  0  0  0
    6.7190    1.4428   26.4605 N   0  0  0  0  0  0  0  0  0  0  0  0
    6.7921    2.3949   27.4582 C   0  0  0  0  0  0  0  0  0  0  0  0
    6.6824    2.1072   28.6405 O   0  0  0  0  0  0  0  0  0  0  0  0
    7.0491    3.8291   27.0415 C   0  0  0  0  0  0  0  0  0  0  0  0
    7.3207    4.3727   27.9478 H   0  0  0  0  0  0  0  0  0  0  0  0
    7.8563    3.9049   26.3077 H   0  0  0  0  0  0  0  0  0  0  0  0
    6.1524    4.2874   26.6123 H   0  0  0  0  0  0  0  0  0  0  0  0
    6.2690    1.7276   25.0948 C   0  0  0  0  0  0  0  0  0  0  0  0
    6.4407    2.7838   24.8704 H   0  0  0  0  0  0  0  0  0  0  0  0
    5.1802    1.5541   25.0128 H   0  0  0  0  0  0  0  0  0  0  0  0
    6.9999    0.8435   24.0707 C   0  0  0  0  0  0  0  0  0  0  0  0
    8.0658    1.1109   24.0799 H   0  0  0  0  0  0  0  0  0  0  0  0
    6.6174    1.0642   23.0663 H   0  0  0  0  0  0  0  0  0  0  0  0
    5.4577    0.6449   20.1467 C   0  0  0  0  0  0  0  0  0  0  0  0
    5.0221    0.5918   21.1437 H   0  0  0  0  0  0  0  0  0  0  0  0
    4.8172    1.3086   19.0966 C   0  0  0  0  0  0  0  0  0  0  0  0
    3.8811    1.8341   19.2543 H   0  0  0  0  0  0  0  0  0  0  0  0
  1  2  1  0
  2  3  2  0
  3  4  1  0
  4  5  1  0
  4  6  2  0
  6  7  1  0
  7  8  1  0
  7  9  1  0
  9 10  2  0
  9 11  1  0
 11 12  1  0
 12 13  1  0
 12 14  1  0
 12 15  1  0
 11 16  1  0
 16 17  1  0
 16 18  1  0
 16 19  1  0
 11 20  1  0
 20 21  1  0
 20 22  1  0
 22 23  1  0
 22 24  1  0
 22 25  1  0
 25 26  1  0
 25 27  1  0
 25 28  1  0
 28 29  1  0
 29 30  2  0
 29 31  1  0
 31 32  1  0
 31 33  1  0
 31 34  1  0
 28 35  1  0
 35 36  1  0
 35 37  1  0
 35 38  1  0
 38 39  1  0
 38 40  1  0
  6 41  1  0
 41 42  1  0
 41 43  2  0
 43 44  1  0
 43  2  1  0
 38 20  1  0
M  END
>  <cnnaffinity>  (1) 
-4.98412

>  <filename>  (1) 
CC(=O)N1CCC(C(C)(C)C(=O)Nc2cccnc2)CC1

$$$$
