
     RDKit          3D

 37 38  0  0  0  0  0  0  0  0999 V2000
    7.1963    0.9120   22.5538 H   0  0  0  0  0  0  0  0  0  0  0  0
    7.5793   -0.0721   22.2550 C   0  0  0  0  0  0  0  0  0  0  0  0
    8.2899   -0.7652   23.2068 O   0  0  0  0  0  0  0  0  0  0  0  0
    8.3905   -0.1853   24.4990 C   0  0  0  0  0  0  0  0  0  0  0  0
    8.7355    0.8552   24.4289 H   0  0  0  0  0  0  0  0  0  0  0  0
    9.1676   -0.7430   25.0237 H   0  0  0  0  0  0  0  0  0  0  0  0
    7.0729   -0.2750   25.2714 C   0  0  0  0  0  0  0  0  0  0  0  0
    6.7604   -1.3254   25.2910 H   0  0  0  0  0  0  0  0  0  0  0  0
    6.2875    0.2689   24.7106 H   0  0  0  0  0  0  0  0  0  0  0  0
    7.1915    0.2146   26.6353 N   0  0  0  0  0  0  0  0  0  0  0  0
    7.4659    1.6440   26.7566 C   0  0  0  0  0  0  0  0  0  0  0  0
    6.9542    2.2320   25.9707 H   0  0  0  0  0  0  0  0  0  0  0  0
    8.5410    1.8294   26.6435 H   0  0  0  0  0  0  0  0  0  0  0  0
    6.9524    2.0476   28.1474 C   0  0  0  0  0  0  0  0  0  0  0  0
    7.7870    2.2530   28.8222 H   0  0  0  0  0  0  0  0  0  0  0  0
    6.3568    2.9622   28.0739 H   0  0  0  0  0  0  0  0  0  0  0  0
    6.1233    0.8483   28.6516 C   0  0  0  0  0  0  0  0  0  0  0  0
    5.1264    1.1430   28.9931 H   0  0  0  0  0  0  0  0  0  0  0  0
    6.6275    0.3548   29.4866 H   0  0  0  0  0  0  0  0  0  0  0  0
    6.0342   -0.1041   27.4574 C   0  0  0  0  0  0  0  0  0  0  0  0
    6.0785   -1.1603   27.7545 H   0  0  0  0  0  0  0  0  0  0  0  0
    5.0784    0.0461   26.9183 H   0  0  0  0  0  0  0  0  0  0  0  0
    7.3969   -0.6083   21.0456 C   0  0  0  0  0  0  0  0  0  0  0  0
    6.6681    0.1168   19.9569 C   0  0  0  0  0  0  0  0  0  0  0  0
    7.1662    0.0964   18.6368 C   0  0  0  0  0  0  0  0  0  0  0  0
    8.1039   -0.4287   18.4274 H   0  0  0  0  0  0  0  0  0  0  0  0
    6.5688    0.6810   17.5921 N   0  0  0  0  0  0  0  0  0  0  0  0
    5.4044    1.3049   17.8323 C   0  0  0  0  0  0  0  0  0  0  0  0
    4.9402    1.7905   16.9787 H   0  0  0  0  0  0  0  0  0  0  0  0
    4.7873    1.3528   19.0878 C   0  0  0  0  0  0  0  0  0  0  0  0
    3.8297    1.8541   19.2040 H   0  0  0  0  0  0  0  0  0  0  0  0
    5.4322    0.7537   20.1695 C   0  0  0  0  0  0  0  0  0  0  0  0
    4.9719    0.7302   21.1592 H   0  0  0  0  0  0  0  0  0  0  0  0
    7.8830   -2.0143   20.7532 C   0  0  0  0  0  0  0  0  0  0  0  0
    7.8979   -2.6013   21.6785 H   0  0  0  0  0  0  0  0  0  0  0  0
    7.1854   -2.5069   20.0652 H   0  0  0  0  0  0  0  0  0  0  0  0
    8.8971   -2.0198   20.3168 H   0  0  0  0  0  0  0  0  0  0  0  0
  1  2  1  0
  2  3  1  0
  3  4  1  0
  4  5  1  0
  4  6  1  0
  4  7  1  0
  7  8  1  0
  7  9  1  0
  7 10  1  0
 10 11  1  0
 11 12  1  0
 11 13  1  0
 11 14  1  0
 14 15  1  0
 14 16  1  0
 14 17  1  0
 17 18  1  0
 17 19  1  0
 17 20  1  0
 20 21  1  0
 20 22  1  0
  2 23  2  3
 23 24  1  0
 24 25  2  0
 25 26  1  0
 25 27  1  0
 27 28  2  0
 28 29  1  0
 28 30  1  0
 30 31  1  0
 30 32  2  0
 32 33  1  0
 23 34  1  0
 34 35  1  0
 34 36  1  0
 34 37  1  0
 20 10  1  0
 32 24  1  0
M  END
>  <cnnaffinity>  (1) 
-4.19583

>  <filename>  (1) 
CC(=COCCN1CCCC1)c1cccnc1

$$$$
