
     RDKit          3D

 32 33  0  0  0  0  0  0  0  0999 V2000
    4.9212    1.7810   16.9973 H   0  0  0  0  0  0  0  0  0  0  0  0
    5.4011    1.2906   17.8441 C   0  0  0  0  0  0  0  0  0  0  0  0
    6.5671    0.6713   17.5961 N   0  0  0  0  0  0  0  0  0  0  0  0
    7.1789    0.0553   18.6116 C   0  0  0  0  0  0  0  0  0  0  0  0
    8.1201   -0.4355   18.3930 H   0  0  0  0  0  0  0  0  0  0  0  0
    6.6681   -0.0062   19.9294 C   0  0  0  0  0  0  0  0  0  0  0  0
    7.4026   -0.7218   20.8341 O   0  0  0  0  0  0  0  0  0  0  0  0
    7.0545   -0.7029   22.2278 C   0  0  0  0  0  0  0  0  0  0  0  0
    6.0311   -1.0633   22.3602 H   0  0  0  0  0  0  0  0  0  0  0  0
    7.7152   -1.4631   22.6511 H   0  0  0  0  0  0  0  0  0  0  0  0
    7.2640    0.6316   22.9236 C   0  0  0  0  0  0  0  0  0  0  0  0
    8.5011    1.2779   22.7717 C   0  0  0  0  0  0  0  0  0  0  0  0
    9.2839    0.8085   22.1795 H   0  0  0  0  0  0  0  0  0  0  0  0
    8.7134    2.5181   23.3673 C   0  0  0  0  0  0  0  0  0  0  0  0
    9.6683    3.0205   23.2413 H   0  0  0  0  0  0  0  0  0  0  0  0
    7.7171    3.1201   24.1346 C   0  0  0  0  0  0  0  0  0  0  0  0
    7.8779    4.0867   24.5934 H   0  0  0  0  0  0  0  0  0  0  0  0
    6.4893    2.4714   24.3229 C   0  0  0  0  0  0  0  0  0  0  0  0
    5.4682    3.0731   25.0987 N   0  0  0  0  0  0  0  0  0  0  0  0
    4.5219    2.8509   24.8561 H   0  0  0  0  0  0  0  0  0  0  0  0
    5.6768    3.8381   26.2246 C   0  0  0  0  0  0  0  0  0  0  0  0
    6.7646    3.9239   26.7559 O   0  0  0  0  0  0  0  0  0  0  0  0
    4.4662    4.5665   26.7821 C   0  0  0  0  0  0  0  0  0  0  0  0
    4.8477    5.3785   27.4030 H   0  0  0  0  0  0  0  0  0  0  0  0
    3.7993    4.9864   26.0218 H   0  0  0  0  0  0  0  0  0  0  0  0
    3.8883    3.9123   27.4407 H   0  0  0  0  0  0  0  0  0  0  0  0
    6.2613    1.2342   23.7016 C   0  0  0  0  0  0  0  0  0  0  0  0
    5.3031    0.7323   23.8331 H   0  0  0  0  0  0  0  0  0  0  0  0
    5.4488    0.6408   20.1803 C   0  0  0  0  0  0  0  0  0  0  0  0
    5.0025    0.6327   21.1744 H   0  0  0  0  0  0  0  0  0  0  0  0
    4.8192    1.3018   19.1133 C   0  0  0  0  0  0  0  0  0  0  0  0
    3.8853    1.8334   19.2599 H   0  0  0  0  0  0  0  0  0  0  0  0
  1  2  1  0
  2  3  2  0
  3  4  1  0
  4  5  1  0
  4  6  2  0
  6  7  1  0
  7  8  1  0
  8  9  1  0
  8 10  1  0
  8 11  1  0
 11 12  2  0
 12 13  1  0
 12 14  1  0
 14 15  1  0
 14 16  2  0
 16 17  1  0
 16 18  1  0
 18 19  1  0
 19 20  1  0
 19 21  1  0
 21 22  2  0
 21 23  1  0
 23 24  1  0
 23 25  1  0
 23 26  1  0
 18 27  2  0
 27 28  1  0
  6 29  1  0
 29 30  1  0
 29 31  2  0
 31 32  1  0
 31  2  1  0
 27 11  1  0
M  END
>  <cnnaffinity>  (1) 
-4.22668

>  <filename>  (1) 
CC(=O)Nc1cccc(COc2cccnc2)c1

$$$$
