
     RDKit          3D

 44 45  0  0  0  0  0  0  0  0999 V2000
    6.0871   -2.6938   25.2796 C   0  0  0  0  0  0  0  0  0  0  0  0
    6.2613   -2.9300   23.8021 C   0  0  0  0  0  0  0  0  0  0  0  0
    6.8143   -1.9875   23.0142 C   0  0  0  0  0  0  0  0  0  0  0  0
    6.6090   -1.8298   21.5447 C   0  0  0  0  0  0  0  0  0  0  0  0
    5.8269   -2.5188   20.9222 O   0  0  0  0  0  0  0  0  0  0  0  0
    7.3441   -0.7971   20.9013 N   0  0  0  0  0  0  0  0  0  0  0  0
    6.7057   -0.0662   19.8373 C   0  0  0  0  0  0  0  0  0  0  0  0
    5.4981    0.6044   20.0860 C   0  0  0  0  0  0  0  0  0  0  0  0
    4.8947    1.3192   19.0469 C   0  0  0  0  0  0  0  0  0  0  0  0
    5.5118    1.3413   17.7932 C   0  0  0  0  0  0  0  0  0  0  0  0
    6.6681    0.7099   17.5325 N   0  0  0  0  0  0  0  0  0  0  0  0
    7.2513    0.0397   18.5352 C   0  0  0  0  0  0  0  0  0  0  0  0
    8.1894   -0.4637   18.2914 H   0  0  0  0  0  0  0  0  0  0  0  0
    5.0609    1.8804   16.9621 H   0  0  0  0  0  0  0  0  0  0  0  0
    3.9631    1.8559   19.1933 H   0  0  0  0  0  0  0  0  0  0  0  0
    5.0620    0.5579   21.0844 H   0  0  0  0  0  0  0  0  0  0  0  0
    8.6710   -0.2993   21.3200 C   0  0  0  0  0  0  0  0  0  0  0  0
    9.5957   -1.3854   21.8785 C   0  0  0  0  0  0  0  0  0  0  0  0
   10.6188   -0.9946   21.9240 H   0  0  0  0  0  0  0  0  0  0  0  0
    9.3394   -1.7055   22.8929 H   0  0  0  0  0  0  0  0  0  0  0  0
    9.5911   -2.2680   21.2328 H   0  0  0  0  0  0  0  0  0  0  0  0
    8.5857    0.9291   22.2334 C   0  0  0  0  0  0  0  0  0  0  0  0
    7.9745    1.7156   21.7771 H   0  0  0  0  0  0  0  0  0  0  0  0
    8.1714    0.7076   23.2231 H   0  0  0  0  0  0  0  0  0  0  0  0
    9.5954    1.3300   22.3844 H   0  0  0  0  0  0  0  0  0  0  0  0
    9.1420    0.0547   20.3916 H   0  0  0  0  0  0  0  0  0  0  0  0
    7.3643   -1.1794   23.4779 H   0  0  0  0  0  0  0  0  0  0  0  0
    5.6098   -4.1733   23.2956 C   0  0  0  0  0  0  0  0  0  0  0  0
    4.2007   -4.1934   23.3058 C   0  0  0  0  0  0  0  0  0  0  0  0
    3.4896   -5.2726   22.7911 C   0  0  0  0  0  0  0  0  0  0  0  0
    4.1919   -6.3652   22.2818 C   0  0  0  0  0  0  0  0  0  0  0  0
    5.5830   -6.4149   22.3701 C   0  0  0  0  0  0  0  0  0  0  0  0
    6.3052   -5.3388   22.9032 C   0  0  0  0  0  0  0  0  0  0  0  0
    7.8071   -5.4714   23.1121 C   0  0  0  0  0  0  0  0  0  0  0  0
    8.2897   -6.6570   22.6909 F   0  0  0  0  0  0  0  0  0  0  0  0
    8.1604   -5.3473   24.4066 F   0  0  0  0  0  0  0  0  0  0  0  0
    8.4959   -4.5150   22.4545 F   0  0  0  0  0  0  0  0  0  0  0  0
    6.1078   -7.3064   22.0459 H   0  0  0  0  0  0  0  0  0  0  0  0
    3.6602   -7.1833   21.8152 H   0  0  0  0  0  0  0  0  0  0  0  0
    2.4016   -5.2785   22.8089 H   0  0  0  0  0  0  0  0  0  0  0  0
    3.6815   -3.3335   23.7248 H   0  0  0  0  0  0  0  0  0  0  0  0
    5.2217   -2.0379   25.4672 H   0  0  0  0  0  0  0  0  0  0  0  0
    5.8908   -3.6441   25.7922 H   0  0  0  0  0  0  0  0  0  0  0  0
    6.9704   -2.2290   25.7376 H   0  0  0  0  0  0  0  0  0  0  0  0
  1  2  1  0
  2  3  2  3
  3  4  1  0
  4  5  2  0
  4  6  1  0
  6  7  1  0
  7  8  2  0
  8  9  1  0
  9 10  2  0
 10 11  1  0
 11 12  2  0
 12 13  1  0
 10 14  1  0
  9 15  1  0
  8 16  1  0
  6 17  1  0
 17 18  1  0
 18 19  1  0
 18 20  1  0
 18 21  1  0
 17 22  1  0
 22 23  1  0
 22 24  1  0
 22 25  1  0
 17 26  1  0
  3 27  1  0
  2 28  1  0
 28 29  2  0
 29 30  1  0
 30 31  2  0
 31 32  1  0
 32 33  2  0
 33 34  1  0
 34 35  1  0
 34 36  1  0
 34 37  1  0
 32 38  1  0
 31 39  1  0
 30 40  1  0
 29 41  1  0
  1 42  1  0
  1 43  1  0
  1 44  1  0
 12  7  1  0
 33 28  1  0
M  END
>  <cnnaffinity>  (1) 
-5.88443

>  <filename>  (1) 
CC(=CC(=O)N(c1cccnc1)C(C)C)c1ccccc1C(F)(F)F

$$$$
