
     RDKit          3D

 39 40  0  0  0  0  0  0  0  0999 V2000
    8.8466   -0.4144   21.1670 C   0  0  0  0  0  0  0  0  0  0  0  0
    7.3803   -0.7356   20.9897 C   0  0  0  0  0  0  0  0  0  0  0  0
    6.7223   -1.6250   21.7568 C   0  0  0  0  0  0  0  0  0  0  0  0
    7.3192   -2.4402   22.8383 C   0  0  0  0  0  0  0  0  0  0  0  0
    8.5179   -2.4814   23.0919 O   0  0  0  0  0  0  0  0  0  0  0  0
    6.4286   -3.1796   23.5674 N   0  0  0  0  0  0  0  0  0  0  0  0
    6.8795   -4.0306   24.6674 C   0  0  0  0  0  0  0  0  0  0  0  0
    5.7360   -4.7496   25.3658 C   0  0  0  0  0  0  0  0  0  0  0  0
    5.4278   -6.0688   24.9961 C   0  0  0  0  0  0  0  0  0  0  0  0
    4.4041   -6.7822   25.6228 C   0  0  0  0  0  0  0  0  0  0  0  0
    3.6584   -6.1700   26.6284 C   0  0  0  0  0  0  0  0  0  0  0  0
    3.9500   -4.8498   26.9902 C   0  0  0  0  0  0  0  0  0  0  0  0
    3.2210   -4.2360   27.9665 O   0  0  0  0  0  0  0  0  0  0  0  0
    2.5831   -4.8825   28.2864 H   0  0  0  0  0  0  0  0  0  0  0  0
    4.9814   -4.1129   26.3733 C   0  0  0  0  0  0  0  0  0  0  0  0
    5.2840   -2.6924   26.8029 C   0  0  0  0  0  0  0  0  0  0  0  0
    6.1811   -2.6550   27.4355 H   0  0  0  0  0  0  0  0  0  0  0  0
    4.4562   -2.2694   27.3761 H   0  0  0  0  0  0  0  0  0  0  0  0
    5.4695   -2.0683   25.9203 H   0  0  0  0  0  0  0  0  0  0  0  0
    2.8463   -6.6999   27.1264 H   0  0  0  0  0  0  0  0  0  0  0  0
    4.1905   -7.8067   25.3284 H   0  0  0  0  0  0  0  0  0  0  0  0
    6.0082   -6.5205   24.2013 H   0  0  0  0  0  0  0  0  0  0  0  0
    7.5950   -4.7719   24.2858 H   0  0  0  0  0  0  0  0  0  0  0  0
    7.4490   -3.4199   25.3860 H   0  0  0  0  0  0  0  0  0  0  0  0
    5.4550   -3.1383   23.3154 H   0  0  0  0  0  0  0  0  0  0  0  0
    5.6647   -1.7817   21.5774 H   0  0  0  0  0  0  0  0  0  0  0  0
    6.6327   -0.0174   19.9126 C   0  0  0  0  0  0  0  0  0  0  0  0
    5.4127    0.6416   20.1466 C   0  0  0  0  0  0  0  0  0  0  0  0
    4.7929    1.3150   19.0927 C   0  0  0  0  0  0  0  0  0  0  0  0
    5.3960    1.2957   17.8303 C   0  0  0  0  0  0  0  0  0  0  0  0
    6.5585    0.6732   17.5800 N   0  0  0  0  0  0  0  0  0  0  0  0
    7.1555    0.0553   18.6066 C   0  0  0  0  0  0  0  0  0  0  0  0
    8.1119   -0.4181   18.3844 H   0  0  0  0  0  0  0  0  0  0  0  0
    4.9325    1.7982   16.9835 H   0  0  0  0  0  0  0  0  0  0  0  0
    3.8639    1.8548   19.2348 H   0  0  0  0  0  0  0  0  0  0  0  0
    4.9901    0.6452   21.1505 H   0  0  0  0  0  0  0  0  0  0  0  0
    9.4775   -1.2789   20.9355 H   0  0  0  0  0  0  0  0  0  0  0  0
    9.0719   -0.1550   22.2075 H   0  0  0  0  0  0  0  0  0  0  0  0
    9.1289    0.4253   20.5273 H   0  0  0  0  0  0  0  0  0  0  0  0
  1  2  1  0
  2  3  2  3
  3  4  1  0
  4  5  2  0
  4  6  1  0
  6  7  1  0
  7  8  1  0
  8  9  2  0
  9 10  1  0
 10 11  2  0
 11 12  1  0
 12 13  1  0
 13 14  1  0
 12 15  2  0
 15 16  1  0
 16 17  1  0
 16 18  1  0
 16 19  1  0
 11 20  1  0
 10 21  1  0
  9 22  1  0
  7 23  1  0
  7 24  1  0
  6 25  1  0
  3 26  1  0
  2 27  1  0
 27 28  2  0
 28 29  1  0
 29 30  2  0
 30 31  1  0
 31 32  2  0
 32 33  1  0
 30 34  1  0
 29 35  1  0
 28 36  1  0
  1 37  1  0
  1 38  1  0
  1 39  1  0
 15  8  1  0
 32 27  1  0
M  END
>  <cnnaffinity>  (1) 
-4.80278

>  <filename>  (1) 
CC(=CC(=O)NCc1cccc(O)c1C)c1cccnc1

$$$$
