
     RDKit          3D

 39 41  0  0  0  0  0  0  0  0999 V2000
    7.5363   -2.1073   20.8557 C   0  0  0  0  0  0  0  0  0  0  0  0
    7.2087   -0.6673   21.1459 C   0  0  0  0  0  0  0  0  0  0  0  0
    7.4941   -0.0579   22.3062 C   0  0  0  0  0  0  0  0  0  0  0  0
    8.0280   -0.6954   23.5236 C   0  0  0  0  0  0  0  0  0  0  0  0
    8.1789   -1.9061   23.6887 O   0  0  0  0  0  0  0  0  0  0  0  0
    8.3919    0.2002   24.4897 N   0  0  0  0  0  0  0  0  0  0  0  0
    8.9454   -0.1995   25.7778 C   0  0  0  0  0  0  0  0  0  0  0  0
    7.8974   -0.2232   26.8729 C   0  0  0  0  0  0  0  0  0  0  0  0
    7.7718    0.8060   27.8115 C   0  0  0  0  0  0  0  0  0  0  0  0
    6.8093    0.7573   28.8483 C   0  0  0  0  0  0  0  0  0  0  0  0
    5.9295   -0.3128   28.9611 C   0  0  0  0  0  0  0  0  0  0  0  0
    5.9954   -1.3505   28.0036 C   0  0  0  0  0  0  0  0  0  0  0  0
    6.9673   -1.2764   26.9690 C   0  0  0  0  0  0  0  0  0  0  0  0
    6.8202   -2.3733   26.1673 N   0  0  0  0  0  0  0  0  0  0  0  0
    5.7834   -3.1406   26.6440 C   0  0  0  0  0  0  0  0  0  0  0  0
    5.2653   -2.5636   27.7677 C   0  0  0  0  0  0  0  0  0  0  0  0
    4.4719   -2.9597   28.3843 H   0  0  0  0  0  0  0  0  0  0  0  0
    5.4856   -4.0472   26.1308 H   0  0  0  0  0  0  0  0  0  0  0  0
    7.3474   -2.4740   25.2998 H   0  0  0  0  0  0  0  0  0  0  0  0
    5.2037   -0.3618   29.7690 H   0  0  0  0  0  0  0  0  0  0  0  0
    6.7634    1.5688   29.5684 H   0  0  0  0  0  0  0  0  0  0  0  0
    8.4240    1.6748   27.7415 H   0  0  0  0  0  0  0  0  0  0  0  0
    9.7601    0.4951   26.0318 H   0  0  0  0  0  0  0  0  0  0  0  0
    9.3932   -1.1900   25.6294 H   0  0  0  0  0  0  0  0  0  0  0  0
    7.9049    1.0806   24.4585 H   0  0  0  0  0  0  0  0  0  0  0  0
    7.3927    1.0189   22.3736 H   0  0  0  0  0  0  0  0  0  0  0  0
    6.5923    0.1173   20.0384 C   0  0  0  0  0  0  0  0  0  0  0  0
    5.4090    0.8545   20.1985 C   0  0  0  0  0  0  0  0  0  0  0  0
    4.8428    1.4616   19.0785 C   0  0  0  0  0  0  0  0  0  0  0  0
    5.4815    1.3318   17.8403 C   0  0  0  0  0  0  0  0  0  0  0  0
    6.6303    0.6597   17.6698 N   0  0  0  0  0  0  0  0  0  0  0  0
    7.1602    0.0825   18.7540 C   0  0  0  0  0  0  0  0  0  0  0  0
    8.1048   -0.4417   18.6104 H   0  0  0  0  0  0  0  0  0  0  0  0
    5.0569    1.7935   16.9516 H   0  0  0  0  0  0  0  0  0  0  0  0
    3.9337    2.0461   19.1539 H   0  0  0  0  0  0  0  0  0  0  0  0
    4.9344    0.9192   21.1790 H   0  0  0  0  0  0  0  0  0  0  0  0
    6.8100   -2.4900   20.1331 H   0  0  0  0  0  0  0  0  0  0  0  0
    7.5385   -2.7130   21.7634 H   0  0  0  0  0  0  0  0  0  0  0  0
    8.5382   -2.1763   20.4130 H   0  0  0  0  0  0  0  0  0  0  0  0
  1  2  1  0
  2  3  2  3
  3  4  1  0
  4  5  2  0
  4  6  1  0
  6  7  1  0
  7  8  1  0
  8  9  2  0
  9 10  1  0
 10 11  2  0
 11 12  1  0
 12 13  2  0
 13 14  1  0
 14 15  1  0
 15 16  2  0
 16 17  1  0
 15 18  1  0
 14 19  1  0
 11 20  1  0
 10 21  1  0
  9 22  1  0
  7 23  1  0
  7 24  1  0
  6 25  1  0
  3 26  1  0
  2 27  1  0
 27 28  2  0
 28 29  1  0
 29 30  2  0
 30 31  1  0
 31 32  2  0
 32 33  1  0
 30 34  1  0
 29 35  1  0
 28 36  1  0
  1 37  1  0
  1 38  1  0
  1 39  1  0
 13  8  1  0
 32 27  1  0
 16 12  1  0
M  END
>  <cnnaffinity>  (1) 
-4.6434

>  <filename>  (1) 
CC(=CC(=O)NCc1cccc2cc[nH]c12)c1cccnc1

$$$$
