
     RDKit          3D

 31 32  0  0  0  0  0  0  0  0999 V2000
    9.1746    0.2154   20.4955 H   0  0  0  0  0  0  0  0  0  0  0  0
    8.6711   -0.4923   21.1541 C   0  0  0  0  0  0  0  0  0  0  0  0
    7.3633   -0.6997   20.9785 C   0  0  0  0  0  0  0  0  0  0  0  0
    6.6465    0.0151   19.8946 C   0  0  0  0  0  0  0  0  0  0  0  0
    7.1656    0.0803   18.5860 C   0  0  0  0  0  0  0  0  0  0  0  0
    8.1067   -0.4158   18.3628 H   0  0  0  0  0  0  0  0  0  0  0  0
    6.5570    0.6789   17.5567 N   0  0  0  0  0  0  0  0  0  0  0  0
    5.3960    1.2998   17.8229 C   0  0  0  0  0  0  0  0  0  0  0  0
    4.9185    1.7923   16.9808 H   0  0  0  0  0  0  0  0  0  0  0  0
    4.7992    1.3187   19.0905 C   0  0  0  0  0  0  0  0  0  0  0  0
    3.8679    1.8480   19.2457 H   0  0  0  0  0  0  0  0  0  0  0  0
    5.4213    0.6497   20.1434 C   0  0  0  0  0  0  0  0  0  0  0  0
    5.0091    0.6296   21.1563 H   0  0  0  0  0  0  0  0  0  0  0  0
    6.5740   -1.6139   21.8863 C   0  0  0  0  0  0  0  0  0  0  0  0
    6.4235   -1.1589   22.8756 H   0  0  0  0  0  0  0  0  0  0  0  0
    7.0981   -2.5638   22.0575 H   0  0  0  0  0  0  0  0  0  0  0  0
    5.5923   -1.8351   21.4580 H   0  0  0  0  0  0  0  0  0  0  0  0
    9.4828   -1.1247   22.2649 C   0  0  0  0  0  0  0  0  0  0  0  0
    8.9786   -0.9654   23.2286 H   0  0  0  0  0  0  0  0  0  0  0  0
    9.5044   -2.2150   22.1235 H   0  0  0  0  0  0  0  0  0  0  0  0
   10.8955   -0.5918   22.3317 C   0  0  0  0  0  0  0  0  0  0  0  0
   11.9403   -1.3007   21.7275 C   0  0  0  0  0  0  0  0  0  0  0  0
   11.6940   -2.2255   21.2175 H   0  0  0  0  0  0  0  0  0  0  0  0
   13.2524   -0.8312   21.7432 C   0  0  0  0  0  0  0  0  0  0  0  0
   14.0285   -1.3901   21.2262 H   0  0  0  0  0  0  0  0  0  0  0  0
   13.5319    0.4050   22.3336 C   0  0  0  0  0  0  0  0  0  0  0  0
   14.5388    0.8074   22.3137 H   0  0  0  0  0  0  0  0  0  0  0  0
   12.5092    1.1560   22.9170 C   0  0  0  0  0  0  0  0  0  0  0  0
   12.6945    2.1216   23.3795 H   0  0  0  0  0  0  0  0  0  0  0  0
   11.2087    0.6478   22.9147 C   0  0  0  0  0  0  0  0  0  0  0  0
    9.9596    1.6103   23.6493 Cl  0  0  0  0  0  0  0  0  0  0  0  0
  1  2  1  0
  2  3  2  3
  3  4  1  0
  4  5  2  0
  5  6  1  0
  5  7  1  0
  7  8  2  0
  8  9  1  0
  8 10  1  0
 10 11  1  0
 10 12  2  0
 12 13  1  0
  3 14  1  0
 14 15  1  0
 14 16  1  0
 14 17  1  0
  2 18  1  0
 18 19  1  0
 18 20  1  0
 18 21  1  0
 21 22  2  0
 22 23  1  0
 22 24  1  0
 24 25  1  0
 24 26  2  0
 26 27  1  0
 26 28  1  0
 28 29  1  0
 28 30  2  0
 30 31  1  0
 12  4  1  0
 30 21  1  0
M  END
>  <cnnaffinity>  (1) 
-4.92109

>  <filename>  (1) 
CC(=CCc1ccccc1Cl)c1cccnc1

$$$$
