
     RDKit          3D

 38 40  0  0  0  0  0  0  0  0999 V2000
    7.6941   -2.0511   20.8174 C   0  0  0  0  0  0  0  0  0  0  0  0
    7.3419   -0.6110   21.0542 C   0  0  0  0  0  0  0  0  0  0  0  0
    7.6528   -0.0008   22.2037 C   0  0  0  0  0  0  0  0  0  0  0  0
    8.4829   -0.5994   23.2797 C   0  0  0  0  0  0  0  0  0  0  0  0
    9.1406   -1.6260   23.1956 O   0  0  0  0  0  0  0  0  0  0  0  0
    8.4520    0.1306   24.4425 N   0  0  0  0  0  0  0  0  0  0  0  0
    8.8954   -0.4173   25.7336 C   0  0  0  0  0  0  0  0  0  0  0  0
    8.0918   -1.5934   26.3100 C   0  0  0  0  0  0  0  0  0  0  0  0
    6.9367   -1.3015   26.9255 N   0  0  0  0  0  0  0  0  0  0  0  0
    6.1910   -2.3120   27.4216 C   0  0  0  0  0  0  0  0  0  0  0  0
    6.5644   -3.6453   27.3930 C   0  0  0  0  0  0  0  0  0  0  0  0
    7.8159   -3.9310   26.8221 C   0  0  0  0  0  0  0  0  0  0  0  0
    8.5837   -2.9217   26.2110 C   0  0  0  0  0  0  0  0  0  0  0  0
    9.7391   -3.5757   25.6437 C   0  0  0  0  0  0  0  0  0  0  0  0
    9.6533   -4.8948   25.9820 C   0  0  0  0  0  0  0  0  0  0  0  0
    8.4942   -5.1049   26.6963 N   0  0  0  0  0  0  0  0  0  0  0  0
    8.1410   -5.9949   27.0061 H   0  0  0  0  0  0  0  0  0  0  0  0
   10.3400   -5.7073   25.7879 H   0  0  0  0  0  0  0  0  0  0  0  0
   10.4839   -3.1250   24.9994 H   0  0  0  0  0  0  0  0  0  0  0  0
    5.9181   -4.4134   27.7925 H   0  0  0  0  0  0  0  0  0  0  0  0
    5.2446   -2.0135   27.8739 H   0  0  0  0  0  0  0  0  0  0  0  0
    8.8496    0.3929   26.4671 H   0  0  0  0  0  0  0  0  0  0  0  0
    9.9447   -0.7140   25.6323 H   0  0  0  0  0  0  0  0  0  0  0  0
    7.7185    0.8183   24.4688 H   0  0  0  0  0  0  0  0  0  0  0  0
    7.2961    1.0086   22.3847 H   0  0  0  0  0  0  0  0  0  0  0  0
    6.6265    0.1171   19.9710 C   0  0  0  0  0  0  0  0  0  0  0  0
    5.4050    0.7805   20.1663 C   0  0  0  0  0  0  0  0  0  0  0  0
    4.7826    1.3742   19.0663 C   0  0  0  0  0  0  0  0  0  0  0  0
    5.4108    1.3219   17.8156 C   0  0  0  0  0  0  0  0  0  0  0  0
    6.5781    0.6933   17.6066 N   0  0  0  0  0  0  0  0  0  0  0  0
    7.1459    0.1022   18.6643 C   0  0  0  0  0  0  0  0  0  0  0  0
    8.0831   -0.4208   18.4804 H   0  0  0  0  0  0  0  0  0  0  0  0
    4.9496    1.7883   16.9451 H   0  0  0  0  0  0  0  0  0  0  0  0
    3.8273    1.8765   19.1624 H   0  0  0  0  0  0  0  0  0  0  0  0
    4.9516    0.8044   21.1586 H   0  0  0  0  0  0  0  0  0  0  0  0
    7.5740   -2.6169   21.7428 H   0  0  0  0  0  0  0  0  0  0  0  0
    8.7516   -2.1412   20.5445 H   0  0  0  0  0  0  0  0  0  0  0  0
    7.0425   -2.4771   20.0500 H   0  0  0  0  0  0  0  0  0  0  0  0
  1  2  1  0
  2  3  2  3
  3  4  1  0
  4  5  2  0
  4  6  1  0
  6  7  1  0
  7  8  1  0
  8  9  2  0
  9 10  1  0
 10 11  2  0
 11 12  1  0
 12 13  2  0
 13 14  1  0
 14 15  2  0
 15 16  1  0
 16 17  1  0
 15 18  1  0
 14 19  1  0
 11 20  1  0
 10 21  1  0
  7 22  1  0
  7 23  1  0
  6 24  1  0
  3 25  1  0
  2 26  1  0
 26 27  2  0
 27 28  1  0
 28 29  2  0
 29 30  1  0
 30 31  2  0
 31 32  1  0
 29 33  1  0
 28 34  1  0
 27 35  1  0
  1 36  1  0
  1 37  1  0
  1 38  1  0
 13  8  1  0
 31 26  1  0
 16 12  1  0
M  END
>  <cnnaffinity>  (1) 
-5.25442

>  <filename>  (1) 
CC(=CC(=O)NCc1nccc2[nH]ccc12)c1cccnc1

$$$$
