
     RDKit          3D

 44 47  0  0  0  0  0  0  0  0999 V2000
    7.9303   -5.6700   25.3173 C   0  0  0  0  0  0  0  0  0  0  0  0
    8.3378   -4.2296   25.0763 C   0  0  0  0  0  0  0  0  0  0  0  0
    9.3232   -3.7637   25.6214 O   0  0  0  0  0  0  0  0  0  0  0  0
    7.5658   -3.4641   24.2021 N   0  0  0  0  0  0  0  0  0  0  0  0
    7.6612   -1.9775   24.2019 C   0  0  0  0  0  0  0  0  0  0  0  0
    7.6335   -1.3806   22.8152 C   0  0  0  0  0  0  0  0  0  0  0  0
    6.6952   -0.6785   22.2058 N   0  0  0  0  0  0  0  0  0  0  0  0
    7.1709   -0.5729   20.9358 C   0  0  0  0  0  0  0  0  0  0  0  0
    6.4864    0.1111   19.8420 C   0  0  0  0  0  0  0  0  0  0  0  0
    5.2813    0.8049   20.0064 C   0  0  0  0  0  0  0  0  0  0  0  0
    4.7372    1.4436   18.8930 C   0  0  0  0  0  0  0  0  0  0  0  0
    5.4115    1.3673   17.6679 C   0  0  0  0  0  0  0  0  0  0  0  0
    6.5618    0.6978   17.4995 N   0  0  0  0  0  0  0  0  0  0  0  0
    7.0827    0.0913   18.5697 C   0  0  0  0  0  0  0  0  0  0  0  0
    8.0263   -0.4273   18.4129 H   0  0  0  0  0  0  0  0  0  0  0  0
    5.0073    1.8541   16.7818 H   0  0  0  0  0  0  0  0  0  0  0  0
    3.8131    2.0050   18.9650 H   0  0  0  0  0  0  0  0  0  0  0  0
    4.8065    0.8427   20.9884 H   0  0  0  0  0  0  0  0  0  0  0  0
    8.3400   -1.1562   20.7400 N   0  0  0  0  0  0  0  0  0  0  0  0
    8.6516   -1.6205   21.9618 N   0  0  0  0  0  0  0  0  0  0  0  0
    9.8569   -2.3518   22.1942 C   0  0  0  0  0  0  0  0  0  0  0  0
   11.1935   -1.7106   21.9441 C   0  0  0  0  0  0  0  0  0  0  0  0
   10.7325   -1.9929   23.3437 C   0  0  0  0  0  0  0  0  0  0  0  0
   10.4855   -1.1178   23.9427 H   0  0  0  0  0  0  0  0  0  0  0  0
   11.1135   -2.8452   23.9003 H   0  0  0  0  0  0  0  0  0  0  0  0
   12.0084   -2.2775   21.4978 H   0  0  0  0  0  0  0  0  0  0  0  0
   11.1568   -0.6754   21.6133 H   0  0  0  0  0  0  0  0  0  0  0  0
    9.7371   -3.3982   21.9614 H   0  0  0  0  0  0  0  0  0  0  0  0
    8.5943   -1.7155   24.7023 H   0  0  0  0  0  0  0  0  0  0  0  0
    6.8452   -1.5251   24.7803 H   0  0  0  0  0  0  0  0  0  0  0  0
    6.3927   -4.0141   23.5949 C   0  0  0  0  0  0  0  0  0  0  0  0
    6.4940   -4.8777   22.4989 C   0  0  0  0  0  0  0  0  0  0  0  0
    5.3416   -5.4936   21.9933 C   0  0  0  0  0  0  0  0  0  0  0  0
    4.0824   -5.1767   22.5229 C   0  0  0  0  0  0  0  0  0  0  0  0
    3.9804   -4.2649   23.5849 C   0  0  0  0  0  0  0  0  0  0  0  0
    5.1404   -3.7099   24.1369 C   0  0  0  0  0  0  0  0  0  0  0  0
    5.1100   -3.0603   25.0084 H   0  0  0  0  0  0  0  0  0  0  0  0
    3.0097   -4.0219   24.0162 H   0  0  0  0  0  0  0  0  0  0  0  0
    3.1843   -5.6350   22.1096 H   0  0  0  0  0  0  0  0  0  0  0  0
    5.4268   -6.2085   21.1766 H   0  0  0  0  0  0  0  0  0  0  0  0
    7.4735   -5.0536   22.0575 H   0  0  0  0  0  0  0  0  0  0  0  0
    8.4927   -6.0616   26.1623 H   0  0  0  0  0  0  0  0  0  0  0  0
    8.1584   -6.2664   24.4303 H   0  0  0  0  0  0  0  0  0  0  0  0
    6.8584   -5.7632   25.5020 H   0  0  0  0  0  0  0  0  0  0  0  0
  1  2  1  0
  2  3  2  0
  2  4  1  0
  4  5  1  0
  5  6  1  0
  6  7  2  0
  7  8  1  0
  8  9  1  0
  9 10  2  0
 10 11  1  0
 11 12  2  0
 12 13  1  0
 13 14  2  0
 14 15  1  0
 12 16  1  0
 11 17  1  0
 10 18  1  0
  8 19  2  0
 19 20  1  0
 20 21  1  0
 21 22  1  0
 22 23  1  0
 23 24  1  0
 23 25  1  0
 22 26  1  0
 22 27  1  0
 21 28  1  0
  5 29  1  0
  5 30  1  0
  4 31  1  0
 31 32  2  0
 32 33  1  0
 33 34  2  0
 34 35  1  0
 35 36  2  0
 36 37  1  0
 35 38  1  0
 34 39  1  0
 33 40  1  0
 32 41  1  0
  1 42  1  0
  1 43  1  0
  1 44  1  0
 20  6  1  0
 23 21  1  0
 36 31  1  0
 14  9  1  0
M  END
>  <cnnaffinity>  (1) 
-6.00167

>  <filename>  (1) 
CC(=O)N(Cc1nc(-c2cccnc2)nn1C1CC1)c1ccccc1

$$$$
