
     RDKit          3D

 34 36  0  0  0  0  0  0  0  0999 V2000
    4.9173    1.8169   16.9477 H   0  0  0  0  0  0  0  0  0  0  0  0
    5.3888    1.3281   17.7977 C   0  0  0  0  0  0  0  0  0  0  0  0
    6.5599    0.7150   17.5569 N   0  0  0  0  0  0  0  0  0  0  0  0
    7.1467    0.1006   18.5932 C   0  0  0  0  0  0  0  0  0  0  0  0
    8.1026   -0.3822   18.3880 H   0  0  0  0  0  0  0  0  0  0  0  0
    6.6274    0.0638   19.9086 C   0  0  0  0  0  0  0  0  0  0  0  0
    7.3242   -0.6387   21.0213 C   0  0  0  0  0  0  0  0  0  0  0  0
    7.6661   -2.0376   21.0059 C   0  0  0  0  0  0  0  0  0  0  0  0
    7.3881   -2.7136   20.2084 H   0  0  0  0  0  0  0  0  0  0  0  0
    8.2739   -2.5250   22.0476 N   0  0  0  0  0  0  0  0  0  0  0  0
    8.4578   -1.3197   23.1761 S   0  0  0  0  0  0  0  0  0  0  0  0
    7.6618   -0.1042   22.2543 C   0  0  0  0  0  0  0  0  0  0  0  0
    7.3816    1.2247   22.8409 C   0  0  0  0  0  0  0  0  0  0  0  0
    6.9338    1.3470   24.1719 C   0  0  0  0  0  0  0  0  0  0  0  0
    6.7971    0.4583   24.7806 H   0  0  0  0  0  0  0  0  0  0  0  0
    6.6478    2.6030   24.7030 C   0  0  0  0  0  0  0  0  0  0  0  0
    6.2847    2.6933   25.7204 H   0  0  0  0  0  0  0  0  0  0  0  0
    6.7798    3.7528   23.9277 C   0  0  0  0  0  0  0  0  0  0  0  0
    6.5239    4.7312   24.3195 H   0  0  0  0  0  0  0  0  0  0  0  0
    7.2150    3.6350   22.6060 C   0  0  0  0  0  0  0  0  0  0  0  0
    7.3276    4.7710   21.7910 N   0  0  0  0  0  0  0  0  0  0  0  0
    8.0412    4.7615   21.0837 H   0  0  0  0  0  0  0  0  0  0  0  0
    6.5307    5.8854   21.8878 C   0  0  0  0  0  0  0  0  0  0  0  0
    5.5224    5.9277   22.5657 O   0  0  0  0  0  0  0  0  0  0  0  0
    7.0288    7.0557   21.0802 C   0  0  0  0  0  0  0  0  0  0  0  0
    6.6596    6.9745   20.0548 H   0  0  0  0  0  0  0  0  0  0  0  0
    6.6166    7.9687   21.5093 H   0  0  0  0  0  0  0  0  0  0  0  0
    8.1224    7.1004   21.0876 H   0  0  0  0  0  0  0  0  0  0  0  0
    7.5396    2.3868   22.0722 C   0  0  0  0  0  0  0  0  0  0  0  0
    7.8438    2.3127   21.0366 H   0  0  0  0  0  0  0  0  0  0  0  0
    5.3986    0.7068   20.1254 C   0  0  0  0  0  0  0  0  0  0  0  0
    4.9677    0.7141   21.1299 H   0  0  0  0  0  0  0  0  0  0  0  0
    4.7701    1.3447   19.0529 C   0  0  0  0  0  0  0  0  0  0  0  0
    3.8157    1.8451   19.1757 H   0  0  0  0  0  0  0  0  0  0  0  0
  1  2  1  0
  2  3  2  0
  3  4  1  0
  4  5  1  0
  4  6  2  0
  6  7  1  0
  7  8  1  0
  8  9  1  0
  8 10  2  0
 10 11  1  0
 11 12  1  0
 12 13  1  0
 13 14  2  0
 14 15  1  0
 14 16  1  0
 16 17  1  0
 16 18  2  0
 18 19  1  0
 18 20  1  0
 20 21  1  0
 21 22  1  0
 21 23  1  0
 23 24  2  0
 23 25  1  0
 25 26  1  0
 25 27  1  0
 25 28  1  0
 20 29  2  0
 29 30  1  0
  6 31  1  0
 31 32  1  0
 31 33  2  0
 33 34  1  0
 33  2  1  0
 12  7  2  0
 29 13  1  0
M  END
>  <cnnaffinity>  (1) 
-5.12774

>  <filename>  (1) 
CC(=O)Nc1cccc(-c2sncc2-c2cccnc2)c1

$$$$
