
     RDKit          3D

 37 38  0  0  0  0  0  0  0  0999 V2000
    9.1298    0.4162   20.8762 H   0  0  0  0  0  0  0  0  0  0  0  0
    9.6599   -0.3514   20.5973 O   0  0  0  0  0  0  0  0  0  0  0  0
    8.6499   -1.2920   20.8817 C   0  0  2  0  0  0  0  0  0  0  0  0
    8.4948   -1.9651   20.0295 H   0  0  0  0  0  0  0  0  0  0  0  0
    7.4763   -0.4494   21.0508 N   0  0  0  0  0  0  0  0  0  0  0  0
    6.8316   -0.7751   21.7546 H   0  0  0  0  0  0  0  0  0  0  0  0
    6.7619    0.0605   19.9346 C   0  0  0  0  0  0  0  0  0  0  0  0
    7.2309    0.0802   18.5917 C   0  0  0  0  0  0  0  0  0  0  0  0
    8.1831   -0.3948   18.3430 H   0  0  0  0  0  0  0  0  0  0  0  0
    6.5745    0.6586   17.5721 N   0  0  0  0  0  0  0  0  0  0  0  0
    5.4092    1.2687   17.8413 C   0  0  0  0  0  0  0  0  0  0  0  0
    4.9310    1.7818   17.0093 H   0  0  0  0  0  0  0  0  0  0  0  0
    4.8307    1.2716   19.1142 C   0  0  0  0  0  0  0  0  0  0  0  0
    3.8896    1.7891   19.2738 H   0  0  0  0  0  0  0  0  0  0  0  0
    5.5013    0.6434   20.1648 C   0  0  0  0  0  0  0  0  0  0  0  0
    5.0739    0.6251   21.1673 H   0  0  0  0  0  0  0  0  0  0  0  0
    9.0141   -2.1325   22.1145 C   0  0  0  0  0  0  0  0  0  0  0  0
    9.9958   -2.5561   21.8560 H   0  0  0  0  0  0  0  0  0  0  0  0
    8.0471   -3.3006   22.3959 C   0  0  0  0  0  0  0  0  0  0  0  0
    7.0488   -2.9070   22.6272 H   0  0  0  0  0  0  0  0  0  0  0  0
    7.9352   -3.9621   21.5251 H   0  0  0  0  0  0  0  0  0  0  0  0
    8.5113   -4.1325   23.5959 C   0  0  0  0  0  0  0  0  0  0  0  0
    7.7510   -4.8809   23.8248 H   0  0  0  0  0  0  0  0  0  0  0  0
    9.4319   -4.6768   23.3351 H   0  0  0  0  0  0  0  0  0  0  0  0
    8.7305   -3.2861   24.7750 N   0  0  0  0  0  0  0  0  0  0  0  0
    8.4488   -3.6597   26.0700 C   0  0  0  0  0  0  0  0  0  0  0  0
    8.5604   -2.8908   27.0117 O   0  0  0  0  0  0  0  0  0  0  0  0
    8.0000   -5.0860   26.3056 C   0  0  0  0  0  0  0  0  0  0  0  0
    8.0528   -5.2725   27.3784 H   0  0  0  0  0  0  0  0  0  0  0  0
    8.6517   -5.7887   25.7810 H   0  0  0  0  0  0  0  0  0  0  0  0
    6.9688   -5.2199   25.9633 H   0  0  0  0  0  0  0  0  0  0  0  0
    9.6310   -2.1450   24.5646 C   0  0  0  0  0  0  0  0  0  0  0  0
   10.6563   -2.5045   24.3923 H   0  0  0  0  0  0  0  0  0  0  0  0
    9.6464   -1.5532   25.4791 H   0  0  0  0  0  0  0  0  0  0  0  0
    9.1861   -1.2868   23.3919 C   0  0  0  0  0  0  0  0  0  0  0  0
    9.9108   -0.4765   23.2301 H   0  0  0  0  0  0  0  0  0  0  0  0
    8.2337   -0.8076   23.6474 H   0  0  0  0  0  0  0  0  0  0  0  0
  1  2  1  0
  2  3  1  0
  3  4  1  6
  3  5  1  0
  5  6  1  0
  5  7  1  0
  7  8  2  0
  8  9  1  0
  8 10  1  0
 10 11  2  0
 11 12  1  0
 11 13  1  0
 13 14  1  0
 13 15  2  0
 15 16  1  0
  3 17  1  0
 17 18  1  0
 17 19  1  0
 19 20  1  0
 19 21  1  0
 19 22  1  0
 22 23  1  0
 22 24  1  0
 22 25  1  0
 25 26  1  0
 26 27  2  0
 26 28  1  0
 28 29  1  0
 28 30  1  0
 28 31  1  0
 25 32  1  0
 32 33  1  0
 32 34  1  0
 32 35  1  0
 35 36  1  0
 35 37  1  0
 15  7  1  0
 35 17  1  0
M  END
>  <cnnaffinity>  (1) 
-4.64417

>  <filename>  (1) 
CC(=O)N1CCC([C@H](O)Nc2cccnc2)CC1

$$$$
