
     RDKit          3D

 44 45  0  0  0  0  0  0  0  0999 V2000
    6.2776    0.7857   25.9514 C   0  0  0  0  0  0  0  0  0  0  0  0
    6.2110   -0.7310   25.9251 C   0  0  0  0  0  0  0  0  0  0  0  0
    6.5428   -1.4816   26.9845 C   0  0  0  0  0  0  0  0  0  0  0  0
    6.4031   -2.9571   27.0720 C   0  0  0  0  0  0  0  0  0  0  0  0
    5.1632   -3.6112   26.9703 C   0  0  0  0  0  0  0  0  0  0  0  0
    5.0788   -5.0042   27.0942 C   0  0  0  0  0  0  0  0  0  0  0  0
    6.2360   -5.7604   27.3150 C   0  0  0  0  0  0  0  0  0  0  0  0
    7.4770   -5.1175   27.4183 C   0  0  0  0  0  0  0  0  0  0  0  0
    7.5551   -3.7265   27.3044 C   0  0  0  0  0  0  0  0  0  0  0  0
    8.5132   -3.2168   27.3791 H   0  0  0  0  0  0  0  0  0  0  0  0
    8.3826   -5.6915   27.5999 H   0  0  0  0  0  0  0  0  0  0  0  0
    6.1748   -6.8424   27.4224 H   0  0  0  0  0  0  0  0  0  0  0  0
    4.1085   -5.4910   27.0314 H   0  0  0  0  0  0  0  0  0  0  0  0
    4.2683   -3.0130   26.8168 H   0  0  0  0  0  0  0  0  0  0  0  0
    7.0060   -1.0056   27.8547 H   0  0  0  0  0  0  0  0  0  0  0  0
    5.7396   -1.3464   24.6323 C   0  0  0  0  0  0  0  0  0  0  0  0
    6.7679   -2.2416   23.9138 N   0  0  0  0  0  4  0  0  0  0  0  0
    6.1332   -3.0426   22.8064 C   0  0  0  0  0  0  0  0  0  0  0  0
    6.8880   -3.5526   22.1979 H   0  0  0  0  0  0  0  0  0  0  0  0
    5.4295   -3.7973   23.1730 H   0  0  0  0  0  0  0  0  0  0  0  0
    5.5781   -2.3648   22.1450 H   0  0  0  0  0  0  0  0  0  0  0  0
    7.8576   -1.2952   23.2988 C   0  0  0  0  0  0  0  0  0  0  0  0
    7.3805   -0.2320   22.2808 C   0  0  0  0  0  0  0  0  0  0  0  0
    7.0374    0.8729   22.6578 O   0  0  0  0  0  0  0  0  0  0  0  0
    7.3790   -0.6293   20.9613 N   0  0  0  0  0  0  0  0  0  0  0  0
    6.6827    0.0107   19.8898 C   0  0  0  0  0  0  0  0  0  0  0  0
    5.4652    0.6553   20.1390 C   0  0  0  0  0  0  0  0  0  0  0  0
    4.8101    1.3008   19.0851 C   0  0  0  0  0  0  0  0  0  0  0  0
    5.3992    1.2904   17.8166 C   0  0  0  0  0  0  0  0  0  0  0  0
    6.5577    0.6638   17.5534 N   0  0  0  0  0  0  0  0  0  0  0  0
    7.1796    0.0422   18.5642 C   0  0  0  0  0  0  0  0  0  0  0  0
    8.1292   -0.4366   18.3278 H   0  0  0  0  0  0  0  0  0  0  0  0
    4.9321    1.8094   16.9814 H   0  0  0  0  0  0  0  0  0  0  0  0
    3.8775    1.8357   19.2450 H   0  0  0  0  0  0  0  0  0  0  0  0
    5.0594    0.6670   21.1482 H   0  0  0  0  0  0  0  0  0  0  0  0
    7.8945   -1.4700   20.7650 H   0  0  0  0  0  0  0  0  0  0  0  0
    8.2674   -0.7094   24.1156 H   0  0  0  0  0  0  0  0  0  0  0  0
    8.6492   -1.8958   22.8549 H   0  0  0  0  0  0  0  0  0  0  0  0
    7.1276   -2.8559   24.6883 H   0  0  0  0  0  0  0  0  0  0  0  0
    4.8114   -1.9158   24.7573 H   0  0  0  0  0  0  0  0  0  0  0  0
    5.5396   -0.5309   23.9341 H   0  0  0  0  0  0  0  0  0  0  0  0
    7.3080    1.1419   26.0850 H   0  0  0  0  0  0  0  0  0  0  0  0
    5.6641    1.2280   26.7471 H   0  0  0  0  0  0  0  0  0  0  0  0
    5.9294    1.1851   24.9968 H   0  0  0  0  0  0  0  0  0  0  0  0
  1  2  1  0
  2  3  2  3
  3  4  1  0
  4  5  2  0
  5  6  1  0
  6  7  2  0
  7  8  1  0
  8  9  2  0
  9 10  1  0
  8 11  1  0
  7 12  1  0
  6 13  1  0
  5 14  1  0
  3 15  1  0
  2 16  1  0
 16 17  1  0
 17 18  1  0
 18 19  1  0
 18 20  1  0
 18 21  1  0
 17 22  1  0
 22 23  1  0
 23 24  2  0
 23 25  1  0
 25 26  1  0
 26 27  2  0
 27 28  1  0
 28 29  2  0
 29 30  1  0
 30 31  2  0
 31 32  1  0
 29 33  1  0
 28 34  1  0
 27 35  1  0
 25 36  1  0
 22 37  1  0
 22 38  1  0
 17 39  1  0
 16 40  1  0
 16 41  1  0
  1 42  1  0
  1 43  1  0
  1 44  1  0
  9  4  1  0
 31 26  1  0
M  CHG  1  17   1
M  END
>  <cnnaffinity>  (1) 
-5.09063

>  <filename>  (1) 
CC(=Cc1ccccc1)C[NH+](C)CC(=O)Nc1cccnc1

$$$$
