
     RDKit          3D

 46 48  0  0  0  0  0  0  0  0999 V2000
    4.9216    1.9251   16.7821 H   0  0  0  0  0  0  0  0  0  0  0  0
    5.3384    1.3906   17.6324 C   0  0  0  0  0  0  0  0  0  0  0  0
    6.4651    0.6995   17.3988 N   0  0  0  0  0  0  0  0  0  0  0  0
    7.0072    0.0490   18.4373 C   0  0  0  0  0  0  0  0  0  0  0  0
    7.9226   -0.5070   18.2203 H   0  0  0  0  0  0  0  0  0  0  0  0
    6.4831    0.0468   19.7451 C   0  0  0  0  0  0  0  0  0  0  0  0
    7.1598   -0.6952   20.8675 C   0  0  0  0  0  0  0  0  0  0  0  0
    6.3847   -1.0850   21.5413 H   0  0  0  0  0  0  0  0  0  0  0  0
    7.6658   -1.5685   20.4320 H   0  0  0  0  0  0  0  0  0  0  0  0
    8.1938    0.0712   21.7415 C   0  0  1  0  0  0  0  0  0  0  0  0
    8.9087   -0.9521   22.6805 C   0  0  0  0  0  0  0  0  0  0  0  0
    9.5651   -0.3409   23.3330 H   0  0  0  0  0  0  0  0  0  0  0  0
    9.7867   -2.0198   21.9866 C   0  0  0  0  0  0  0  0  0  0  0  0
    9.1479   -2.7853   21.5258 H   0  0  0  0  0  0  0  0  0  0  0  0
   10.3981   -1.5920   21.1848 H   0  0  0  0  0  0  0  0  0  0  0  0
   10.6757   -2.6509   23.0567 C   0  0  0  0  0  0  0  0  0  0  0  0
   11.2251   -1.8066   23.4905 H   0  0  0  0  0  0  0  0  0  0  0  0
   11.4127   -3.3340   22.6436 H   0  0  0  0  0  0  0  0  0  0  0  0
    9.8528   -3.3372   24.0664 N   0  0  0  0  0  0  0  0  0  0  0  0
   10.3062   -4.4951   24.6698 C   0  0  0  0  0  0  0  0  0  0  0  0
   11.4289   -4.9272   24.4926 O   0  0  0  0  0  0  0  0  0  0  0  0
    9.3362   -5.2346   25.5798 C   0  0  0  0  0  0  0  0  0  0  0  0
    8.3203   -5.2958   25.1832 H   0  0  0  0  0  0  0  0  0  0  0  0
    9.2872   -4.7602   26.5650 H   0  0  0  0  0  0  0  0  0  0  0  0
    9.7159   -6.2455   25.7173 H   0  0  0  0  0  0  0  0  0  0  0  0
    8.8179   -2.4909   24.6707 C   0  0  0  0  0  0  0  0  0  0  0  0
    8.1734   -3.1090   25.2952 H   0  0  0  0  0  0  0  0  0  0  0  0
    9.2860   -1.7339   25.3237 H   0  0  0  0  0  0  0  0  0  0  0  0
    7.9803   -1.7527   23.6241 C   0  0  0  0  0  0  0  0  0  0  0  0
    7.3730   -2.4679   23.0503 H   0  0  0  0  0  0  0  0  0  0  0  0
    7.2727   -1.1118   24.1604 H   0  0  0  0  0  0  0  0  0  0  0  0
    9.2136    0.9039   20.9127 C   0  0  0  0  0  0  0  0  0  0  0  0
    8.6820    1.4475   20.1224 H   0  0  0  0  0  0  0  0  0  0  0  0
    9.9926    0.3087   20.4330 H   0  0  0  0  0  0  0  0  0  0  0  0
    9.8050    1.8930   21.8098 N   0  0  0  0  0  0  0  0  0  0  0  0
   10.6033    1.4836   22.2826 H   0  0  0  0  0  0  0  0  0  0  0  0
    8.7776    2.2244   22.8120 C   0  0  0  0  0  0  0  0  0  0  0  0
    8.4531    3.2676   22.6968 H   0  0  0  0  0  0  0  0  0  0  0  0
    9.1934    2.1324   23.8247 H   0  0  0  0  0  0  0  0  0  0  0  0
    7.6042    1.2319   22.6029 C   0  0  0  0  0  0  0  0  0  0  0  0
    7.2087    0.8839   23.5620 H   0  0  0  0  0  0  0  0  0  0  0  0
    6.7744    1.7263   22.0847 H   0  0  0  0  0  0  0  0  0  0  0  0
    5.2837    0.7452   19.9482 C   0  0  0  0  0  0  0  0  0  0  0  0
    4.8124    0.7425   20.9339 H   0  0  0  0  0  0  0  0  0  0  0  0
    4.7059    1.4318   18.8786 C   0  0  0  0  0  0  0  0  0  0  0  0
    3.7941    2.0044   19.0041 H   0  0  0  0  0  0  0  0  0  0  0  0
  1  2  1  0
  2  3  2  0
  3  4  1  0
  4  5  1  0
  4  6  2  0
  6  7  1  0
  7  8  1  0
  7  9  1  0
 10  7  1  6
 10 11  1  0
 11 12  1  0
 11 13  1  0
 13 14  1  0
 13 15  1  0
 13 16  1  0
 16 17  1  0
 16 18  1  0
 16 19  1  0
 19 20  1  0
 20 21  2  0
 20 22  1  0
 22 23  1  0
 22 24  1  0
 22 25  1  0
 19 26  1  0
 26 27  1  0
 26 28  1  0
 26 29  1  0
 29 30  1  0
 29 31  1  0
 10 32  1  0
 32 33  1  0
 32 34  1  0
 32 35  1  0
 35 36  1  0
 35 37  1  0
 37 38  1  0
 37 39  1  0
 37 40  1  0
 40 41  1  0
 40 42  1  0
  6 43  1  0
 43 44  1  0
 43 45  2  0
 45 46  1  0
 45  2  1  0
 40 10  1  0
 29 11  1  0
M  END
>  <cnnaffinity>  (1) 
-5.53541

>  <filename>  (1) 
CC(=O)N1CCC([C@@]2(Cc3cccnc3)CCNC2)CC1

$$$$
