
     RDKit          3D

 29 30  0  0  0  0  0  0  0  0999 V2000
    7.6678   -2.2012   22.3596 H   0  0  0  0  0  0  0  0  0  0  0  0
    7.0076   -1.8050   21.5851 C   0  0  0  0  0  0  0  0  0  0  0  0
    7.3975   -0.6862   20.9612 C   0  0  0  0  0  0  0  0  0  0  0  0
    6.6248   -0.0314   19.8643 C   0  0  0  0  0  0  0  0  0  0  0  0
    7.1549    0.0522   18.5607 C   0  0  0  0  0  0  0  0  0  0  0  0
    8.1036   -0.4359   18.3405 H   0  0  0  0  0  0  0  0  0  0  0  0
    6.5657    0.6872   17.5388 N   0  0  0  0  0  0  0  0  0  0  0  0
    5.4030    1.3052   17.8034 C   0  0  0  0  0  0  0  0  0  0  0  0
    4.9462    1.8474   16.9779 H   0  0  0  0  0  0  0  0  0  0  0  0
    4.7820    1.2878   19.0580 C   0  0  0  0  0  0  0  0  0  0  0  0
    3.8570    1.8333   19.2074 H   0  0  0  0  0  0  0  0  0  0  0  0
    5.3906    0.5937   20.1061 C   0  0  0  0  0  0  0  0  0  0  0  0
    4.9548    0.5630   21.1088 H   0  0  0  0  0  0  0  0  0  0  0  0
    8.7369   -0.1159   21.3622 C   0  0  0  0  0  0  0  0  0  0  0  0
    8.8680   -0.1610   22.4528 H   0  0  0  0  0  0  0  0  0  0  0  0
    8.8443    0.9287   21.0591 H   0  0  0  0  0  0  0  0  0  0  0  0
    9.5819   -0.6700   20.9227 H   0  0  0  0  0  0  0  0  0  0  0  0
    5.8706   -2.5432   21.3206 N   0  0  0  0  0  0  0  0  0  0  0  0
    5.0190   -2.0807   21.0383 H   0  0  0  0  0  0  0  0  0  0  0  0
    5.4902   -3.7368   21.8806 C   0  0  0  0  0  0  0  0  0  0  0  0
    4.1607   -3.8509   21.8875 N   0  0  0  0  0  0  0  0  0  0  0  0
    3.6498   -5.0087   22.3190 C   0  0  0  0  0  0  0  0  0  0  0  0
    2.5623   -5.0795   22.3364 H   0  0  0  0  0  0  0  0  0  0  0  0
    4.4222   -6.0987   22.7142 C   0  0  0  0  0  0  0  0  0  0  0  0
    3.9539   -7.0357   22.9803 H   0  0  0  0  0  0  0  0  0  0  0  0
    5.8109   -5.9567   22.7196 C   0  0  0  0  0  0  0  0  0  0  0  0
    6.4535   -6.7723   23.0454 H   0  0  0  0  0  0  0  0  0  0  0  0
    6.3612   -4.7472   22.3177 C   0  0  0  0  0  0  0  0  0  0  0  0
    7.4269   -4.5805   22.2930 H   0  0  0  0  0  0  0  0  0  0  0  0
  1  2  1  0
  2  3  2  3
  3  4  1  0
  4  5  2  0
  5  6  1  0
  5  7  1  0
  7  8  2  0
  8  9  1  0
  8 10  1  0
 10 11  1  0
 10 12  2  0
 12 13  1  0
  3 14  1  0
 14 15  1  0
 14 16  1  0
 14 17  1  0
  2 18  1  0
 18 19  1  0
 18 20  1  0
 20 21  2  0
 21 22  1  0
 22 23  1  0
 22 24  2  0
 24 25  1  0
 24 26  1  0
 26 27  1  0
 26 28  2  0
 28 29  1  0
 12  4  1  0
 28 20  1  0
M  END
>  <cnnaffinity>  (1) 
-4.79403

>  <filename>  (1) 
CC(=CNc1ccccn1)c1cccnc1

$$$$
