
     RDKit          3D

 40 41  0  0  0  0  0  0  0  0999 V2000
    9.7217   -2.4248   22.2763 C   0  0  0  0  0  0  0  0  0  0  0  0
    8.3703   -2.6729   22.8825 C   0  0  0  0  0  0  0  0  0  0  0  0
    8.1357   -2.7892   24.2630 C   0  0  0  0  0  0  0  0  0  0  0  0
    8.7418   -2.1017   25.2852 C   0  0  0  0  0  0  0  0  0  0  0  0
    8.5643   -2.3842   27.0488 C   0  0  0  0  0  0  0  0  0  0  0  0
    8.2492   -2.4428   27.1433 C   0  0  0  0  0  0  0  0  0  0  0  0
    9.1889   -0.9668   27.6184 C   0  0  0  0  0  0  0  0  0  0  0  0
    9.7491   -0.2626   26.5216 C   0  0  0  0  0  0  0  0  0  0  0  0
    9.5072   -0.9318   25.2750 C   0  0  0  0  0  0  0  0  0  0  0  0
    9.9081   -0.4951   24.3529 H   0  0  0  0  0  0  0  0  0  0  0  0
   10.3060    0.6685   26.5793 H   0  0  0  0  0  0  0  0  0  0  0  0
    9.7941   -1.0307   28.5442 H   0  0  0  0  0  0  0  0  0  0  0  0
    8.6449   -3.5299   27.6074 H   0  0  0  0  0  0  0  0  0  0  0  0
    7.0729   -2.3264   27.2427 H   0  0  0  0  0  0  0  0  0  0  0  0
    7.2971   -3.4509   24.5163 H   0  0  0  0  0  0  0  0  0  0  0  0
    7.2024   -2.9170   21.9484 C   0  0  0  0  0  0  0  0  0  0  0  0
    6.4940   -1.6347   21.6233 N   0  0  0  0  0  4  0  0  0  0  0  0
    7.3465   -0.5861   20.9121 C   0  0  2  0  0  0  0  0  0  0  0  0
    7.8453    0.4765   21.8832 C   0  0  0  0  0  0  0  0  0  0  0  0
    8.5363    1.1413   21.3605 H   0  0  0  0  0  0  0  0  0  0  0  0
    8.3661    0.0232   22.7285 H   0  0  0  0  0  0  0  0  0  0  0  0
    7.0160    1.0811   22.2705 H   0  0  0  0  0  0  0  0  0  0  0  0
    6.5455    0.0091   19.7788 C   0  0  0  0  0  0  0  0  0  0  0  0
    5.3719    0.7617   19.9536 C   0  0  0  0  0  0  0  0  0  0  0  0
    4.8187    1.4073   18.8460 C   0  0  0  0  0  0  0  0  0  0  0  0
    5.4435    1.2705   17.6014 C   0  0  0  0  0  0  0  0  0  0  0  0
    6.5375    0.5231   17.4056 N   0  0  0  0  0  0  0  0  0  0  0  0
    7.0580   -0.0831   18.4789 C   0  0  0  0  0  0  0  0  0  0  0  0
    7.9493   -0.6823   18.2978 H   0  0  0  0  0  0  0  0  0  0  0  0
    5.0441    1.7798   16.7241 H   0  0  0  0  0  0  0  0  0  0  0  0
    3.9341    2.0294   18.9365 H   0  0  0  0  0  0  0  0  0  0  0  0
    4.9012    0.8716   20.9359 H   0  0  0  0  0  0  0  0  0  0  0  0
    8.2015   -1.1189   20.4905 H   0  0  0  0  0  0  0  0  0  0  0  0
    6.2205   -1.1859   22.5350 H   0  0  0  0  0  0  0  0  0  0  0  0
    5.6592   -1.7270   21.0142 H   0  0  0  0  0  0  0  0  0  0  0  0
    7.5810   -3.3662   21.0196 H   0  0  0  0  0  0  0  0  0  0  0  0
    6.4835   -3.6096   22.3964 H   0  0  0  0  0  0  0  0  0  0  0  0
   10.1168   -1.4210   22.4777 H   0  0  0  0  0  0  0  0  0  0  0  0
   10.4901   -3.1319   22.6313 H   0  0  0  0  0  0  0  0  0  0  0  0
    9.6904   -2.5175   21.1816 H   0  0  0  0  0  0  0  0  0  0  0  0
  1  2  1  0
  2  3  2  3
  3  4  1  0
  4  5  2  0
  5  6  1  0
  6  7  2  0
  7  8  1  0
  8  9  2  0
  9 10  1  0
  8 11  1  0
  7 12  1  0
  6 13  1  0
  5 14  1  0
  3 15  1  0
  2 16  1  0
 16 17  1  0
 17 18  1  0
 18 19  1  0
 19 20  1  0
 19 21  1  0
 19 22  1  0
 18 23  1  0
 23 24  2  0
 24 25  1  0
 25 26  2  0
 26 27  1  0
 27 28  2  0
 28 29  1  0
 26 30  1  0
 25 31  1  0
 24 32  1  0
 18 33  1  6
 17 34  1  0
 17 35  1  0
 16 36  1  0
 16 37  1  0
  1 38  1  0
  1 39  1  0
  1 40  1  0
  9  4  1  0
 28 23  1  0
M  CHG  1  17   1
M  END
>  <cnnaffinity>  (1) 
-4.74788

>  <filename>  (1) 
CC(=Cc1ccccc1)C[NH2+][C@H](C)c1cccnc1

$$$$
