
     RDKit          3D

 30 31  0  0  0  0  0  0  0  0999 V2000
    4.9696    1.7958   16.9932 H   0  0  0  0  0  0  0  0  0  0  0  0
    5.4290    1.3185   17.8605 C   0  0  0  0  0  0  0  0  0  0  0  0
    6.6070    0.7100   17.6515 N   0  0  0  0  0  0  0  0  0  0  0  0
    7.1866    0.1021   18.6935 C   0  0  0  0  0  0  0  0  0  0  0  0
    8.1446   -0.3812   18.5104 H   0  0  0  0  0  0  0  0  0  0  0  0
    6.6359    0.0569   19.9900 C   0  0  0  0  0  0  0  0  0  0  0  0
    7.3051   -0.6446   21.0417 N   0  0  0  0  0  0  0  0  0  0  0  0
    7.6556   -1.9762   21.0628 C   0  0  0  0  0  0  0  0  0  0  0  0
    7.4119   -2.6177   20.2272 H   0  0  0  0  0  0  0  0  0  0  0  0
    8.1979   -2.3336   22.1962 N   0  0  0  0  0  0  0  0  0  0  0  0
    8.1754   -1.2155   22.9843 C   0  0  0  0  0  0  0  0  0  0  0  0
    8.5436   -1.2343   24.0052 H   0  0  0  0  0  0  0  0  0  0  0  0
    7.6032   -0.1620   22.3169 C   0  0  0  0  0  0  0  0  0  0  0  0
    7.3114    1.1796   22.8437 C   0  0  0  0  0  0  0  0  0  0  0  0
    6.7476    1.3983   23.9811 N   0  0  0  0  0  0  0  0  0  0  0  0
    6.1602    0.3604   24.6975 N   0  0  0  0  0  0  0  0  0  0  0  0
    5.9886   -0.5542   24.2949 H   0  0  0  0  0  0  0  0  0  0  0  0
    5.5439    0.4716   25.9175 C   0  0  0  0  0  0  0  0  0  0  0  0
    4.8403   -0.8641   26.6159 S   0  0  0  0  0  0  0  0  0  0  0  0
    5.5588    1.6815   26.4649 N   0  0  0  0  0  0  0  0  0  0  0  0
    6.0185    2.4152   25.9441 H   0  0  0  0  0  0  0  0  0  0  0  0
    5.1659    1.7816   27.3789 H   0  0  0  0  0  0  0  0  0  0  0  0
    7.7248    2.4034   22.0487 C   0  0  0  0  0  0  0  0  0  0  0  0
    8.1791    3.1632   22.6925 H   0  0  0  0  0  0  0  0  0  0  0  0
    6.8454    2.8438   21.5634 H   0  0  0  0  0  0  0  0  0  0  0  0
    8.4321    2.1168   21.2677 H   0  0  0  0  0  0  0  0  0  0  0  0
    5.4098    0.7038   20.2016 C   0  0  0  0  0  0  0  0  0  0  0  0
    4.9464    0.7040   21.1917 H   0  0  0  0  0  0  0  0  0  0  0  0
    4.8028    1.3364   19.1105 C   0  0  0  0  0  0  0  0  0  0  0  0
    3.8475    1.8341   19.2163 H   0  0  0  0  0  0  0  0  0  0  0  0
  1  2  1  0
  2  3  2  0
  3  4  1  0
  4  5  1  0
  4  6  2  0
  6  7  1  0
  7  8  1  0
  8  9  1  0
  8 10  2  0
 10 11  1  0
 11 12  1  0
 11 13  2  0
 13 14  1  0
 14 15  2  3
 15 16  1  0
 16 17  1  0
 16 18  1  0
 18 19  2  0
 18 20  1  0
 20 21  1  0
 20 22  1  0
 14 23  1  0
 23 24  1  0
 23 25  1  0
 23 26  1  0
  6 27  1  0
 27 28  1  0
 27 29  2  0
 29 30  1  0
 29  2  1  0
 13  7  1  0
M  END
>  <cnnaffinity>  (1) 
-4.81726

>  <filename>  (1) 
CC(=NNC(N)=S)c1cncn1-c1cccnc1

$$$$
