
     RDKit          3D

 54 57  0  0  0  0  0  0  0  0999 V2000
   14.1722    7.4281   22.1308 C   0  0  0  0  0  0  0  0  0  0  0  0
   14.0163    5.9620   21.8459 C   0  0  0  0  0  0  0  0  0  0  0  0
   14.8000    5.3824   21.1216 O   0  0  0  0  0  0  0  0  0  0  0  0
   12.9725    5.3550   22.4828 N   0  0  0  0  0  0  0  0  0  0  0  0
   12.7714    3.9663   22.5619 C   0  0  0  0  0  0  0  0  0  0  0  0
   13.8481    3.1048   22.7524 C   0  0  0  0  0  0  0  0  0  0  0  0
   13.6142    1.7434   22.9438 C   0  0  0  0  0  0  0  0  0  0  0  0
   12.3169    1.2351   22.8659 C   0  0  0  0  0  0  0  0  0  0  0  0
   11.2335    2.0903   22.6071 C   0  0  0  0  0  0  0  0  0  0  0  0
    9.8871    1.5128   22.4067 C   0  0  0  0  0  0  0  0  0  0  0  0
    9.6160    0.4806   21.6225 N   0  0  0  0  0  0  0  0  0  0  0  0
    8.2656    0.4357   21.6216 C   0  0  0  0  0  0  0  0  0  0  0  0
    7.4693   -0.5804   20.8379 C   0  0  0  0  0  0  0  0  0  0  0  0
    6.6641   -0.0057   19.6742 C   0  0  0  0  0  0  0  0  0  0  0  0
    5.4459    0.6513   19.8946 C   0  0  0  0  0  0  0  0  0  0  0  0
    4.8113    1.2833   18.8208 C   0  0  0  0  0  0  0  0  0  0  0  0
    5.4069    1.2153   17.5591 C   0  0  0  0  0  0  0  0  0  0  0  0
    6.5433    0.5486   17.3120 N   0  0  0  0  0  0  0  0  0  0  0  0
    7.1397   -0.0493   18.3506 C   0  0  0  0  0  0  0  0  0  0  0  0
    8.0605   -0.5887   18.1258 H   0  0  0  0  0  0  0  0  0  0  0  0
    4.9590    1.7195   16.7056 H   0  0  0  0  0  0  0  0  0  0  0  0
    3.8826    1.8283   18.9448 H   0  0  0  0  0  0  0  0  0  0  0  0
    5.0065    0.6751   20.8940 H   0  0  0  0  0  0  0  0  0  0  0  0
    6.7874   -1.0624   21.5476 H   0  0  0  0  0  0  0  0  0  0  0  0
    8.1621   -1.3571   20.4956 H   0  0  0  0  0  0  0  0  0  0  0  0
    7.6866    1.3496   22.3764 N   0  0  0  0  0  0  0  0  0  0  0  0
    8.7331    2.0237   22.9187 N   0  0  0  0  0  0  0  0  0  0  0  0
    8.4902    3.1070   23.8790 C   0  0  0  0  0  0  0  0  0  0  0  0
    9.5655    3.3461   24.9591 C   0  0  0  0  0  0  0  0  0  0  0  0
    8.7503    3.7954   26.1870 C   0  0  0  0  0  0  0  0  0  0  0  0
    7.4152    3.9433   25.7384 O   0  0  0  0  0  0  0  0  0  0  0  0
    7.1768    2.9835   24.7043 C   0  0  0  0  0  0  0  0  0  0  0  0
    5.9549    3.4489   23.9287 C   0  0  0  0  0  0  0  0  0  0  0  0
    5.7349    2.7448   23.1219 H   0  0  0  0  0  0  0  0  0  0  0  0
    6.1205    4.4384   23.4907 H   0  0  0  0  0  0  0  0  0  0  0  0
    5.0931    3.5027   24.5996 H   0  0  0  0  0  0  0  0  0  0  0  0
    6.9272    1.6096   25.3406 C   0  0  0  0  0  0  0  0  0  0  0  0
    7.8286    1.2024   25.8120 H   0  0  0  0  0  0  0  0  0  0  0  0
    6.5825    0.8952   24.5930 H   0  0  0  0  0  0  0  0  0  0  0  0
    6.1601    1.7246   26.1146 H   0  0  0  0  0  0  0  0  0  0  0  0
    9.0685    4.7598   26.5954 H   0  0  0  0  0  0  0  0  0  0  0  0
    8.8015    3.0560   26.9992 H   0  0  0  0  0  0  0  0  0  0  0  0
   10.2731    4.1217   24.6529 H   0  0  0  0  0  0  0  0  0  0  0  0
   10.1557    2.4503   25.1678 H   0  0  0  0  0  0  0  0  0  0  0  0
    8.3816    4.0395   23.3128 H   0  0  0  0  0  0  0  0  0  0  0  0
   11.4772    3.4655   22.4660 C   0  0  0  0  0  0  0  0  0  0  0  0
   10.6644    4.1603   22.2762 H   0  0  0  0  0  0  0  0  0  0  0  0
   12.1416    0.1696   22.9579 H   0  0  0  0  0  0  0  0  0  0  0  0
   14.4502    1.0765   23.1244 H   0  0  0  0  0  0  0  0  0  0  0  0
   14.8421    3.5271   22.6789 H   0  0  0  0  0  0  0  0  0  0  0  0
   12.2377    5.9495   22.8119 H   0  0  0  0  0  0  0  0  0  0  0  0
   13.5168    7.7995   22.9221 H   0  0  0  0  0  0  0  0  0  0  0  0
   15.2139    7.5409   22.4290 H   0  0  0  0  0  0  0  0  0  0  0  0
   14.0179    7.9777   21.1992 H   0  0  0  0  0  0  0  0  0  0  0  0
  1  2  1  0
  2  3  2  0
  2  4  1  0
  4  5  1  0
  5  6  2  0
  6  7  1  0
  7  8  2  0
  8  9  1  0
  9 10  1  0
 10 11  2  0
 11 12  1  0
 12 13  1  0
 13 14  1  0
 14 15  2  0
 15 16  1  0
 16 17  2  0
 17 18  1  0
 18 19  2  0
 19 20  1  0
 17 21  1  0
 16 22  1  0
 15 23  1  0
 13 24  1  0
 13 25  1  0
 12 26  2  0
 26 27  1  0
 27 28  1  0
 28 29  1  0
 29 30  1  0
 30 31  1  0
 31 32  1  0
 32 33  1  0
 33 34  1  0
 33 35  1  0
 33 36  1  0
 32 37  1  0
 37 38  1  0
 37 39  1  0
 37 40  1  0
 30 41  1  0
 30 42  1  0
 29 43  1  0
 29 44  1  0
 28 45  1  0
  9 46  2  0
 46 47  1  0
  8 48  1  0
  7 49  1  0
  6 50  1  0
  4 51  1  0
  1 52  1  0
  1 53  1  0
  1 54  1  0
 46  5  1  0
 27 10  1  0
 32 28  1  0
 19 14  1  0
M  END
>  <cnnaffinity>  (1) 
-6.24155

>  <filename>  (1) 
CC(=O)Nc1cccc(-c2nc(Cc3cccnc3)nn2C2CCOC2(C)C)c1

$$$$
