
     RDKit          3D

 54 56  0  0  0  0  0  0  0  0999 V2000
    8.7217    8.0854   27.8771 C   0  0  0  0  0  0  0  0  0  0  0  0
    8.4326    7.1541   26.7248 C   0  0  0  0  0  0  0  0  0  0  0  0
    7.7987    7.4838   25.7446 O   0  0  0  0  0  0  0  0  0  0  0  0
    8.9455    5.8857   26.8878 N   0  0  0  0  0  0  0  0  0  0  0  0
    8.9743    4.8611   25.9161 C   0  0  0  0  0  0  0  0  0  0  0  0
    8.8163    3.5297   26.3137 C   0  0  0  0  0  0  0  0  0  0  0  0
    8.8838    2.5266   25.3464 C   0  0  0  0  0  0  0  0  0  0  0  0
    9.0924    2.8696   23.9979 C   0  0  0  0  0  0  0  0  0  0  0  0
    9.0799    1.7959   22.9524 C   0  0  0  0  0  0  0  0  0  0  0  0
    8.0384    0.9960   22.7398 N   0  0  0  0  0  0  0  0  0  0  0  0
    8.4090    0.2800   21.6584 C   0  0  0  0  0  0  0  0  0  0  0  0
    7.4709   -0.6708   20.9705 C   0  0  0  0  0  0  0  0  0  0  0  0
    6.6773   -0.0250   19.8409 C   0  0  0  0  0  0  0  0  0  0  0  0
    5.4679    0.6314   20.1060 C   0  0  0  0  0  0  0  0  0  0  0  0
    4.8188    1.3019   19.0679 C   0  0  0  0  0  0  0  0  0  0  0  0
    5.4002    1.2992   17.7974 C   0  0  0  0  0  0  0  0  0  0  0  0
    6.5471    0.6619   17.5138 N   0  0  0  0  0  0  0  0  0  0  0  0
    7.1577    0.0236   18.5199 C   0  0  0  0  0  0  0  0  0  0  0  0
    8.0923   -0.4783   18.2632 H   0  0  0  0  0  0  0  0  0  0  0  0
    4.9242    1.8265   16.9716 H   0  0  0  0  0  0  0  0  0  0  0  0
    3.8885    1.8335   19.2332 H   0  0  0  0  0  0  0  0  0  0  0  0
    5.0443    0.6230   21.1130 H   0  0  0  0  0  0  0  0  0  0  0  0
    8.0586   -1.5130   20.5964 H   0  0  0  0  0  0  0  0  0  0  0  0
    6.7825   -1.0535   21.7329 H   0  0  0  0  0  0  0  0  0  0  0  0
    9.6372    0.5221   21.2397 N   0  0  0  0  0  0  0  0  0  0  0  0
   10.0826    1.4927   22.0839 N   0  0  0  0  0  0  0  0  0  0  0  0
   11.5297    1.8525   22.0590 C   0  0  0  0  0  0  0  0  0  0  0  0
   11.7552    3.3554   22.2587 C   0  0  0  0  0  0  0  0  0  0  0  0
   12.5728    3.7171   21.6247 H   0  0  0  0  0  0  0  0  0  0  0  0
   10.8486    3.9127   22.0420 H   0  0  0  0  0  0  0  0  0  0  0  0
   11.9892    3.5843   23.3047 H   0  0  0  0  0  0  0  0  0  0  0  0
   12.3950    0.9452   23.0320 C   0  0  0  0  0  0  0  0  0  0  0  0
   12.2986   -0.5197   22.5597 C   0  0  0  0  0  0  0  0  0  0  0  0
   11.3179   -0.9659   22.7521 H   0  0  0  0  0  0  0  0  0  0  0  0
   12.4692   -0.5873   21.4794 H   0  0  0  0  0  0  0  0  0  0  0  0
   13.0797   -1.1196   23.0271 H   0  0  0  0  0  0  0  0  0  0  0  0
   13.8911    1.3396   22.9699 C   0  0  0  0  0  0  0  0  0  0  0  0
   14.0606    2.4193   22.9564 H   0  0  0  0  0  0  0  0  0  0  0  0
   14.4034    0.9381   23.8481 H   0  0  0  0  0  0  0  0  0  0  0  0
   14.4038    0.9133   22.1007 H   0  0  0  0  0  0  0  0  0  0  0  0
   11.9190    1.0774   24.4988 C   0  0  0  0  0  0  0  0  0  0  0  0
   11.8840    2.1201   24.8361 H   0  0  0  0  0  0  0  0  0  0  0  0
   12.5996    0.5562   25.1815 H   0  0  0  0  0  0  0  0  0  0  0  0
   10.9242    0.6476   24.6524 H   0  0  0  0  0  0  0  0  0  0  0  0
   11.8195    1.5876   21.0350 H   0  0  0  0  0  0  0  0  0  0  0  0
    9.2431    4.1577   23.6178 N   0  0  0  0  0  0  0  0  0  0  0  0
    9.1674    5.1174   24.5402 C   0  0  0  0  0  0  0  0  0  0  0  0
    9.2816    6.1371   24.1989 H   0  0  0  0  0  0  0  0  0  0  0  0
    8.7717    1.4815   25.6206 H   0  0  0  0  0  0  0  0  0  0  0  0
    8.5880    3.2925   27.3521 H   0  0  0  0  0  0  0  0  0  0  0  0
    9.3056    5.6516   27.7980 H   0  0  0  0  0  0  0  0  0  0  0  0
    9.7404    7.9615   28.2537 H   0  0  0  0  0  0  0  0  0  0  0  0
    8.5857    9.1100   27.5335 H   0  0  0  0  0  0  0  0  0  0  0  0
    8.0127    7.9009   28.6884 H   0  0  0  0  0  0  0  0  0  0  0  0
  1  2  1  0
  2  3  2  0
  2  4  1  0
  4  5  1  0
  5  6  2  0
  6  7  1  0
  7  8  2  0
  8  9  1  0
  9 10  2  0
 10 11  1  0
 11 12  1  0
 12 13  1  0
 13 14  2  0
 14 15  1  0
 15 16  2  0
 16 17  1  0
 17 18  2  0
 18 19  1  0
 16 20  1  0
 15 21  1  0
 14 22  1  0
 12 23  1  0
 12 24  1  0
 11 25  2  0
 25 26  1  0
 26 27  1  0
 27 28  1  0
 28 29  1  0
 28 30  1  0
 28 31  1  0
 27 32  1  0
 32 33  1  0
 33 34  1  0
 33 35  1  0
 33 36  1  0
 32 37  1  0
 37 38  1  0
 37 39  1  0
 37 40  1  0
 32 41  1  0
 41 42  1  0
 41 43  1  0
 41 44  1  0
 27 45  1  0
  8 46  1  0
 46 47  2  0
 47 48  1  0
  7 49  1  0
  6 50  1  0
  4 51  1  0
  1 52  1  0
  1 53  1  0
  1 54  1  0
 47  5  1  0
 26  9  1  0
 18 13  1  0
M  END
>  <cnnaffinity>  (1) 
-5.86219

>  <filename>  (1) 
CC(=O)Nc1ccc(-c2nc(Cc3cccnc3)nn2C(C)C(C)(C)C)nc1

$$$$
