
     RDKit          3D

 39 41  0  0  0  0  0  0  0  0999 V2000
    4.5638    2.2491   24.7568 C   0  0  0  0  0  0  0  0  0  0  0  0
    5.6719    2.5094   23.7356 C   0  0  0  0  0  0  0  0  0  0  0  0
    6.0231    1.1478   23.2211 N   0  0  0  0  0  4  0  0  0  0  0  0
    7.3040    1.1202   22.4953 C   0  0  0  0  0  0  0  0  0  0  0  0
    7.5759   -0.2961   22.1238 C   0  0  0  0  0  0  0  0  0  0  0  0
    8.3774   -1.2065   22.7462 C   0  0  0  0  0  0  0  0  0  0  0  0
    8.4639   -2.3261   21.8387 C   0  0  0  0  0  0  0  0  0  0  0  0
    7.7761   -2.0866   20.7498 N   0  0  0  0  0  0  0  0  0  0  0  0
    7.2073   -0.8560   20.9132 N   0  0  0  0  0  0  0  0  0  0  0  0
    6.5817   -0.1359   19.8970 C   0  0  0  0  0  0  0  0  0  0  0  0
    5.5245    0.7451   20.1502 C   0  0  0  0  0  0  0  0  0  0  0  0
    5.0002    1.4608   19.0769 C   0  0  0  0  0  0  0  0  0  0  0  0
    5.5283    1.2861   17.7933 C   0  0  0  0  0  0  0  0  0  0  0  0
    6.5517    0.4482   17.5493 N   0  0  0  0  0  0  0  0  0  0  0  0
    7.0618   -0.2450   18.5845 C   0  0  0  0  0  0  0  0  0  0  0  0
    7.9134   -0.8881   18.3963 H   0  0  0  0  0  0  0  0  0  0  0  0
    5.0895    1.8467   16.9731 H   0  0  0  0  0  0  0  0  0  0  0  0
    4.1875    2.1634   19.2197 H   0  0  0  0  0  0  0  0  0  0  0  0
    5.1114    0.8715   21.1490 H   0  0  0  0  0  0  0  0  0  0  0  0
    9.0593   -3.2182   22.0119 H   0  0  0  0  0  0  0  0  0  0  0  0
    8.8869   -1.1098   23.6977 H   0  0  0  0  0  0  0  0  0  0  0  0
    7.2792    1.7352   21.5861 H   0  0  0  0  0  0  0  0  0  0  0  0
    8.1240    1.5028   23.1116 H   0  0  0  0  0  0  0  0  0  0  0  0
    5.2890    0.8087   22.6012 H   0  0  0  0  0  0  0  0  0  0  0  0
    6.0808    0.4912   23.9997 H   0  0  0  0  0  0  0  0  0  0  0  0
    6.8113    3.3324   24.3740 C   0  0  0  0  0  0  0  0  0  0  0  0
    7.3462    2.9340   25.6073 C   0  0  0  0  0  0  0  0  0  0  0  0
    8.3715    3.6531   26.2056 C   0  0  0  0  0  0  0  0  0  0  0  0
    8.8368    4.7869   25.5462 C   0  0  0  0  0  0  0  0  0  0  0  0
    8.2914    5.1387   24.3110 C   0  0  0  0  0  0  0  0  0  0  0  0
    9.0140    6.6633   23.4123 Br  0  0  0  0  0  0  0  0  0  0  0  0
    7.2927    4.4314   23.7467 N   0  0  0  0  0  0  0  0  0  0  0  0
    9.6203    5.4071   25.9633 H   0  0  0  0  0  0  0  0  0  0  0  0
    8.7834    3.3297   27.1572 H   0  0  0  0  0  0  0  0  0  0  0  0
    6.9471    2.0564   26.1014 H   0  0  0  0  0  0  0  0  0  0  0  0
    5.2748    3.1271   22.9213 H   0  0  0  0  0  0  0  0  0  0  0  0
    4.9603    1.6974   25.6119 H   0  0  0  0  0  0  0  0  0  0  0  0
    4.1425    3.1879   25.1229 H   0  0  0  0  0  0  0  0  0  0  0  0
    3.7561    1.6626   24.3174 H   0  0  0  0  0  0  0  0  0  0  0  0
  1  2  1  0
  2  3  1  0
  3  4  1  0
  4  5  1  0
  5  6  2  0
  6  7  1  0
  7  8  2  0
  8  9  1  0
  9 10  1  0
 10 11  2  0
 11 12  1  0
 12 13  2  0
 13 14  1  0
 14 15  2  0
 15 16  1  0
 13 17  1  0
 12 18  1  0
 11 19  1  0
  7 20  1  0
  6 21  1  0
  4 22  1  0
  4 23  1  0
  3 24  1  0
  3 25  1  0
  2 26  1  0
 26 27  2  0
 27 28  1  0
 28 29  2  0
 29 30  1  0
 30 31  1  0
 30 32  2  0
 29 33  1  0
 28 34  1  0
 27 35  1  0
  2 36  1  0
  1 37  1  0
  1 38  1  0
  1 39  1  0
  9  5  1  0
 15 10  1  0
 32 26  1  0
M  CHG  1   3   1
M  END
>  <cnnaffinity>  (1) 
-5.69708

>  <filename>  (1) 
CC([NH2+]Cc1ccnn1-c1cccnc1)c1cccc(Br)n1

$$$$
