
     RDKit          3D

 39 41  0  0  0  0  0  0  0  0999 V2000
    7.0610   -1.9699   21.0894 C   0  0  0  0  0  0  0  0  0  0  0  0
    6.9968   -0.4546   21.2235 C   0  0  0  0  0  0  0  0  0  0  0  0
    8.3559    0.2163   21.3956 N   0  0  0  0  0  4  0  0  0  0  0  0
    8.9540    0.3419   22.7720 C   0  0  0  0  0  0  0  0  0  0  0  0
    8.3787    1.5883   23.4510 C   0  0  0  0  0  0  0  0  0  0  0  0
    7.2826    1.5727   23.4919 H   0  0  0  0  0  0  0  0  0  0  0  0
    8.7603    1.6807   24.4715 H   0  0  0  0  0  0  0  0  0  0  0  0
    8.6797    2.4819   22.8913 H   0  0  0  0  0  0  0  0  0  0  0  0
    8.8391   -0.9414   23.5863 C   0  0  0  0  0  0  0  0  0  0  0  0
    7.7601   -1.2514   24.4122 C   0  0  0  0  0  0  0  0  0  0  0  0
    7.7192   -2.4415   25.1874 C   0  0  0  0  0  0  0  0  0  0  0  0
    8.7700   -3.3484   25.1710 C   0  0  0  0  0  0  0  0  0  0  0  0
    9.8488   -3.0585   24.3007 C   0  0  0  0  0  0  0  0  0  0  0  0
    9.8885   -1.9054   23.4868 C   0  0  0  0  0  0  0  0  0  0  0  0
   11.0770   -2.0771   22.7096 C   0  0  0  0  0  0  0  0  0  0  0  0
   11.7091   -3.1884   23.0359 N   0  0  0  0  0  0  0  0  0  0  0  0
   10.9738   -3.7617   24.0042 N   0  0  0  0  0  0  0  0  0  0  0  0
   11.2804   -4.6183   24.4446 H   0  0  0  0  0  0  0  0  0  0  0  0
   11.4882   -1.4603   21.9191 H   0  0  0  0  0  0  0  0  0  0  0  0
    8.7669   -4.2494   25.7776 H   0  0  0  0  0  0  0  0  0  0  0  0
    6.8420   -2.6447   25.7974 H   0  0  0  0  0  0  0  0  0  0  0  0
    6.9006   -0.5876   24.4304 H   0  0  0  0  0  0  0  0  0  0  0  0
   10.0285    0.4886   22.6422 H   0  0  0  0  0  0  0  0  0  0  0  0
    8.9985   -0.3290   20.7882 H   0  0  0  0  0  0  0  0  0  0  0  0
    8.2392    1.1649   20.9820 H   0  0  0  0  0  0  0  0  0  0  0  0
    6.4228    0.2149   20.0140 C   0  0  0  0  0  0  0  0  0  0  0  0
    5.1739    0.8437   20.0414 C   0  0  0  0  0  0  0  0  0  0  0  0
    4.7053    1.4480   18.8736 C   0  0  0  0  0  0  0  0  0  0  0  0
    5.4877    1.3702   17.7173 C   0  0  0  0  0  0  0  0  0  0  0  0
    6.6834    0.7616   17.6741 N   0  0  0  0  0  0  0  0  0  0  0  0
    7.1416    0.2260   18.8110 C   0  0  0  0  0  0  0  0  0  0  0  0
    8.1322   -0.2359   18.7507 H   0  0  0  0  0  0  0  0  0  0  0  0
    5.1477    1.8245   16.7875 H   0  0  0  0  0  0  0  0  0  0  0  0
    3.7631    1.9836   18.8518 H   0  0  0  0  0  0  0  0  0  0  0  0
    4.5983    0.8658   20.9696 H   0  0  0  0  0  0  0  0  0  0  0  0
    6.3931   -0.2271   22.1045 H   0  0  0  0  0  0  0  0  0  0  0  0
    7.2985   -2.4601   22.0361 H   0  0  0  0  0  0  0  0  0  0  0  0
    7.8245   -2.2535   20.3662 H   0  0  0  0  0  0  0  0  0  0  0  0
    6.0946   -2.3321   20.7303 H   0  0  0  0  0  0  0  0  0  0  0  0
  1  2  1  0
  2  3  1  0
  3  4  1  0
  4  5  1  0
  5  6  1  0
  5  7  1  0
  5  8  1  0
  4  9  1  0
  9 10  2  0
 10 11  1  0
 11 12  2  0
 12 13  1  0
 13 14  2  0
 14 15  1  0
 15 16  2  0
 16 17  1  0
 17 18  1  0
 15 19  1  0
 12 20  1  0
 11 21  1  0
 10 22  1  0
  4 23  1  0
  3 24  1  0
  3 25  1  0
  2 26  1  0
 26 27  2  0
 27 28  1  0
 28 29  2  0
 29 30  1  0
 30 31  2  0
 31 32  1  0
 29 33  1  0
 28 34  1  0
 27 35  1  0
  2 36  1  0
  1 37  1  0
  1 38  1  0
  1 39  1  0
 14  9  1  0
 31 26  1  0
 17 13  1  0
M  CHG  1   3   1
M  END
>  <cnnaffinity>  (1) 
-5.31883

>  <filename>  (1) 
CC([NH2+]C(C)c1cccc2[nH]ncc12)c1cccnc1

$$$$
