
     RDKit          3D

 39 41  0  0  0  0  0  0  0  0999 V2000
    8.1727    2.4824   21.3208 C   0  0  0  0  0  0  0  0  0  0  0  0
    8.9134    1.1539   21.4554 C   0  0  0  0  0  0  0  0  0  0  0  0
    7.8937    0.1071   21.8404 N   0  0  0  0  0  4  0  0  0  0  0  0
    7.4246   -0.8668   20.8198 C   0  0  1  0  0  0  0  0  0  0  0  0
    6.6619   -1.9441   21.5628 C   0  0  0  0  0  0  0  0  0  0  0  0
    7.3303   -2.4185   22.2874 H   0  0  0  0  0  0  0  0  0  0  0  0
    5.8225   -1.5110   22.1100 H   0  0  0  0  0  0  0  0  0  0  0  0
    6.2803   -2.7185   20.8934 H   0  0  0  0  0  0  0  0  0  0  0  0
    6.6235   -0.0999   19.7916 C   0  0  0  0  0  0  0  0  0  0  0  0
    5.4119    0.5611   20.0565 C   0  0  0  0  0  0  0  0  0  0  0  0
    4.8069    1.2941   19.0323 C   0  0  0  0  0  0  0  0  0  0  0  0
    5.4349    1.3470   17.7837 C   0  0  0  0  0  0  0  0  0  0  0  0
    6.6000    0.7390   17.5188 N   0  0  0  0  0  0  0  0  0  0  0  0
    7.1718    0.0522   18.5154 C   0  0  0  0  0  0  0  0  0  0  0  0
    8.1379   -0.4088   18.2921 H   0  0  0  0  0  0  0  0  0  0  0  0
    4.9803    1.8945   16.9590 H   0  0  0  0  0  0  0  0  0  0  0  0
    3.8865    1.8476   19.1916 H   0  0  0  0  0  0  0  0  0  0  0  0
    4.9558    0.5319   21.0488 H   0  0  0  0  0  0  0  0  0  0  0  0
    8.2874   -1.3083   20.3053 H   0  0  0  0  0  0  0  0  0  0  0  0
    7.0246    0.6531   22.0754 H   0  0  0  0  0  0  0  0  0  0  0  0
    8.2773   -0.3717   22.6824 H   0  0  0  0  0  0  0  0  0  0  0  0
   10.0201    1.2422   22.4940 C   0  0  0  0  0  0  0  0  0  0  0  0
   11.3629    1.1135   22.1451 C   0  0  0  0  0  0  0  0  0  0  0  0
   12.4057    1.1587   23.1072 C   0  0  0  0  0  0  0  0  0  0  0  0
   12.1359    1.3047   24.4566 C   0  0  0  0  0  0  0  0  0  0  0  0
   10.7775    1.4619   24.8180 C   0  0  0  0  0  0  0  0  0  0  0  0
    9.7381    1.5141   23.8657 C   0  0  0  0  0  0  0  0  0  0  0  0
    8.5833    1.8244   24.6510 C   0  0  0  0  0  0  0  0  0  0  0  0
    8.8622    1.8868   25.9394 N   0  0  0  0  0  0  0  0  0  0  0  0
   10.1866    1.6608   26.0262 N   0  0  0  0  0  0  0  0  0  0  0  0
   10.6078    1.5005   26.9296 H   0  0  0  0  0  0  0  0  0  0  0  0
    7.5653    1.9771   24.3210 H   0  0  0  0  0  0  0  0  0  0  0  0
   12.9222    1.3478   25.2039 H   0  0  0  0  0  0  0  0  0  0  0  0
   13.4378    1.0831   22.7680 H   0  0  0  0  0  0  0  0  0  0  0  0
   11.6156    0.9443   21.1031 H   0  0  0  0  0  0  0  0  0  0  0  0
    9.3572    0.8484   20.4975 H   0  0  0  0  0  0  0  0  0  0  0  0
    7.8287    2.8026   22.3101 H   0  0  0  0  0  0  0  0  0  0  0  0
    7.3034    2.3686   20.6701 H   0  0  0  0  0  0  0  0  0  0  0  0
    8.8216    3.2606   20.9238 H   0  0  0  0  0  0  0  0  0  0  0  0
  1  2  1  0
  2  3  1  0
  3  4  1  0
  4  5  1  0
  5  6  1  0
  5  7  1  0
  5  8  1  0
  4  9  1  0
  9 10  2  0
 10 11  1  0
 11 12  2  0
 12 13  1  0
 13 14  2  0
 14 15  1  0
 12 16  1  0
 11 17  1  0
 10 18  1  0
  4 19  1  6
  3 20  1  0
  3 21  1  0
  2 22  1  0
 22 23  2  0
 23 24  1  0
 24 25  2  0
 25 26  1  0
 26 27  2  0
 27 28  1  0
 28 29  2  0
 29 30  1  0
 30 31  1  0
 28 32  1  0
 25 33  1  0
 24 34  1  0
 23 35  1  0
  2 36  1  0
  1 37  1  0
  1 38  1  0
  1 39  1  0
 14  9  1  0
 27 22  1  0
 30 26  1  0
M  CHG  1   3   1
M  END
>  <cnnaffinity>  (1) 
-4.93051

>  <filename>  (1) 
CC([NH2+][C@@H](C)c1cccnc1)c1cccc2[nH]ncc12

$$$$
