
     RDKit          3D

 40 42  0  0  0  0  0  0  0  0999 V2000
    7.1600   -2.0164   21.0951 C   0  0  0  0  0  0  0  0  0  0  0  0
    7.1485   -0.4981   21.2477 C   0  0  0  0  0  0  0  0  0  0  0  0
    8.5352    0.0091   21.4051 N   0  0  0  0  0  4  0  0  0  0  0  0
    9.1963    0.0661   22.7656 C   0  0  0  0  0  0  0  0  0  0  0  0
   10.4901    0.8324   22.5028 C   0  0  0  0  0  0  0  0  0  0  0  0
   11.1077    0.2957   21.7700 H   0  0  0  0  0  0  0  0  0  0  0  0
   11.0717    0.9747   23.4171 H   0  0  0  0  0  0  0  0  0  0  0  0
   10.2542    1.8188   22.0931 H   0  0  0  0  0  0  0  0  0  0  0  0
    9.4279   -1.2874   23.4478 C   0  0  0  0  0  0  0  0  0  0  0  0
   10.5429   -2.0904   23.1702 C   0  0  0  0  0  0  0  0  0  0  0  0
   10.7489   -3.3470   23.7815 C   0  0  0  0  0  0  0  0  0  0  0  0
    9.8498   -3.8611   24.7051 C   0  0  0  0  0  0  0  0  0  0  0  0
    8.7103   -3.0928   25.0240 C   0  0  0  0  0  0  0  0  0  0  0  0
    8.5313   -1.8196   24.4165 C   0  0  0  0  0  0  0  0  0  0  0  0
    7.3409   -1.3208   24.8805 N   0  0  0  0  0  0  0  0  0  0  0  0
    6.7621   -2.2193   25.7553 C   0  0  0  0  0  0  0  0  0  0  0  0
    7.5609   -3.3174   25.8617 C   0  0  0  0  0  0  0  0  0  0  0  0
    7.3910   -4.1891   26.4831 H   0  0  0  0  0  0  0  0  0  0  0  0
    5.8002   -2.0208   26.2211 H   0  0  0  0  0  0  0  0  0  0  0  0
    7.0158   -0.3805   24.7110 H   0  0  0  0  0  0  0  0  0  0  0  0
   10.0202   -4.8253   25.1834 H   0  0  0  0  0  0  0  0  0  0  0  0
   11.6512   -3.8954   23.5348 H   0  0  0  0  0  0  0  0  0  0  0  0
   11.2947   -1.7514   22.4624 H   0  0  0  0  0  0  0  0  0  0  0  0
    8.5489    0.6459   23.4341 H   0  0  0  0  0  0  0  0  0  0  0  0
    8.5427    0.9649   20.9900 H   0  0  0  0  0  0  0  0  0  0  0  0
    9.1443   -0.6245   20.8360 H   0  0  0  0  0  0  0  0  0  0  0  0
    6.5666    0.2197   20.0491 C   0  0  0  0  0  0  0  0  0  0  0  0
    5.3113    0.8473   20.1079 C   0  0  0  0  0  0  0  0  0  0  0  0
    4.7825    1.4239   18.9512 C   0  0  0  0  0  0  0  0  0  0  0  0
    5.5207    1.3460   17.7674 C   0  0  0  0  0  0  0  0  0  0  0  0
    6.7219    0.7558   17.6872 N   0  0  0  0  0  0  0  0  0  0  0  0
    7.2277    0.2292   18.8109 C   0  0  0  0  0  0  0  0  0  0  0  0
    8.2193   -0.2138   18.6992 H   0  0  0  0  0  0  0  0  0  0  0  0
    5.1324    1.7730   16.8432 H   0  0  0  0  0  0  0  0  0  0  0  0
    3.8257    1.9383   18.9533 H   0  0  0  0  0  0  0  0  0  0  0  0
    4.7645    0.8981   21.0525 H   0  0  0  0  0  0  0  0  0  0  0  0
    6.5600   -0.2330   22.1339 H   0  0  0  0  0  0  0  0  0  0  0  0
    7.4149   -2.4985   22.0416 H   0  0  0  0  0  0  0  0  0  0  0  0
    6.1979   -2.3918   20.7423 H   0  0  0  0  0  0  0  0  0  0  0  0
    7.9278   -2.2772   20.3658 H   0  0  0  0  0  0  0  0  0  0  0  0
  1  2  1  0
  2  3  1  0
  3  4  1  0
  4  5  1  0
  5  6  1  0
  5  7  1  0
  5  8  1  0
  4  9  1  0
  9 10  2  0
 10 11  1  0
 11 12  2  0
 12 13  1  0
 13 14  2  0
 14 15  1  0
 15 16  1  0
 16 17  2  0
 17 18  1  0
 16 19  1  0
 15 20  1  0
 12 21  1  0
 11 22  1  0
 10 23  1  0
  4 24  1  0
  3 25  1  0
  3 26  1  0
  2 27  1  0
 27 28  2  0
 28 29  1  0
 29 30  2  0
 30 31  1  0
 31 32  2  0
 32 33  1  0
 30 34  1  0
 29 35  1  0
 28 36  1  0
  2 37  1  0
  1 38  1  0
  1 39  1  0
  1 40  1  0
 14  9  1  0
 32 27  1  0
 17 13  1  0
M  CHG  1   3   1
M  END
>  <cnnaffinity>  (1) 
-5.27011

>  <filename>  (1) 
CC([NH2+]C(C)c1cccc2cc[nH]c12)c1cccnc1

$$$$
