
     RDKit          3D

 39 41  0  0  0  0  0  0  0  0999 V2000
    9.3003   -1.2694   23.4908 C   0  0  0  0  0  0  0  0  0  0  0  0
    9.1887    0.0898   22.7921 C   0  0  0  0  0  0  0  0  0  0  0  0
    8.5647   -0.0176   21.4243 N   0  0  0  0  0  4  0  0  0  0  0  0
    7.1383   -0.4806   21.2955 C   0  0  2  0  0  0  0  0  0  0  0  0
    7.1058   -1.9958   21.0661 C   0  0  0  0  0  0  0  0  0  0  0  0
    7.7597   -2.1940   20.2166 H   0  0  0  0  0  0  0  0  0  0  0  0
    6.1101   -2.3566   20.8111 H   0  0  0  0  0  0  0  0  0  0  0  0
    7.4933   -2.5602   21.9191 H   0  0  0  0  0  0  0  0  0  0  0  0
    6.5292    0.2663   20.1220 C   0  0  0  0  0  0  0  0  0  0  0  0
    5.2591    0.8801   20.1654 C   0  0  0  0  0  0  0  0  0  0  0  0
    4.7269    1.4326   18.9948 C   0  0  0  0  0  0  0  0  0  0  0  0
    5.4742    1.3451   17.8184 C   0  0  0  0  0  0  0  0  0  0  0  0
    6.6713    0.7472   17.7463 N   0  0  0  0  0  0  0  0  0  0  0  0
    7.1764    0.2375   18.8760 C   0  0  0  0  0  0  0  0  0  0  0  0
    8.1481   -0.2486   18.7562 H   0  0  0  0  0  0  0  0  0  0  0  0
    5.1014    1.7576   16.8836 H   0  0  0  0  0  0  0  0  0  0  0  0
    3.7666    1.9448   18.9719 H   0  0  0  0  0  0  0  0  0  0  0  0
    4.6938    0.9459   21.0986 H   0  0  0  0  0  0  0  0  0  0  0  0
    6.5941   -0.2230   22.2140 H   0  0  0  0  0  0  0  0  0  0  0  0
    8.6165    0.9212   20.9526 H   0  0  0  0  0  0  0  0  0  0  0  0
    9.1765   -0.7030   20.9118 H   0  0  0  0  0  0  0  0  0  0  0  0
   10.5283    0.8040   22.6833 C   0  0  0  0  0  0  0  0  0  0  0  0
   11.7221    0.2337   22.2298 C   0  0  0  0  0  0  0  0  0  0  0  0
   12.9663    0.9277   22.2913 C   0  0  0  0  0  0  0  0  0  0  0  0
   13.0573    2.2240   22.7740 C   0  0  0  0  0  0  0  0  0  0  0  0
   11.8479    2.8205   23.1919 C   0  0  0  0  0  0  0  0  0  0  0  0
   10.6093    2.1461   23.1536 C   0  0  0  0  0  0  0  0  0  0  0  0
    9.6805    3.1043   23.6465 C   0  0  0  0  0  0  0  0  0  0  0  0
   10.2720    4.2438   23.9612 N   0  0  0  0  0  0  0  0  0  0  0  0
   11.5712    4.0574   23.6843 N   0  0  0  0  0  0  0  0  0  0  0  0
   12.2268    4.8097   23.8237 H   0  0  0  0  0  0  0  0  0  0  0  0
    8.6166    2.9786   23.7715 H   0  0  0  0  0  0  0  0  0  0  0  0
   14.0009    2.7668   22.8225 H   0  0  0  0  0  0  0  0  0  0  0  0
   13.8682    0.4222   21.9564 H   0  0  0  0  0  0  0  0  0  0  0  0
   11.7192   -0.7669   21.8097 H   0  0  0  0  0  0  0  0  0  0  0  0
    8.5373    0.7257   23.4046 H   0  0  0  0  0  0  0  0  0  0  0  0
    8.3193   -1.7310   23.6175 H   0  0  0  0  0  0  0  0  0  0  0  0
    9.7274   -1.1401   24.4887 H   0  0  0  0  0  0  0  0  0  0  0  0
    9.9353   -1.9573   22.9198 H   0  0  0  0  0  0  0  0  0  0  0  0
  1  2  1  0
  2  3  1  0
  3  4  1  0
  4  5  1  0
  5  6  1  0
  5  7  1  0
  5  8  1  0
  4  9  1  0
  9 10  2  0
 10 11  1  0
 11 12  2  0
 12 13  1  0
 13 14  2  0
 14 15  1  0
 12 16  1  0
 11 17  1  0
 10 18  1  0
  4 19  1  1
  3 20  1  0
  3 21  1  0
  2 22  1  0
 22 23  2  0
 23 24  1  0
 24 25  2  0
 25 26  1  0
 26 27  2  0
 27 28  1  0
 28 29  2  0
 29 30  1  0
 30 31  1  0
 28 32  1  0
 25 33  1  0
 24 34  1  0
 23 35  1  0
  2 36  1  0
  1 37  1  0
  1 38  1  0
  1 39  1  0
 14  9  1  0
 27 22  1  0
 30 26  1  0
M  CHG  1   3   1
M  END
>  <cnnaffinity>  (1) 
-5.34185

>  <filename>  (1) 
CC([NH2+][C@H](C)c1cccnc1)c1cccc2[nH]ncc12

$$$$
