
     RDKit          3D

 37 39  0  0  0  0  0  0  0  0999 V2000
    9.0054   -1.4293   23.2848 C   0  0  0  0  0  0  0  0  0  0  0  0
    7.4810   -1.6197   23.2457 C   0  0  0  0  0  0  0  0  0  0  0  0
    6.8207   -1.5515   21.8211 C   0  0  0  0  0  0  0  0  0  0  0  0
    5.9223   -2.3018   21.5064 O   0  0  0  0  0  0  0  0  0  0  0  0
    7.3922   -0.6239   20.9585 N   0  0  0  0  0  0  0  0  0  0  0  0
    6.6868   -0.0839   19.8355 C   0  0  0  0  0  0  0  0  0  0  0  0
    5.4603    0.5413   20.0722 C   0  0  0  0  0  0  0  0  0  0  0  0
    4.8535    1.2513   19.0327 C   0  0  0  0  0  0  0  0  0  0  0  0
    5.4835    1.2729   17.7824 C   0  0  0  0  0  0  0  0  0  0  0  0
    6.6344    0.6272   17.5214 N   0  0  0  0  0  0  0  0  0  0  0  0
    7.2256   -0.0304   18.5306 C   0  0  0  0  0  0  0  0  0  0  0  0
    8.1760   -0.5192   18.3156 H   0  0  0  0  0  0  0  0  0  0  0  0
    5.0519    1.8441   16.9641 H   0  0  0  0  0  0  0  0  0  0  0  0
    3.9347    1.8063   19.1949 H   0  0  0  0  0  0  0  0  0  0  0  0
    5.0268    0.4838   21.0733 H   0  0  0  0  0  0  0  0  0  0  0  0
    7.8105    0.1255   21.4996 H   0  0  0  0  0  0  0  0  0  0  0  0
    6.8241   -0.7483   24.2763 N   0  0  0  0  0  0  0  0  0  0  0  0
    6.2888   -1.3645   25.4071 C   0  0  0  0  0  0  0  0  0  0  0  0
    5.7841   -0.6531   26.4328 C   0  0  0  0  0  0  0  0  0  0  0  0
    5.7322    0.7877   26.3672 C   0  0  0  0  0  0  0  0  0  0  0  0
    5.1548    1.5437   27.4170 C   0  0  0  0  0  0  0  0  0  0  0  0
    5.0740    2.9177   27.3270 C   0  0  0  0  0  0  0  0  0  0  0  0
    5.5831    3.5838   26.1867 C   0  0  0  0  0  0  0  0  0  0  0  0
    6.1721    2.8661   25.1568 C   0  0  0  0  0  0  0  0  0  0  0  0
    6.2518    1.4550   25.2337 C   0  0  0  0  0  0  0  0  0  0  0  0
    6.8886    0.6555   24.1531 C   0  0  0  0  0  0  0  0  0  0  0  0
    7.4427    1.1681   23.1758 O   0  0  0  0  0  0  0  0  0  0  0  0
    6.5763    3.3809   24.2837 H   0  0  0  0  0  0  0  0  0  0  0  0
    5.5073    4.6666   26.1277 H   0  0  0  0  0  0  0  0  0  0  0  0
    4.6252    3.4874   28.1368 H   0  0  0  0  0  0  0  0  0  0  0  0
    4.7900    1.0040   28.2872 H   0  0  0  0  0  0  0  0  0  0  0  0
    5.4062   -1.1460   27.3261 H   0  0  0  0  0  0  0  0  0  0  0  0
    6.3021   -2.4559   25.4138 H   0  0  0  0  0  0  0  0  0  0  0  0
    7.2339   -2.6476   23.5324 H   0  0  0  0  0  0  0  0  0  0  0  0
    9.3648   -1.6500   24.2948 H   0  0  0  0  0  0  0  0  0  0  0  0
    9.4759   -2.1038   22.5663 H   0  0  0  0  0  0  0  0  0  0  0  0
    9.2957   -0.4039   23.0478 H   0  0  0  0  0  0  0  0  0  0  0  0
  1  2  1  0
  2  3  1  0
  3  4  2  0
  3  5  1  0
  5  6  1  0
  6  7  2  0
  7  8  1  0
  8  9  2  0
  9 10  1  0
 10 11  2  0
 11 12  1  0
  9 13  1  0
  8 14  1  0
  7 15  1  0
  5 16  1  0
  2 17  1  0
 17 18  1  0
 18 19  2  0
 19 20  1  0
 20 21  2  0
 21 22  1  0
 22 23  2  0
 23 24  1  0
 24 25  2  0
 25 26  1  0
 26 27  2  0
 24 28  1  0
 23 29  1  0
 22 30  1  0
 21 31  1  0
 19 32  1  0
 18 33  1  0
  2 34  1  0
  1 35  1  0
  1 36  1  0
  1 37  1  0
 11  6  1  0
 26 17  1  0
 25 20  1  0
M  END
>  <cnnaffinity>  (1) 
-5.30626

>  <filename>  (1) 
CC(C(=O)Nc1cccnc1)n1ccc2ccccc2c1=O

$$$$
