
     RDKit          3D

 34 35  0  0  0  0  0  0  0  0999 V2000
    4.9104    1.7744   17.0025 H   0  0  0  0  0  0  0  0  0  0  0  0
    5.4013    1.2912   17.8460 C   0  0  0  0  0  0  0  0  0  0  0  0
    6.5679    0.6729   17.5886 N   0  0  0  0  0  0  0  0  0  0  0  0
    7.1814    0.0524   18.6038 C   0  0  0  0  0  0  0  0  0  0  0  0
    8.1275   -0.4299   18.3837 H   0  0  0  0  0  0  0  0  0  0  0  0
    6.6723   -0.0083   19.9217 C   0  0  0  0  0  0  0  0  0  0  0  0
    7.3698   -0.6961   20.9624 N   0  0  0  0  0  0  0  0  0  0  0  0
    6.6684   -1.2441   22.0208 N   0  0  0  0  0  0  0  0  0  0  0  0
    7.5335   -1.7609   22.8355 C   0  0  0  0  0  0  0  0  0  0  0  0
    7.1335   -2.4583   24.0976 C   0  0  0  0  0  0  0  0  0  0  0  0
    6.5736   -1.7531   24.7210 H   0  0  0  0  0  0  0  0  0  0  0  0
    8.0288   -2.7256   24.6739 H   0  0  0  0  0  0  0  0  0  0  0  0
    6.2832   -3.7146   23.8396 C   0  0  0  0  0  0  0  0  0  0  0  0
    5.9783   -4.1427   24.8060 H   0  0  0  0  0  0  0  0  0  0  0  0
    5.3611   -3.3903   23.3391 H   0  0  0  0  0  0  0  0  0  0  0  0
    6.9694   -4.8048   22.9960 C   0  0  0  0  0  0  0  0  0  0  0  0
    7.3175   -4.3472   22.0562 H   0  0  0  0  0  0  0  0  0  0  0  0
    5.9688   -5.8999   22.6289 C   0  0  0  0  0  0  0  0  0  0  0  0
    5.5863   -6.3920   23.5317 H   0  0  0  0  0  0  0  0  0  0  0  0
    5.1166   -5.4878   22.0794 H   0  0  0  0  0  0  0  0  0  0  0  0
    6.4367   -6.6651   22.0010 H   0  0  0  0  0  0  0  0  0  0  0  0
    8.1860   -5.4066   23.7049 C   0  0  0  0  0  0  0  0  0  0  0  0
    7.9066   -5.7958   24.6927 H   0  0  0  0  0  0  0  0  0  0  0  0
    8.6064   -6.2372   23.1287 H   0  0  0  0  0  0  0  0  0  0  0  0
    8.9846   -4.6720   23.8470 H   0  0  0  0  0  0  0  0  0  0  0  0
    8.9420   -1.6110   22.3740 C   0  0  0  0  0  0  0  0  0  0  0  0
    9.5645   -1.0401   23.0627 H   0  0  0  0  0  0  0  0  0  0  0  0
    9.4424   -2.5657   22.1765 H   0  0  0  0  0  0  0  0  0  0  0  0
    8.7487   -0.8316   21.1001 C   0  0  0  0  0  0  0  0  0  0  0  0
    9.6071   -0.4019   20.3600 O   0  0  0  0  0  0  0  0  0  0  0  0
    5.4495    0.6436   20.1728 C   0  0  0  0  0  0  0  0  0  0  0  0
    5.0154    0.6189   21.1701 H   0  0  0  0  0  0  0  0  0  0  0  0
    4.8123    1.3076   19.1176 C   0  0  0  0  0  0  0  0  0  0  0  0
    3.8759    1.8422   19.2678 H   0  0  0  0  0  0  0  0  0  0  0  0
  1  2  1  0
  2  3  2  0
  3  4  1  0
  4  5  1  0
  4  6  2  0
  6  7  1  0
  7  8  1  0
  8  9  2  0
  9 10  1  0
 10 11  1  0
 10 12  1  0
 10 13  1  0
 13 14  1  0
 13 15  1  0
 13 16  1  0
 16 17  1  0
 16 18  1  0
 18 19  1  0
 18 20  1  0
 18 21  1  0
 16 22  1  0
 22 23  1  0
 22 24  1  0
 22 25  1  0
  9 26  1  0
 26 27  1  0
 26 28  1  0
 26 29  1  0
 29 30  2  0
  6 31  1  0
 31 32  1  0
 31 33  2  0
 33 34  1  0
 33  2  1  0
 29  7  1  0
M  END
>  <cnnaffinity>  (1) 
-5.16413

>  <filename>  (1) 
CC(C)CCC1=NN(c2cccnc2)C(=O)C1

$$$$
