
     RDKit          3D

 42 43  0  0  0  0  0  0  0  0999 V2000
    8.4647    1.3198   21.7401 C   0  0  0  0  0  0  0  0  0  0  0  0
    7.7599    0.0211   22.1321 C   0  0  0  0  0  0  0  0  0  0  0  0
    8.5631   -0.7169   23.2151 C   0  0  0  0  0  0  0  0  0  0  0  0
    9.5252   -1.0745   22.8302 H   0  0  0  0  0  0  0  0  0  0  0  0
    8.7646   -0.0407   24.0543 H   0  0  0  0  0  0  0  0  0  0  0  0
    8.0346   -1.5857   23.6226 H   0  0  0  0  0  0  0  0  0  0  0  0
    7.5002   -0.8498   20.8564 C   0  0  0  0  0  0  0  0  0  0  0  0
    6.9501   -2.2131   21.2802 C   0  0  0  0  0  0  0  0  0  0  0  0
    7.5788   -3.2476   21.2777 O   0  0  0  0  0  0  0  0  0  0  0  0
    5.6819   -2.1143   21.7341 O   0  0  0  0  0  0  0  0  0  0  0  0
    5.1093   -3.3113   22.2873 C   0  0  0  0  0  0  0  0  0  0  0  0
    5.7192   -3.7634   23.6107 C   0  0  0  0  0  0  0  0  0  0  0  0
    5.9015   -2.8323   24.6422 C   0  0  0  0  0  0  0  0  0  0  0  0
    6.4346   -3.2124   25.8790 C   0  0  0  0  0  0  0  0  0  0  0  0
    6.7464   -4.5512   26.1103 C   0  0  0  0  0  0  0  0  0  0  0  0
    6.5134   -5.4970   25.1133 C   0  0  0  0  0  0  0  0  0  0  0  0
    6.0118   -5.1193   23.8589 C   0  0  0  0  0  0  0  0  0  0  0  0
    5.7432   -6.1087   22.7375 C   0  0  0  0  0  0  0  0  0  0  0  0
    4.4009   -6.1176   22.4525 F   0  0  0  0  0  0  0  0  0  0  0  0
    6.0787   -7.3820   23.0297 F   0  0  0  0  0  0  0  0  0  0  0  0
    6.2782   -5.8168   21.8214 H   0  0  0  0  0  0  0  0  0  0  0  0
    6.7145   -6.5325   25.3388 H   0  0  0  0  0  0  0  0  0  0  0  0
    7.1730   -4.8629   27.0621 H   0  0  0  0  0  0  0  0  0  0  0  0
    6.5845   -2.4709   26.6551 H   0  0  0  0  0  0  0  0  0  0  0  0
    5.6346   -1.7946   24.4736 H   0  0  0  0  0  0  0  0  0  0  0  0
    5.1503   -4.0905   21.5315 H   0  0  0  0  0  0  0  0  0  0  0  0
    4.0610   -3.0844   22.4348 H   0  0  0  0  0  0  0  0  0  0  0  0
    6.6929   -0.1052   19.7716 C   0  0  0  0  0  0  0  0  0  0  0  0
    5.4757    0.5363   20.0501 C   0  0  0  0  0  0  0  0  0  0  0  0
    4.8422    1.2676   19.0398 C   0  0  0  0  0  0  0  0  0  0  0  0
    5.4425    1.3337   17.7786 C   0  0  0  0  0  0  0  0  0  0  0  0
    6.6006    0.7279   17.4817 N   0  0  0  0  0  0  0  0  0  0  0  0
    7.2027    0.0438   18.4638 C   0  0  0  0  0  0  0  0  0  0  0  0
    8.1558   -0.4157   18.1970 H   0  0  0  0  0  0  0  0  0  0  0  0
    4.9664    1.8785   16.9655 H   0  0  0  0  0  0  0  0  0  0  0  0
    3.9097    1.7945   19.2163 H   0  0  0  0  0  0  0  0  0  0  0  0
    5.0373    0.4877   21.0486 H   0  0  0  0  0  0  0  0  0  0  0  0
    8.4795   -1.0953   20.4332 H   0  0  0  0  0  0  0  0  0  0  0  0
    6.7834    0.2713   22.5714 H   0  0  0  0  0  0  0  0  0  0  0  0
    7.8745    1.9036   21.0255 H   0  0  0  0  0  0  0  0  0  0  0  0
    9.4358    1.0970   21.2790 H   0  0  0  0  0  0  0  0  0  0  0  0
    8.6456    1.9490   22.6179 H   0  0  0  0  0  0  0  0  0  0  0  0
  1  2  1  0
  2  3  1  0
  3  4  1  0
  3  5  1  0
  3  6  1  0
  2  7  1  0
  7  8  1  0
  8  9  2  0
  8 10  1  0
 10 11  1  0
 11 12  1  0
 12 13  2  0
 13 14  1  0
 14 15  2  0
 15 16  1  0
 16 17  2  0
 17 18  1  0
 18 19  1  0
 18 20  1  0
 18 21  1  0
 16 22  1  0
 15 23  1  0
 14 24  1  0
 13 25  1  0
 11 26  1  0
 11 27  1  0
  7 28  1  0
 28 29  2  0
 29 30  1  0
 30 31  2  0
 31 32  1  0
 32 33  2  0
 33 34  1  0
 31 35  1  0
 30 36  1  0
 29 37  1  0
  7 38  1  0
  2 39  1  0
  1 40  1  0
  1 41  1  0
  1 42  1  0
 17 12  1  0
 33 28  1  0
M  END
>  <cnnaffinity>  (1) 
-5.28992

>  <filename>  (1) 
CC(C)C(C(=O)OCc1ccccc1C(F)F)c1cccnc1

$$$$
