
     RDKit          3D

 35 36  0  0  0  0  0  0  0  0999 V2000
    7.4527    0.2088   22.3229 C   0  0  0  0  0  0  0  0  0  0  0  0
    7.4324   -0.6618   21.0623 C   0  0  0  0  0  0  0  0  0  0  0  0
    8.8630   -1.0597   20.6902 C   0  0  0  0  0  0  0  0  0  0  0  0
    9.4466   -0.2055   20.3496 H   0  0  0  0  0  0  0  0  0  0  0  0
    9.3487   -1.5061   21.5614 H   0  0  0  0  0  0  0  0  0  0  0  0
    8.8501   -1.8134   19.9021 H   0  0  0  0  0  0  0  0  0  0  0  0
    6.6282   -1.9182   21.3291 N   0  0  0  0  0  4  0  0  0  0  0  0
    7.0804   -2.8405   22.3799 C   0  0  0  0  0  0  0  0  0  0  0  0
    6.0454   -3.9191   22.6176 C   0  0  0  0  0  0  0  0  0  0  0  0
    5.0403   -3.8466   23.6204 C   0  0  0  0  0  0  0  0  0  0  0  0
    4.1499   -4.9100   23.7873 C   0  0  0  0  0  0  0  0  0  0  0  0
    4.1819   -6.0219   23.0223 N   0  0  0  0  0  0  0  0  0  0  0  0
    5.1122   -6.0798   22.0983 C   0  0  0  0  0  0  0  0  0  0  0  0
    5.1505   -7.1238   21.2799 F   0  0  0  0  0  0  0  0  0  0  0  0
    6.0782   -5.0878   21.8657 C   0  0  0  0  0  0  0  0  0  0  0  0
    7.0201   -5.3089   20.9253 F   0  0  0  0  0  0  0  0  0  0  0  0
    3.3711   -4.8858   24.5472 H   0  0  0  0  0  0  0  0  0  0  0  0
    4.9614   -2.9710   24.2647 H   0  0  0  0  0  0  0  0  0  0  0  0
    7.2597   -2.3269   23.3343 H   0  0  0  0  0  0  0  0  0  0  0  0
    8.0284   -3.3270   22.1165 H   0  0  0  0  0  0  0  0  0  0  0  0
    6.5575   -2.3940   20.3920 H   0  0  0  0  0  0  0  0  0  0  0  0
    5.6646   -1.5639   21.5525 H   0  0  0  0  0  0  0  0  0  0  0  0
    6.6419   -0.0116   19.9334 C   0  0  0  0  0  0  0  0  0  0  0  0
    5.4068    0.6347   20.1502 C   0  0  0  0  0  0  0  0  0  0  0  0
    4.7855    1.2930   19.0864 C   0  0  0  0  0  0  0  0  0  0  0  0
    5.3978    1.2702   17.8282 C   0  0  0  0  0  0  0  0  0  0  0  0
    6.5397    0.6190   17.5849 N   0  0  0  0  0  0  0  0  0  0  0  0
    7.1322    0.0083   18.6173 C   0  0  0  0  0  0  0  0  0  0  0  0
    8.0821   -0.4618   18.3784 H   0  0  0  0  0  0  0  0  0  0  0  0
    4.9667    1.8089   16.9856 H   0  0  0  0  0  0  0  0  0  0  0  0
    3.8658    1.8557   19.2254 H   0  0  0  0  0  0  0  0  0  0  0  0
    4.9402    0.6890   21.1393 H   0  0  0  0  0  0  0  0  0  0  0  0
    7.7956    1.2110   22.0674 H   0  0  0  0  0  0  0  0  0  0  0  0
    6.4578    0.2760   22.7758 H   0  0  0  0  0  0  0  0  0  0  0  0
    8.1239   -0.2211   23.0713 H   0  0  0  0  0  0  0  0  0  0  0  0
  1  2  1  0
  2  3  1  0
  3  4  1  0
  3  5  1  0
  3  6  1  0
  2  7  1  0
  7  8  1  0
  8  9  1  0
  9 10  2  0
 10 11  1  0
 11 12  2  0
 12 13  1  0
 13 14  1  0
 13 15  2  0
 15 16  1  0
 11 17  1  0
 10 18  1  0
  8 19  1  0
  8 20  1  0
  7 21  1  0
  7 22  1  0
  2 23  1  0
 23 24  2  0
 24 25  1  0
 25 26  2  0
 26 27  1  0
 27 28  2  0
 28 29  1  0
 26 30  1  0
 25 31  1  0
 24 32  1  0
  1 33  1  0
  1 34  1  0
  1 35  1  0
 15  9  1  0
 28 23  1  0
M  CHG  1   7   1
M  END
>  <cnnaffinity>  (1) 
-4.88281

>  <filename>  (1) 
CC(C)([NH2+]Cc1ccnc(F)c1F)c1cccnc1

$$$$
