
     RDKit          3D

 45 46  0  0  0  0  0  0  0  0999 V2000
    7.8349    0.7797   22.1167 C   0  0  0  0  0  0  0  0  0  0  0  0
    7.3900   -0.4862   21.3420 C   0  0  0  0  0  0  0  0  0  0  0  0
    8.6726   -1.2941   21.0194 C   0  0  0  0  0  0  0  0  0  0  0  0
    9.3378   -0.7150   20.3699 H   0  0  0  0  0  0  0  0  0  0  0  0
    9.2248   -1.5092   21.9408 H   0  0  0  0  0  0  0  0  0  0  0  0
    8.4546   -2.2475   20.5300 H   0  0  0  0  0  0  0  0  0  0  0  0
    6.4982   -1.3931   22.2832 C   0  0  0  0  0  0  0  0  0  0  0  0
    6.5176   -1.2853   23.4970 O   0  0  0  0  0  0  0  0  0  0  0  0
    5.7525   -2.3355   21.6061 N   0  0  0  0  0  0  0  0  0  0  0  0
    4.8865   -3.2981   22.1514 N   0  0  0  0  0  0  0  0  0  0  0  0
    5.3783   -4.4842   22.7509 C   0  0  0  0  0  0  0  0  0  0  0  0
    6.5393   -4.8118   22.8152 O   0  0  0  0  0  0  0  0  0  0  0  0
    4.2647   -5.4091   23.2299 C   0  0  0  0  0  0  0  0  0  0  0  0
    3.0965   -4.7670   23.9714 C   0  0  0  0  0  0  0  0  0  0  0  0
    3.5220   -3.6597   24.7474 O   0  0  0  0  0  0  0  0  0  0  0  0
    4.1492   -3.8722   25.9510 C   0  0  0  0  0  0  0  0  0  0  0  0
    4.7496   -2.7229   26.4875 C   0  0  0  0  0  0  0  0  0  0  0  0
    5.3261   -2.7534   27.7586 C   0  0  0  0  0  0  0  0  0  0  0  0
    5.2936   -3.9385   28.5038 C   0  0  0  0  0  0  0  0  0  0  0  0
    4.7381   -5.0959   27.9550 C   0  0  0  0  0  0  0  0  0  0  0  0
    4.1814   -5.0795   26.6661 C   0  0  0  0  0  0  0  0  0  0  0  0
    3.7827   -5.9980   26.2456 H   0  0  0  0  0  0  0  0  0  0  0  0
    4.7270   -6.0242   28.5259 H   0  0  0  0  0  0  0  0  0  0  0  0
    5.7011   -3.9618   29.5109 H   0  0  0  0  0  0  0  0  0  0  0  0
    5.8053   -1.8631   28.1694 H   0  0  0  0  0  0  0  0  0  0  0  0
    4.7436   -1.8270   25.8736 H   0  0  0  0  0  0  0  0  0  0  0  0
    2.5665   -5.4918   24.6014 H   0  0  0  0  0  0  0  0  0  0  0  0
    2.3375   -4.3783   23.2914 H   0  0  0  0  0  0  0  0  0  0  0  0
    4.7536   -6.1504   23.8677 H   0  0  0  0  0  0  0  0  0  0  0  0
    3.8812   -5.9451   22.3562 H   0  0  0  0  0  0  0  0  0  0  0  0
    4.2244   -2.8842   22.8133 H   0  0  0  0  0  0  0  0  0  0  0  0
    5.8551   -2.3206   20.6003 H   0  0  0  0  0  0  0  0  0  0  0  0
    6.6526    0.0067   20.0731 C   0  0  0  0  0  0  0  0  0  0  0  0
    5.4069    0.6484   20.2096 C   0  0  0  0  0  0  0  0  0  0  0  0
    4.8286    1.2526   19.0902 C   0  0  0  0  0  0  0  0  0  0  0  0
    5.5034    1.1925   17.8663 C   0  0  0  0  0  0  0  0  0  0  0  0
    6.6660    0.5515   17.6971 N   0  0  0  0  0  0  0  0  0  0  0  0
    7.2162   -0.0189   18.7807 C   0  0  0  0  0  0  0  0  0  0  0  0
    8.1636   -0.5282   18.6108 H   0  0  0  0  0  0  0  0  0  0  0  0
    5.0896    1.6740   16.9818 H   0  0  0  0  0  0  0  0  0  0  0  0
    3.8961    1.7994   19.1602 H   0  0  0  0  0  0  0  0  0  0  0  0
    4.9116    0.6866   21.1843 H   0  0  0  0  0  0  0  0  0  0  0  0
    8.5178    1.3709   21.4959 H   0  0  0  0  0  0  0  0  0  0  0  0
    6.9813    1.4182   22.3712 H   0  0  0  0  0  0  0  0  0  0  0  0
    8.3436    0.5021   23.0444 H   0  0  0  0  0  0  0  0  0  0  0  0
  1  2  1  0
  2  3  1  0
  3  4  1  0
  3  5  1  0
  3  6  1  0
  2  7  1  0
  7  8  2  0
  7  9  1  0
  9 10  1  0
 10 11  1  0
 11 12  2  0
 11 13  1  0
 13 14  1  0
 14 15  1  0
 15 16  1  0
 16 17  2  0
 17 18  1  0
 18 19  2  0
 19 20  1  0
 20 21  2  0
 21 22  1  0
 20 23  1  0
 19 24  1  0
 18 25  1  0
 17 26  1  0
 14 27  1  0
 14 28  1  0
 13 29  1  0
 13 30  1  0
 10 31  1  0
  9 32  1  0
  2 33  1  0
 33 34  2  0
 34 35  1  0
 35 36  2  0
 36 37  1  0
 37 38  2  0
 38 39  1  0
 36 40  1  0
 35 41  1  0
 34 42  1  0
  1 43  1  0
  1 44  1  0
  1 45  1  0
 21 16  1  0
 38 33  1  0
M  END
>  <cnnaffinity>  (1) 
-5.35285

>  <filename>  (1) 
CC(C)(C(=O)NNC(=O)CCOc1ccccc1)c1cccnc1

$$$$
