
     RDKit          3D

 33 34  0  0  0  0  0  0  0  0999 V2000
    4.9279    1.7772   16.9946 H   0  0  0  0  0  0  0  0  0  0  0  0
    5.4055    1.2895   17.8403 C   0  0  0  0  0  0  0  0  0  0  0  0
    6.5698    0.6683   17.5934 N   0  0  0  0  0  0  0  0  0  0  0  0
    7.1622    0.0603   18.6207 C   0  0  0  0  0  0  0  0  0  0  0  0
    8.1065   -0.4216   18.3758 H   0  0  0  0  0  0  0  0  0  0  0  0
    6.6407    0.0109   19.9248 C   0  0  0  0  0  0  0  0  0  0  0  0
    7.3631   -0.7002   20.9890 C   0  0  0  0  0  0  0  0  0  0  0  0
    6.8352   -0.8578   22.2053 N   0  0  0  0  0  0  0  0  0  0  0  0
    7.7344   -1.5524   22.9053 N   0  0  0  0  0  0  0  0  0  0  0  0
    7.5578   -1.8179   24.3327 C   0  0  0  0  0  0  0  0  0  0  0  0
    6.4850   -1.7969   24.5379 H   0  0  0  0  0  0  0  0  0  0  0  0
    7.8998   -2.8401   24.5051 H   0  0  0  0  0  0  0  0  0  0  0  0
    8.3267   -0.8521   25.2429 C   0  0  0  0  0  0  0  0  0  0  0  0
    9.3987   -0.9911   25.0524 H   0  0  0  0  0  0  0  0  0  0  0  0
    8.1712   -1.1431   26.2907 H   0  0  0  0  0  0  0  0  0  0  0  0
    7.9644    0.6266   25.0618 C   0  0  0  0  0  0  0  0  0  0  0  0
    8.0978    0.8745   24.0044 H   0  0  0  0  0  0  0  0  0  0  0  0
    6.5052    0.9092   25.4201 C   0  0  0  0  0  0  0  0  0  0  0  0
    6.2884    1.9808   25.3678 H   0  0  0  0  0  0  0  0  0  0  0  0
    6.2830    0.5861   26.4439 H   0  0  0  0  0  0  0  0  0  0  0  0
    5.8067    0.4019   24.7451 H   0  0  0  0  0  0  0  0  0  0  0  0
    8.9086    1.5099   25.8732 C   0  0  0  0  0  0  0  0  0  0  0  0
    9.9551    1.3480   25.5926 H   0  0  0  0  0  0  0  0  0  0  0  0
    8.6844    2.5712   25.7237 H   0  0  0  0  0  0  0  0  0  0  0  0
    8.8114    1.3003   26.9444 H   0  0  0  0  0  0  0  0  0  0  0  0
    8.8499   -1.8041   22.1824 C   0  0  0  0  0  0  0  0  0  0  0  0
    9.6965   -2.3169   22.6265 H   0  0  0  0  0  0  0  0  0  0  0  0
    8.6490   -1.2813   20.9296 C   0  0  0  0  0  0  0  0  0  0  0  0
    9.3249   -1.2981   20.0863 H   0  0  0  0  0  0  0  0  0  0  0  0
    5.4189    0.6615   20.1661 C   0  0  0  0  0  0  0  0  0  0  0  0
    4.9936    0.6375   21.1744 H   0  0  0  0  0  0  0  0  0  0  0  0
    4.8026    1.3125   19.1039 C   0  0  0  0  0  0  0  0  0  0  0  0
    3.8700    1.8466   19.2518 H   0  0  0  0  0  0  0  0  0  0  0  0
  1  2  1  0
  2  3  2  0
  3  4  1  0
  4  5  1  0
  4  6  2  0
  6  7  1  0
  7  8  2  0
  8  9  1  0
  9 10  1  0
 10 11  1  0
 10 12  1  0
 10 13  1  0
 13 14  1  0
 13 15  1  0
 13 16  1  0
 16 17  1  0
 16 18  1  0
 18 19  1  0
 18 20  1  0
 18 21  1  0
 16 22  1  0
 22 23  1  0
 22 24  1  0
 22 25  1  0
  9 26  1  0
 26 27  1  0
 26 28  2  0
 28 29  1  0
  6 30  1  0
 30 31  1  0
 30 32  2  0
 32 33  1  0
 32  2  1  0
 28  7  1  0
M  END
>  <cnnaffinity>  (1) 
-4.66029

>  <filename>  (1) 
CC(C)CCn1ccc(-c2cccnc2)n1

$$$$
