
     RDKit          3D

 48 51  0  0  0  0  0  0  0  0999 V2000
   10.3752    5.6988   24.4969 C   0  0  0  0  0  0  0  0  0  0  0  0
    8.9937    5.6180   23.8557 C   0  0  0  0  0  0  0  0  0  0  0  0
    8.6297    6.9230   23.1495 C   0  0  0  0  0  0  0  0  0  0  0  0
    7.5853    6.8974   22.8178 H   0  0  0  0  0  0  0  0  0  0  0  0
    8.7555    7.7732   23.8274 H   0  0  0  0  0  0  0  0  0  0  0  0
    9.2660    7.0873   22.2737 H   0  0  0  0  0  0  0  0  0  0  0  0
    8.0634    5.4644   24.8992 F   0  0  0  0  0  0  0  0  0  0  0  0
    8.8680    4.4204   22.8919 C   0  0  0  0  0  0  0  0  0  0  0  0
    8.7547    3.0178   23.5342 C   0  0  0  0  0  0  0  0  0  0  0  0
    8.7082    1.8730   22.5558 C   0  0  0  0  0  0  0  0  0  0  0  0
    7.6776    1.0851   22.3264 N   0  0  0  0  0  0  0  0  0  0  0  0
    8.1084    0.2822   21.3159 C   0  0  0  0  0  0  0  0  0  0  0  0
    7.2342   -0.7517   20.6567 C   0  0  0  0  0  0  0  0  0  0  0  0
    6.4341   -0.1776   19.4952 C   0  0  0  0  0  0  0  0  0  0  0  0
    5.2684    0.5566   19.7495 C   0  0  0  0  0  0  0  0  0  0  0  0
    4.6741    1.2648   18.7044 C   0  0  0  0  0  0  0  0  0  0  0  0
    5.2696    1.2098   17.4417 C   0  0  0  0  0  0  0  0  0  0  0  0
    6.3409    0.4539   17.1577 N   0  0  0  0  0  0  0  0  0  0  0  0
    6.8914   -0.2309   18.1675 C   0  0  0  0  0  0  0  0  0  0  0  0
    7.7517   -0.8536   17.9155 H   0  0  0  0  0  0  0  0  0  0  0  0
    4.8776    1.8030   16.6199 H   0  0  0  0  0  0  0  0  0  0  0  0
    3.7865    1.8695   18.8559 H   0  0  0  0  0  0  0  0  0  0  0  0
    4.8513    0.5784   20.7576 H   0  0  0  0  0  0  0  0  0  0  0  0
    6.5550   -1.1391   21.4244 H   0  0  0  0  0  0  0  0  0  0  0  0
    7.8697   -1.5751   20.3143 H   0  0  0  0  0  0  0  0  0  0  0  0
    9.3480    0.5052   20.9279 N   0  0  0  0  0  0  0  0  0  0  0  0
    9.7431    1.5253   21.7330 N   0  0  0  0  0  0  0  0  0  0  0  0
   11.1055    1.9478   21.8461 C   0  0  0  0  0  0  0  0  0  0  0  0
   11.6845    2.9566   21.0719 C   0  0  0  0  0  0  0  0  0  0  0  0
   12.8532    3.6204   21.5080 C   0  0  0  0  0  0  0  0  0  0  0  0
   13.5472    3.1939   22.6356 C   0  0  0  0  0  0  0  0  0  0  0  0
   13.0721    2.0475   23.3094 C   0  0  0  0  0  0  0  0  0  0  0  0
   11.8687    1.4532   22.9115 C   0  0  0  0  0  0  0  0  0  0  0  0
   11.6969    0.3753   23.7513 N   0  0  0  0  0  0  0  0  0  0  0  0
   12.7822    0.3585   24.5792 C   0  0  0  0  0  0  0  0  0  0  0  0
   13.6165    1.3233   24.3516 N   0  0  0  0  0  0  0  0  0  0  0  0
   12.9019   -0.4005   25.3451 H   0  0  0  0  0  0  0  0  0  0  0  0
   11.0270   -0.3577   23.5949 H   0  0  0  0  0  0  0  0  0  0  0  0
   14.4642    3.6747   22.9502 H   0  0  0  0  0  0  0  0  0  0  0  0
   13.2423    4.4434   20.9134 H   0  0  0  0  0  0  0  0  0  0  0  0
   11.2562    3.2193   20.1161 H   0  0  0  0  0  0  0  0  0  0  0  0
    9.5959    2.8530   24.2144 H   0  0  0  0  0  0  0  0  0  0  0  0
    7.8471    2.9536   24.1411 H   0  0  0  0  0  0  0  0  0  0  0  0
    9.7530    4.4547   22.2509 H   0  0  0  0  0  0  0  0  0  0  0  0
    7.9977    4.5821   22.2446 H   0  0  0  0  0  0  0  0  0  0  0  0
   11.1469    5.8455   23.7314 H   0  0  0  0  0  0  0  0  0  0  0  0
   10.4197    6.5408   25.1940 H   0  0  0  0  0  0  0  0  0  0  0  0
   10.6063    4.7834   25.0498 H   0  0  0  0  0  0  0  0  0  0  0  0
  1  2  1  0
  2  3  1  0
  3  4  1  0
  3  5  1  0
  3  6  1  0
  2  7  1  0
  2  8  1  0
  8  9  1  0
  9 10  1  0
 10 11  2  0
 11 12  1  0
 12 13  1  0
 13 14  1  0
 14 15  2  0
 15 16  1  0
 16 17  2  0
 17 18  1  0
 18 19  2  0
 19 20  1  0
 17 21  1  0
 16 22  1  0
 15 23  1  0
 13 24  1  0
 13 25  1  0
 12 26  2  0
 26 27  1  0
 27 28  1  0
 28 29  2  0
 29 30  1  0
 30 31  2  0
 31 32  1  0
 32 33  2  0
 33 34  1  0
 34 35  1  0
 35 36  2  0
 35 37  1  0
 34 38  1  0
 31 39  1  0
 30 40  1  0
 29 41  1  0
  9 42  1  0
  9 43  1  0
  8 44  1  0
  8 45  1  0
  1 46  1  0
  1 47  1  0
  1 48  1  0
 27 10  1  0
 33 28  1  0
 19 14  1  0
 36 32  1  0
M  END
>  <cnnaffinity>  (1) 
-6.30209

>  <filename>  (1) 
CC(C)(F)CCc1nc(Cc2cccnc2)nn1-c1cccc2nc[nH]c12

$$$$
