
     RDKit          3D

 41 43  0  0  0  0  0  0  0  0999 V2000
    9.9151   -0.6392   24.9823 C   0  0  0  0  0  0  0  0  0  0  0  0
    8.3969   -0.7271   25.1981 C   0  0  0  0  0  0  0  0  0  0  0  0
    7.7642    0.6773   25.0044 C   0  0  0  0  0  0  0  0  0  0  0  0
    6.2634    0.7495   25.3438 C   0  0  0  0  0  0  0  0  0  0  0  0
    6.0058    0.4362   26.7991 C   0  0  0  0  0  0  0  0  0  0  0  0
    6.3242    1.3763   27.7925 C   0  0  0  0  0  0  0  0  0  0  0  0
    6.1012    1.0873   29.1441 C   0  0  0  0  0  0  0  0  0  0  0  0
    5.5534   -0.1430   29.5198 C   0  0  0  0  0  0  0  0  0  0  0  0
    5.2480   -0.5353   31.3638 Br  0  0  0  0  0  0  0  0  0  0  0  0
    5.2284   -1.0823   28.5361 C   0  0  0  0  0  0  0  0  0  0  0  0
    5.4509   -0.7943   27.1838 C   0  0  0  0  0  0  0  0  0  0  0  0
    5.1926   -1.5352   26.4339 H   0  0  0  0  0  0  0  0  0  0  0  0
    4.8033   -2.0391   28.8239 H   0  0  0  0  0  0  0  0  0  0  0  0
    6.3562    1.8188   29.9051 H   0  0  0  0  0  0  0  0  0  0  0  0
    6.7534    2.3351   27.5180 H   0  0  0  0  0  0  0  0  0  0  0  0
    5.9030    1.7628   25.1390 H   0  0  0  0  0  0  0  0  0  0  0  0
    5.6938    0.0707   24.7009 H   0  0  0  0  0  0  0  0  0  0  0  0
    8.2950    1.3946   25.6418 H   0  0  0  0  0  0  0  0  0  0  0  0
    7.9027    1.0078   23.9700 H   0  0  0  0  0  0  0  0  0  0  0  0
    7.7822   -1.8205   24.2908 C   0  0  0  0  0  0  0  0  0  0  0  0
    7.8619   -1.4756   22.8333 C   0  0  0  0  0  0  0  0  0  0  0  0
    8.8377   -1.8208   22.0252 N   0  0  0  0  0  0  0  0  0  0  0  0
    8.5247   -1.3045   20.7982 N   0  0  0  0  0  0  0  0  0  0  0  0
    7.3755   -0.6873   20.9367 C   0  0  0  0  0  0  0  0  0  0  0  0
    6.6609    0.0101   19.8962 C   0  0  0  0  0  0  0  0  0  0  0  0
    5.4457    0.6490   20.1605 C   0  0  0  0  0  0  0  0  0  0  0  0
    4.8129    1.3087   19.1121 C   0  0  0  0  0  0  0  0  0  0  0  0
    5.4004    1.2924   17.8419 C   0  0  0  0  0  0  0  0  0  0  0  0
    6.5709    0.6762   17.5943 N   0  0  0  0  0  0  0  0  0  0  0  0
    7.1912    0.0533   18.6075 C   0  0  0  0  0  0  0  0  0  0  0  0
    8.1357   -0.4417   18.3922 H   0  0  0  0  0  0  0  0  0  0  0  0
    4.8943    1.7783   17.0142 H   0  0  0  0  0  0  0  0  0  0  0  0
    3.8776    1.8396   19.2665 H   0  0  0  0  0  0  0  0  0  0  0  0
    5.0053    0.6332   21.1562 H   0  0  0  0  0  0  0  0  0  0  0  0
    6.9029   -0.7685   22.1974 O   0  0  0  0  0  0  0  0  0  0  0  0
    6.7329   -1.9785   24.5598 H   0  0  0  0  0  0  0  0  0  0  0  0
    8.3053   -2.7667   24.4490 H   0  0  0  0  0  0  0  0  0  0  0  0
    8.2363   -1.0362   26.2362 H   0  0  0  0  0  0  0  0  0  0  0  0
   10.1557   -0.2745   23.9805 H   0  0  0  0  0  0  0  0  0  0  0  0
   10.3699   -1.6229   25.1033 H   0  0  0  0  0  0  0  0  0  0  0  0
   10.3620    0.0392   25.7161 H   0  0  0  0  0  0  0  0  0  0  0  0
  1  2  1  0
  2  3  1  0
  3  4  1  0
  4  5  1  0
  5  6  2  0
  6  7  1  0
  7  8  2  0
  8  9  1  0
  8 10  1  0
 10 11  2  0
 11 12  1  0
 10 13  1  0
  7 14  1  0
  6 15  1  0
  4 16  1  0
  4 17  1  0
  3 18  1  0
  3 19  1  0
  2 20  1  0
 20 21  1  0
 21 22  2  0
 22 23  1  0
 23 24  2  0
 24 25  1  0
 25 26  2  0
 26 27  1  0
 27 28  2  0
 28 29  1  0
 29 30  2  0
 30 31  1  0
 28 32  1  0
 27 33  1  0
 26 34  1  0
 24 35  1  0
 20 36  1  0
 20 37  1  0
  2 38  1  0
  1 39  1  0
  1 40  1  0
  1 41  1  0
 11  5  1  0
 35 21  1  0
 30 25  1  0
M  END
>  <cnnaffinity>  (1) 
-5.62361

>  <filename>  (1) 
CC(CCc1ccc(Br)cc1)Cc1nnc(-c2cccnc2)o1

$$$$
