
     RDKit          3D

 46 47  0  0  0  0  0  0  0  0999 V2000
    6.5485   -2.0405   21.3401 C   0  0  0  0  0  0  0  0  0  0  0  0
    7.3619   -0.7483   21.0827 C   0  0  0  0  0  0  0  0  0  0  0  0
    8.8270   -1.1274   20.7577 C   0  0  0  0  0  0  0  0  0  0  0  0
    9.4129   -0.2464   20.4708 H   0  0  0  0  0  0  0  0  0  0  0  0
    8.8658   -1.8511   19.9437 H   0  0  0  0  0  0  0  0  0  0  0  0
    9.2992   -1.5932   21.6294 H   0  0  0  0  0  0  0  0  0  0  0  0
    7.4439    0.2109   22.3137 C   0  0  0  0  0  0  0  0  0  0  0  0
    8.0177    1.2789   22.2948 O   0  0  0  0  0  0  0  0  0  0  0  0
    6.8114   -0.2462   23.4240 O   0  0  0  0  0  0  0  0  0  0  0  0
    6.4351    0.7240   24.4443 C   0  0  0  0  0  0  0  0  0  0  0  0
    5.2623    1.6690   24.0836 C   0  0  0  0  0  0  0  0  0  0  0  0
    4.1051    1.3472   24.3019 O   0  0  0  0  0  0  0  0  0  0  0  0
    5.6005    2.8606   23.5202 N   0  0  0  0  0  0  0  0  0  0  0  0
    4.5864    3.6967   22.8752 C   0  0  0  0  0  0  0  0  0  0  0  0
    3.6928    4.4061   23.9107 C   0  0  0  0  0  0  0  0  0  0  0  0
    2.6257    5.2640   23.2619 C   0  0  0  0  0  0  0  0  0  0  0  0
    2.8861    6.6039   22.9366 C   0  0  0  0  0  0  0  0  0  0  0  0
    1.9257    7.3894   22.2885 C   0  0  0  0  0  0  0  0  0  0  0  0
    0.6864    6.8371   21.9458 C   0  0  0  0  0  0  0  0  0  0  0  0
    0.4175    5.4973   22.2481 C   0  0  0  0  0  0  0  0  0  0  0  0
    1.3838    4.7185   22.8968 C   0  0  0  0  0  0  0  0  0  0  0  0
    1.1811    3.6731   23.1222 H   0  0  0  0  0  0  0  0  0  0  0  0
   -0.5393    5.0583   21.9746 H   0  0  0  0  0  0  0  0  0  0  0  0
   -0.0613    7.4450   21.4413 H   0  0  0  0  0  0  0  0  0  0  0  0
    2.1481    8.4264   22.0474 H   0  0  0  0  0  0  0  0  0  0  0  0
    3.8546    7.0287   23.1916 H   0  0  0  0  0  0  0  0  0  0  0  0
    3.2360    3.6380   24.5474 H   0  0  0  0  0  0  0  0  0  0  0  0
    4.3322    5.0162   24.5613 H   0  0  0  0  0  0  0  0  0  0  0  0
    3.9452    3.0679   22.2366 H   0  0  0  0  0  0  0  0  0  0  0  0
    5.0877    4.4320   22.2288 H   0  0  0  0  0  0  0  0  0  0  0  0
    6.5756    3.0128   23.3082 H   0  0  0  0  0  0  0  0  0  0  0  0
    7.3100    1.3197   24.7117 H   0  0  0  0  0  0  0  0  0  0  0  0
    6.0907    0.1160   25.2810 H   0  0  0  0  0  0  0  0  0  0  0  0
    6.6746    0.0113   19.9146 C   0  0  0  0  0  0  0  0  0  0  0  0
    5.4462    0.6558   20.1433 C   0  0  0  0  0  0  0  0  0  0  0  0
    4.8001    1.3084   19.0894 C   0  0  0  0  0  0  0  0  0  0  0  0
    5.3982    1.2874   17.8239 C   0  0  0  0  0  0  0  0  0  0  0  0
    6.5526    0.6604   17.5680 N   0  0  0  0  0  0  0  0  0  0  0  0
    7.1663    0.0493   18.5939 C   0  0  0  0  0  0  0  0  0  0  0  0
    8.1132   -0.4235   18.3402 H   0  0  0  0  0  0  0  0  0  0  0  0
    4.9329    1.8002   16.9836 H   0  0  0  0  0  0  0  0  0  0  0  0
    3.8648    1.8440   19.2361 H   0  0  0  0  0  0  0  0  0  0  0  0
    4.9938    0.6510   21.1413 H   0  0  0  0  0  0  0  0  0  0  0  0
    5.5054   -1.8285   21.5911 H   0  0  0  0  0  0  0  0  0  0  0  0
    6.5437   -2.6448   20.4289 H   0  0  0  0  0  0  0  0  0  0  0  0
    6.9778   -2.6436   22.1420 H   0  0  0  0  0  0  0  0  0  0  0  0
  1  2  1  0
  2  3  1  0
  3  4  1  0
  3  5  1  0
  3  6  1  0
  2  7  1  0
  7  8  2  0
  7  9  1  0
  9 10  1  0
 10 11  1  0
 11 12  2  0
 11 13  1  0
 13 14  1  0
 14 15  1  0
 15 16  1  0
 16 17  2  0
 17 18  1  0
 18 19  2  0
 19 20  1  0
 20 21  2  0
 21 22  1  0
 20 23  1  0
 19 24  1  0
 18 25  1  0
 17 26  1  0
 15 27  1  0
 15 28  1  0
 14 29  1  0
 14 30  1  0
 13 31  1  0
 10 32  1  0
 10 33  1  0
  2 34  1  0
 34 35  2  0
 35 36  1  0
 36 37  2  0
 37 38  1  0
 38 39  2  0
 39 40  1  0
 37 41  1  0
 36 42  1  0
 35 43  1  0
  1 44  1  0
  1 45  1  0
  1 46  1  0
 21 16  1  0
 39 34  1  0
M  END
>  <cnnaffinity>  (1) 
-4.63593

>  <filename>  (1) 
CC(C)(C(=O)OCC(=O)NCCc1ccccc1)c1cccnc1

$$$$
