
     RDKit          3D

 41 44  0  0  0  0  0  0  0  0999 V2000
    6.5388   -2.0572   21.3046 C   0  0  0  0  0  0  0  0  0  0  0  0
    7.3504   -0.7626   21.0584 C   0  0  0  0  0  0  0  0  0  0  0  0
    8.8215   -1.1381   20.7405 C   0  0  0  0  0  0  0  0  0  0  0  0
    8.8631   -1.8600   19.9264 H   0  0  0  0  0  0  0  0  0  0  0  0
    9.4228   -0.2692   20.4475 H   0  0  0  0  0  0  0  0  0  0  0  0
    9.2887   -1.6075   21.6142 H   0  0  0  0  0  0  0  0  0  0  0  0
    6.6711    0.0101   19.8978 C   0  0  0  0  0  0  0  0  0  0  0  0
    5.4430    0.6503   20.1306 C   0  0  0  0  0  0  0  0  0  0  0  0
    4.8018    1.3084   19.0806 C   0  0  0  0  0  0  0  0  0  0  0  0
    5.3925    1.2914   17.8138 C   0  0  0  0  0  0  0  0  0  0  0  0
    6.5495    0.6694   17.5600 N   0  0  0  0  0  0  0  0  0  0  0  0
    7.1661    0.0541   18.5807 C   0  0  0  0  0  0  0  0  0  0  0  0
    8.1155   -0.4141   18.3217 H   0  0  0  0  0  0  0  0  0  0  0  0
    4.9266    1.8043   16.9731 H   0  0  0  0  0  0  0  0  0  0  0  0
    3.8733    1.8406   19.2329 H   0  0  0  0  0  0  0  0  0  0  0  0
    5.0138    0.6386   21.1359 H   0  0  0  0  0  0  0  0  0  0  0  0
    7.3585    0.0867   22.3409 C   0  0  0  0  0  0  0  0  0  0  0  0
    6.8294   -0.1231   23.5148 N   0  0  0  0  0  0  0  0  0  0  0  0
    7.1828    1.0089   24.2016 C   0  0  0  0  0  0  0  0  0  0  0  0
    6.7081    1.2100   25.6012 C   0  0  0  0  0  0  0  0  0  0  0  0
    5.3004    1.7171   25.5747 C   0  0  0  0  0  0  0  0  0  0  0  0
    4.1348    1.0481   25.4441 C   0  0  0  0  0  0  0  0  0  0  0  0
    3.1005    2.0534   25.3901 C   0  0  0  0  0  0  0  0  0  0  0  0
    1.7008    2.0374   25.2856 C   0  0  0  0  0  0  0  0  0  0  0  0
    1.0216    3.2497   25.2898 C   0  0  0  0  0  0  0  0  0  0  0  0
    1.7200    4.4711   25.3929 C   0  0  0  0  0  0  0  0  0  0  0  0
    3.1102    4.5136   25.4902 C   0  0  0  0  0  0  0  0  0  0  0  0
    3.7703    3.2816   25.4826 C   0  0  0  0  0  0  0  0  0  0  0  0
    5.1208    3.0697   25.5730 O   0  0  0  0  0  0  0  0  0  0  0  0
    3.6534    5.4501   25.5700 H   0  0  0  0  0  0  0  0  0  0  0  0
    1.1528    5.3986   25.3930 H   0  0  0  0  0  0  0  0  0  0  0  0
   -0.0610    3.2589   25.2145 H   0  0  0  0  0  0  0  0  0  0  0  0
    1.1782    1.0893   25.2116 H   0  0  0  0  0  0  0  0  0  0  0  0
    4.0174   -0.0239   25.3659 H   0  0  0  0  0  0  0  0  0  0  0  0
    6.7194    0.2134   26.0523 H   0  0  0  0  0  0  0  0  0  0  0  0
    7.3802    1.8831   26.1378 H   0  0  0  0  0  0  0  0  0  0  0  0
    7.8990    1.8576   23.5256 N   0  0  0  0  0  0  0  0  0  0  0  0
    8.0296    1.2422   22.2893 O   0  0  0  0  0  0  0  0  0  0  0  0
    6.9790   -2.6498   22.1136 H   0  0  0  0  0  0  0  0  0  0  0  0
    6.5099   -2.6658   20.3946 H   0  0  0  0  0  0  0  0  0  0  0  0
    5.5060   -1.8180   21.5799 H   0  0  0  0  0  0  0  0  0  0  0  0
  1  2  1  0
  2  3  1  0
  3  4  1  0
  3  5  1  0
  3  6  1  0
  2  7  1  0
  7  8  2  0
  8  9  1  0
  9 10  2  0
 10 11  1  0
 11 12  2  0
 12 13  1  0
 10 14  1  0
  9 15  1  0
  8 16  1  0
  2 17  1  0
 17 18  2  0
 18 19  1  0
 19 20  1  0
 20 21  1  0
 21 22  2  0
 22 23  1  0
 23 24  2  0
 24 25  1  0
 25 26  2  0
 26 27  1  0
 27 28  2  0
 28 29  1  0
 27 30  1  0
 26 31  1  0
 25 32  1  0
 24 33  1  0
 22 34  1  0
 20 35  1  0
 20 36  1  0
 19 37  2  0
 37 38  1  0
  1 39  1  0
  1 40  1  0
  1 41  1  0
 12  7  1  0
 38 17  1  0
 29 21  1  0
 28 23  1  0
M  END
>  <cnnaffinity>  (1) 
-5.49105

>  <filename>  (1) 
CC(C)(c1cccnc1)c1nc(Cc2cc3ccccc3o2)no1

$$$$
