
     RDKit          3D

 33 34  0  0  0  0  0  0  0  0999 V2000
    4.9876    1.5169   17.0894 H   0  0  0  0  0  0  0  0  0  0  0  0
    5.5065    1.1293   17.9674 C   0  0  0  0  0  0  0  0  0  0  0  0
    6.6378    0.4479   17.7409 N   0  0  0  0  0  0  0  0  0  0  0  0
    7.2765   -0.0551   18.8109 C   0  0  0  0  0  0  0  0  0  0  0  0
    8.1987   -0.5873   18.5778 H   0  0  0  0  0  0  0  0  0  0  0  0
    6.8522    0.0622   20.1620 C   0  0  0  0  0  0  0  0  0  0  0  0
    7.5203   -0.6938   21.3531 C   0  0  0  0  0  0  0  0  0  0  0  0
    6.5161   -0.9848   22.4832 C   0  0  0  0  0  0  0  0  0  0  0  0
    5.7452   -1.6516   22.0777 H   0  0  0  0  0  0  0  0  0  0  0  0
    6.9986   -1.4815   23.3291 H   0  0  0  0  0  0  0  0  0  0  0  0
    6.0379   -0.0808   22.8749 H   0  0  0  0  0  0  0  0  0  0  0  0
    8.0714   -2.0402   20.8551 C   0  0  0  0  0  0  0  0  0  0  0  0
    7.2645   -2.5908   20.3560 H   0  0  0  0  0  0  0  0  0  0  0  0
    8.8921   -1.8854   20.1492 H   0  0  0  0  0  0  0  0  0  0  0  0
    8.4427   -2.6481   21.6862 H   0  0  0  0  0  0  0  0  0  0  0  0
    9.0427    0.1448   22.1710 S   0  0  0  0  0  0  0  0  0  0  0  0
    9.4139   -0.6631   23.3250 O   0  0  0  0  0  0  0  0  0  0  0  0
   10.0184    0.4217   21.1233 O   0  0  0  0  0  0  0  0  0  0  0  0
    8.4583    1.6811   22.7610 C   0  0  0  0  0  0  0  0  0  0  0  0
    8.3524    2.7380   21.8721 C   0  0  0  0  0  0  0  0  0  0  0  0
    8.5200    2.4775   20.5714 F   0  0  0  0  0  0  0  0  0  0  0  0
    8.1028    4.0403   22.2924 C   0  0  0  0  0  0  0  0  0  0  0  0
    8.0279    4.8262   21.5463 H   0  0  0  0  0  0  0  0  0  0  0  0
    7.9712    4.2817   23.6653 C   0  0  0  0  0  0  0  0  0  0  0  0
    7.8032    5.2942   24.0301 H   0  0  0  0  0  0  0  0  0  0  0  0
    8.0198    3.2200   24.5746 C   0  0  0  0  0  0  0  0  0  0  0  0
    7.9500    3.3801   25.6422 H   0  0  0  0  0  0  0  0  0  0  0  0
    8.2070    1.9204   24.1058 C   0  0  0  0  0  0  0  0  0  0  0  0
    8.1263    0.9162   24.9776 F   0  0  0  0  0  0  0  0  0  0  0  0
    5.7000    0.8431   20.3502 C   0  0  0  0  0  0  0  0  0  0  0  0
    5.3226    1.0261   21.3541 H   0  0  0  0  0  0  0  0  0  0  0  0
    4.9999    1.3510   19.2483 C   0  0  0  0  0  0  0  0  0  0  0  0
    4.0819    1.9152   19.3804 H   0  0  0  0  0  0  0  0  0  0  0  0
  1  2  1  0
  2  3  2  0
  3  4  1  0
  4  5  1  0
  4  6  2  0
  6  7  1  0
  7  8  1  0
  8  9  1  0
  8 10  1  0
  8 11  1  0
  7 12  1  0
 12 13  1  0
 12 14  1  0
 12 15  1  0
  7 16  1  0
 16 17  2  0
 16 18  2  0
 16 19  1  0
 19 20  2  0
 20 21  1  0
 20 22  1  0
 22 23  1  0
 22 24  2  0
 24 25  1  0
 24 26  1  0
 26 27  1  0
 26 28  2  0
 28 29  1  0
  6 30  1  0
 30 31  1  0
 30 32  2  0
 32 33  1  0
 32  2  1  0
 28 19  1  0
M  END
>  <cnnaffinity>  (1) 
-4.83707

>  <filename>  (1) 
CC(C)(c1cccnc1)S(=O)(=O)c1c(F)cccc1F

$$$$
