
     RDKit          3D

 35 36  0  0  0  0  0  0  0  0999 V2000
    4.9163    1.7959   16.9829 H   0  0  0  0  0  0  0  0  0  0  0  0
    5.3964    1.2972   17.8225 C   0  0  0  0  0  0  0  0  0  0  0  0
    6.5529    0.6808   17.5567 N   0  0  0  0  0  0  0  0  0  0  0  0
    7.1677    0.0619   18.5793 C   0  0  0  0  0  0  0  0  0  0  0  0
    8.1121   -0.4148   18.3315 H   0  0  0  0  0  0  0  0  0  0  0  0
    6.6725    0.0079   19.8983 C   0  0  0  0  0  0  0  0  0  0  0  0
    7.3490   -0.7646   21.0511 C   0  0  0  0  0  0  0  0  0  0  0  0
    7.4219    0.1572   22.3295 C   0  0  0  0  0  0  0  0  0  0  0  0
    7.0150   -0.2030   23.4163 O   0  0  0  0  0  0  0  0  0  0  0  0
    8.0739    1.5325   22.1804 C   0  0  0  0  0  0  0  0  0  0  0  0
    8.3672    1.6922   21.1350 H   0  0  0  0  0  0  0  0  0  0  0  0
    9.3078    1.6871   23.0916 C   0  0  0  0  0  0  0  0  0  0  0  0
   10.2084    1.2452   22.6444 H   0  0  0  0  0  0  0  0  0  0  0  0
    9.1285    1.1480   24.0284 H   0  0  0  0  0  0  0  0  0  0  0  0
    9.4415    3.1986   23.3528 C   0  0  0  0  0  0  0  0  0  0  0  0
   10.1914    3.6479   22.6914 H   0  0  0  0  0  0  0  0  0  0  0  0
    9.7888    3.3908   24.3741 H   0  0  0  0  0  0  0  0  0  0  0  0
    8.0449    3.8239   23.0812 C   0  0  0  0  0  0  0  0  0  0  0  0
    7.6306    4.3019   23.9757 H   0  0  0  0  0  0  0  0  0  0  0  0
    8.1238    4.6171   22.3291 H   0  0  0  0  0  0  0  0  0  0  0  0
    7.1288    2.6795   22.5977 C   0  0  0  0  0  0  0  0  0  0  0  0
    6.4580    2.9754   21.7796 H   0  0  0  0  0  0  0  0  0  0  0  0
    6.4872    2.3354   23.4166 H   0  0  0  0  0  0  0  0  0  0  0  0
    8.8055   -1.1799   20.7341 C   0  0  0  0  0  0  0  0  0  0  0  0
    9.2767   -1.6454   21.6083 H   0  0  0  0  0  0  0  0  0  0  0  0
    9.4233   -0.3367   20.4052 H   0  0  0  0  0  0  0  0  0  0  0  0
    8.8382   -1.9161   19.9349 H   0  0  0  0  0  0  0  0  0  0  0  0
    6.5141   -2.0317   21.3399 C   0  0  0  0  0  0  0  0  0  0  0  0
    5.4984   -1.7671   21.6468 H   0  0  0  0  0  0  0  0  0  0  0  0
    6.4361   -2.6483   20.4361 H   0  0  0  0  0  0  0  0  0  0  0  0
    6.9654   -2.6227   22.1435 H   0  0  0  0  0  0  0  0  0  0  0  0
    5.4514    0.6561   20.1403 C   0  0  0  0  0  0  0  0  0  0  0  0
    5.0154    0.6461   21.1447 H   0  0  0  0  0  0  0  0  0  0  0  0
    4.8089    1.3150   19.0916 C   0  0  0  0  0  0  0  0  0  0  0  0
    3.8788    1.8389   19.2479 H   0  0  0  0  0  0  0  0  0  0  0  0
  1  2  1  0
  2  3  2  0
  3  4  1  0
  4  5  1  0
  4  6  2  0
  6  7  1  0
  7  8  1  0
  8  9  2  0
  8 10  1  0
 10 11  1  0
 10 12  1  0
 12 13  1  0
 12 14  1  0
 12 15  1  0
 15 16  1  0
 15 17  1  0
 15 18  1  0
 18 19  1  0
 18 20  1  0
 18 21  1  0
 21 22  1  0
 21 23  1  0
  7 24  1  0
 24 25  1  0
 24 26  1  0
 24 27  1  0
  7 28  1  0
 28 29  1  0
 28 30  1  0
 28 31  1  0
  6 32  1  0
 32 33  1  0
 32 34  2  0
 34 35  1  0
 34  2  1  0
 21 10  1  0
M  END
>  <cnnaffinity>  (1) 
-4.7405

>  <filename>  (1) 
CC(C)(C(=O)C1CCCC1)c1cccnc1

$$$$
