
     RDKit          3D

 40 42  0  0  0  0  0  0  0  0999 V2000
    5.1916    1.8166   16.8433 H   0  0  0  0  0  0  0  0  0  0  0  0
    5.5951    1.3473   17.7381 C   0  0  0  0  0  0  0  0  0  0  0  0
    6.7527    0.6870   17.5852 N   0  0  0  0  0  0  0  0  0  0  0  0
    7.2708    0.0958   18.6681 C   0  0  0  0  0  0  0  0  0  0  0  0
    8.2052   -0.4414   18.5042 H   0  0  0  0  0  0  0  0  0  0  0  0
    6.6588    0.1081   19.9238 C   0  0  0  0  0  0  0  0  0  0  0  0
    7.2261   -0.6780   21.0518 C   0  0  0  0  0  0  0  0  0  0  0  0
    6.5141   -1.3593   21.7746 O   0  0  0  0  0  0  0  0  0  0  0  0
    8.5701   -0.5611   21.2207 N   0  0  0  0  0  0  0  0  0  0  0  0
    9.0571    0.0573   20.6017 H   0  0  0  0  0  0  0  0  0  0  0  0
    9.3671   -1.3282   22.1967 C   0  0  0  0  0  0  0  0  0  0  0  0
   10.8542   -0.8843   22.1437 C   0  0  0  0  0  0  0  0  0  0  0  0
   11.8590   -1.8342   22.0951 C   0  0  0  0  0  0  0  0  0  0  0  0
   11.6068   -2.8803   22.0183 H   0  0  0  0  0  0  0  0  0  0  0  0
   13.2399   -1.5303   22.1814 C   0  0  0  0  0  0  0  0  0  0  0  0
   13.9601   -2.3434   22.1367 H   0  0  0  0  0  0  0  0  0  0  0  0
   13.6425   -0.2441   22.3899 C   0  0  0  0  0  0  0  0  0  0  0  0
   14.6902    0.0194   22.5154 H   0  0  0  0  0  0  0  0  0  0  0  0
   12.6679    0.7962   22.4652 C   0  0  0  0  0  0  0  0  0  0  0  0
   13.0945    2.1293   22.7293 C   0  0  0  0  0  0  0  0  0  0  0  0
   14.1574    2.2943   22.8890 H   0  0  0  0  0  0  0  0  0  0  0  0
   12.1934    3.1621   22.7925 C   0  0  0  0  0  0  0  0  0  0  0  0
   12.5262    4.1753   23.0042 H   0  0  0  0  0  0  0  0  0  0  0  0
   10.8139    2.9037   22.5770 C   0  0  0  0  0  0  0  0  0  0  0  0
   10.1063    3.7270   22.6139 H   0  0  0  0  0  0  0  0  0  0  0  0
   10.3654    1.6223   22.3318 C   0  0  0  0  0  0  0  0  0  0  0  0
    9.3043    1.4583   22.1869 H   0  0  0  0  0  0  0  0  0  0  0  0
   11.2700    0.5034   22.2974 C   0  0  0  0  0  0  0  0  0  0  0  0
    9.1883   -2.8108   21.7948 C   0  0  0  0  0  0  0  0  0  0  0  0
    9.6491   -2.9652   20.8149 H   0  0  0  0  0  0  0  0  0  0  0  0
    8.1254   -3.0417   21.7073 H   0  0  0  0  0  0  0  0  0  0  0  0
    9.6443   -3.4836   22.5281 H   0  0  0  0  0  0  0  0  0  0  0  0
    8.8307   -1.1405   23.6313 C   0  0  0  0  0  0  0  0  0  0  0  0
    7.7755   -1.4138   23.6710 H   0  0  0  0  0  0  0  0  0  0  0  0
    8.9398   -0.1049   23.9705 H   0  0  0  0  0  0  0  0  0  0  0  0
    9.3974   -1.7816   24.3162 H   0  0  0  0  0  0  0  0  0  0  0  0
    5.4292    0.7731   20.0647 C   0  0  0  0  0  0  0  0  0  0  0  0
    4.9075    0.7725   21.0243 H   0  0  0  0  0  0  0  0  0  0  0  0
    4.9005    1.4195   18.9518 C   0  0  0  0  0  0  0  0  0  0  0  0
    3.9714    1.9774   19.0073 H   0  0  0  0  0  0  0  0  0  0  0  0
  1  2  1  0
  2  3  2  0
  3  4  1  0
  4  5  1  0
  4  6  2  0
  6  7  1  0
  7  8  2  0
  7  9  1  0
  9 10  1  0
  9 11  1  0
 11 12  1  0
 12 13  2  0
 13 14  1  0
 13 15  1  0
 15 16  1  0
 15 17  2  0
 17 18  1  0
 17 19  1  0
 19 20  2  0
 20 21  1  0
 20 22  1  0
 22 23  1  0
 22 24  2  0
 24 25  1  0
 24 26  1  0
 26 27  1  0
 26 28  2  0
 11 29  1  0
 29 30  1  0
 29 31  1  0
 29 32  1  0
 11 33  1  0
 33 34  1  0
 33 35  1  0
 33 36  1  0
  6 37  1  0
 37 38  1  0
 37 39  2  0
 39 40  1  0
 39  2  1  0
 28 12  1  0
 28 19  1  0
M  END
>  <cnnaffinity>  (1) 
-5.81263

>  <filename>  (1) 
CC(C)(NC(=O)c1cccnc1)c1cccc2ccccc12

$$$$
