
     RDKit          3D

 37 38  0  0  0  0  0  0  0  0999 V2000
    7.0157    3.4619   23.9967 C   0  0  0  0  0  0  0  0  0  0  0  0
    7.5554    2.0239   24.0809 C   0  0  0  0  0  0  0  0  0  0  0  0
    8.9136    1.9168   24.8404 C   0  0  0  0  0  0  0  0  0  0  0  0
    9.3087    0.4649   25.0132 C   0  0  0  0  0  0  0  0  0  0  0  0
    9.9820   -0.2245   23.9882 C   0  0  0  0  0  0  0  0  0  0  0  0
   10.1100   -1.6168   24.0256 C   0  0  0  0  0  0  0  0  0  0  0  0
    9.5748   -2.3162   25.1063 C   0  0  0  0  0  0  0  0  0  0  0  0
    9.6630   -3.6572   25.1258 F   0  0  0  0  0  0  0  0  0  0  0  0
    8.9665   -1.6627   26.1749 C   0  0  0  0  0  0  0  0  0  0  0  0
    8.8787   -0.2658   26.1365 C   0  0  0  0  0  0  0  0  0  0  0  0
    8.4859    0.2606   27.0063 H   0  0  0  0  0  0  0  0  0  0  0  0
    8.5902   -2.2426   27.0133 H   0  0  0  0  0  0  0  0  0  0  0  0
   10.6185   -2.1599   23.2368 H   0  0  0  0  0  0  0  0  0  0  0  0
   10.3780    0.3320   23.1361 H   0  0  0  0  0  0  0  0  0  0  0  0
    9.6928    2.4761   24.3005 H   0  0  0  0  0  0  0  0  0  0  0  0
    8.8073    2.3923   25.8247 H   0  0  0  0  0  0  0  0  0  0  0  0
    7.6783    1.4003   22.6928 C   0  0  0  0  0  0  0  0  0  0  0  0
    8.1500    1.9321   21.7179 O   0  0  0  0  0  0  0  0  0  0  0  0
    7.1396    0.1244   22.6248 N   0  0  0  0  0  0  0  0  0  0  0  0
    7.5308   -0.7242   21.2701 S   0  0  0  0  0  0  0  0  0  0  0  0
    8.9524   -0.6352   20.9992 O   0  0  0  0  0  0  0  0  0  0  0  0
    6.9133   -2.0051   21.5298 O   0  0  0  0  0  0  0  0  0  0  0  0
    6.6659    0.1670   20.0774 C   0  0  0  0  0  0  0  0  0  0  0  0
    5.4232    0.7876   20.2501 C   0  0  0  0  0  0  0  0  0  0  0  0
    4.8451    1.3325   19.1080 C   0  0  0  0  0  0  0  0  0  0  0  0
    5.5129    1.2246   17.8837 C   0  0  0  0  0  0  0  0  0  0  0  0
    6.7003    0.6211   17.7419 N   0  0  0  0  0  0  0  0  0  0  0  0
    7.2733    0.1173   18.8328 C   0  0  0  0  0  0  0  0  0  0  0  0
    8.2535   -0.3358   18.6994 H   0  0  0  0  0  0  0  0  0  0  0  0
    5.0823    1.6454   16.9769 H   0  0  0  0  0  0  0  0  0  0  0  0
    3.8929    1.8464   19.1424 H   0  0  0  0  0  0  0  0  0  0  0  0
    4.9196    0.8753   21.2176 H   0  0  0  0  0  0  0  0  0  0  0  0
    7.3011   -0.5112   23.3888 H   0  0  0  0  0  0  0  0  0  0  0  0
    6.8132    1.4236   24.6302 H   0  0  0  0  0  0  0  0  0  0  0  0
    7.6716    4.1189   23.4170 H   0  0  0  0  0  0  0  0  0  0  0  0
    6.8926    3.8900   24.9962 H   0  0  0  0  0  0  0  0  0  0  0  0
    6.0377    3.4791   23.5060 H   0  0  0  0  0  0  0  0  0  0  0  0
  1  2  1  0
  2  3  1  0
  3  4  1  0
  4  5  2  0
  5  6  1  0
  6  7  2  0
  7  8  1  0
  7  9  1  0
  9 10  2  0
 10 11  1  0
  9 12  1  0
  6 13  1  0
  5 14  1  0
  3 15  1  0
  3 16  1  0
  2 17  1  0
 17 18  2  0
 17 19  1  0
 19 20  1  0
 20 21  2  0
 20 22  2  0
 20 23  1  0
 23 24  2  0
 24 25  1  0
 25 26  2  0
 26 27  1  0
 27 28  2  0
 28 29  1  0
 26 30  1  0
 25 31  1  0
 24 32  1  0
 19 33  1  0
  2 34  1  0
  1 35  1  0
  1 36  1  0
  1 37  1  0
 10  4  1  0
 28 23  1  0
M  END
>  <cnnaffinity>  (1) 
-5.28526

>  <filename>  (1) 
CC(Cc1ccc(F)cc1)C(=O)NS(=O)(=O)c1cccnc1

$$$$
