
     RDKit          3D

 49 53  0  0  0  0  0  0  0  0999 V2000
   11.8006    2.5816   21.2257 C   0  0  0  0  0  0  0  0  0  0  0  0
   11.2635    2.0313   22.5528 C   0  0  0  0  0  0  0  0  0  0  0  0
   12.1477    0.9118   23.1627 C   0  0  0  0  0  0  0  0  0  0  0  0
   12.3598   -0.3890   22.3298 C   0  0  0  0  0  0  0  0  0  0  0  0
   13.8902   -0.2161   22.4159 C   0  0  0  0  0  0  0  0  0  0  0  0
   13.6935    1.0965   23.2129 C   0  0  0  0  0  0  0  0  0  0  0  0
   14.0974    2.0003   22.7484 H   0  0  0  0  0  0  0  0  0  0  0  0
   14.0945    1.0461   24.2257 H   0  0  0  0  0  0  0  0  0  0  0  0
   14.3984   -1.0074   22.9739 H   0  0  0  0  0  0  0  0  0  0  0  0
   14.3962   -0.1147   21.4489 H   0  0  0  0  0  0  0  0  0  0  0  0
   11.9657   -1.2981   22.7887 H   0  0  0  0  0  0  0  0  0  0  0  0
   11.9544   -0.3491   21.3173 H   0  0  0  0  0  0  0  0  0  0  0  0
   11.7589    0.7031   24.1661 H   0  0  0  0  0  0  0  0  0  0  0  0
    9.8681    1.5430   22.3969 N   0  0  0  0  0  0  0  0  0  0  0  0
    9.5716    0.6331   21.4395 N   0  0  0  0  0  0  0  0  0  0  0  0
    8.3188    0.3019   21.7007 C   0  0  0  0  0  0  0  0  0  0  0  0
    7.5622   -0.6730   20.8420 C   0  0  0  0  0  0  0  0  0  0  0  0
    6.7586   -0.0206   19.7148 C   0  0  0  0  0  0  0  0  0  0  0  0
    5.5656    0.6594   20.0079 C   0  0  0  0  0  0  0  0  0  0  0  0
    4.8883    1.3141   18.9778 C   0  0  0  0  0  0  0  0  0  0  0  0
    5.4251    1.2727   17.6891 C   0  0  0  0  0  0  0  0  0  0  0  0
    6.5511    0.6108   17.3782 N   0  0  0  0  0  0  0  0  0  0  0  0
    7.1860   -0.0167   18.3748 C   0  0  0  0  0  0  0  0  0  0  0  0
    8.1031   -0.5402   18.0982 H   0  0  0  0  0  0  0  0  0  0  0  0
    4.9348    1.7912   16.8683 H   0  0  0  0  0  0  0  0  0  0  0  0
    3.9710    1.8664   19.1559 H   0  0  0  0  0  0  0  0  0  0  0  0
    5.1948    0.6805   21.0351 H   0  0  0  0  0  0  0  0  0  0  0  0
    6.8865   -1.2149   21.5148 H   0  0  0  0  0  0  0  0  0  0  0  0
    8.2833   -1.3953   20.4413 H   0  0  0  0  0  0  0  0  0  0  0  0
    7.7815    0.9296   22.7714 N   0  0  0  0  0  0  0  0  0  0  0  0
    8.7541    1.7386   23.1660 C   0  0  0  0  0  0  0  0  0  0  0  0
    8.6588    2.7215   24.2593 C   0  0  0  0  0  0  0  0  0  0  0  0
    8.3343    2.3918   25.5589 C   0  0  0  0  0  0  0  0  0  0  0  0
    8.4922    3.3638   26.5926 C   0  0  0  0  0  0  0  0  0  0  0  0
    8.9779    4.6283   26.3243 C   0  0  0  0  0  0  0  0  0  0  0  0
    9.2471    5.0002   24.9779 C   0  0  0  0  0  0  0  0  0  0  0  0
    9.6524    6.1393   24.3026 C   0  0  0  0  0  0  0  0  0  0  0  0
    9.5998    5.9579   22.9560 N   0  0  0  0  0  0  0  0  0  0  0  0
    9.1773    4.7244   22.7791 C   0  0  0  0  0  0  0  0  0  0  0  0
    8.9851    4.0623   23.9675 N   0  0  0  0  0  0  0  0  0  0  0  0
    8.9430    4.2453   21.8438 H   0  0  0  0  0  0  0  0  0  0  0  0
    9.9780    7.0743   24.7380 H   0  0  0  0  0  0  0  0  0  0  0  0
    9.1619    5.3586   27.1036 H   0  0  0  0  0  0  0  0  0  0  0  0
    8.2427    3.0972   27.6166 H   0  0  0  0  0  0  0  0  0  0  0  0
    8.0023    1.3848   25.7996 H   0  0  0  0  0  0  0  0  0  0  0  0
   11.2003    2.8402   23.2823 H   0  0  0  0  0  0  0  0  0  0  0  0
   10.9892    2.9196   20.5858 H   0  0  0  0  0  0  0  0  0  0  0  0
   12.5077    3.4074   21.3689 H   0  0  0  0  0  0  0  0  0  0  0  0
   12.3111    1.8039   20.6643 H   0  0  0  0  0  0  0  0  0  0  0  0
  1  2  1  0
  2  3  1  0
  3  4  1  0
  4  5  1  0
  5  6  1  0
  6  7  1  0
  6  8  1  0
  5  9  1  0
  5 10  1  0
  4 11  1  0
  4 12  1  0
  3 13  1  0
  2 14  1  0
 14 15  1  0
 15 16  2  0
 16 17  1  0
 17 18  1  0
 18 19  2  0
 19 20  1  0
 20 21  2  0
 21 22  1  0
 22 23  2  0
 23 24  1  0
 21 25  1  0
 20 26  1  0
 19 27  1  0
 17 28  1  0
 17 29  1  0
 16 30  1  0
 30 31  2  0
 31 32  1  0
 32 33  2  0
 33 34  1  0
 34 35  2  0
 35 36  1  0
 36 37  2  0
 37 38  1  0
 38 39  2  0
 39 40  1  0
 39 41  1  0
 37 42  1  0
 35 43  1  0
 34 44  1  0
 33 45  1  0
  2 46  1  0
  1 47  1  0
  1 48  1  0
  1 49  1  0
  6  3  1  0
 31 14  1  0
 40 32  1  0
 23 18  1  0
 40 36  1  0
M  END
>  <cnnaffinity>  (1) 
-6.00669

>  <filename>  (1) 
CC(C1CCC1)n1nc(Cc2cccnc2)nc1-c1cccc2cncn12

$$$$
