
     RDKit          3D

 48 51  0  0  0  0  0  0  0  0999 V2000
    5.4156   -3.4162   24.1379 C   0  0  0  0  0  0  0  0  0  0  0  0
    6.8377   -3.1133   24.6123 C   0  0  0  0  0  0  0  0  0  0  0  0
    7.1366   -3.5893   26.0405 C   0  0  0  0  0  0  0  0  0  0  0  0
    6.4367   -2.8791   27.0430 O   0  0  0  0  0  0  0  0  0  0  0  0
    6.7464   -1.9649   27.0178 H   0  0  0  0  0  0  0  0  0  0  0  0
    8.2267   -3.5589   26.2243 H   0  0  0  0  0  0  0  0  0  0  0  0
    6.8308   -4.6365   26.1393 H   0  0  0  0  0  0  0  0  0  0  0  0
    7.1619   -1.6141   24.4202 C   0  0  0  0  0  0  0  0  0  0  0  0
    7.4022   -1.2689   23.0248 N   0  0  0  0  0  0  0  0  0  0  0  0
    6.5287   -0.5235   22.3249 N   0  0  0  0  0  0  0  0  0  0  0  0
    7.0185   -0.5513   21.1009 C   0  0  0  0  0  0  0  0  0  0  0  0
    6.4001    0.1220   19.9671 C   0  0  0  0  0  0  0  0  0  0  0  0
    5.1904    0.8370   20.0260 C   0  0  0  0  0  0  0  0  0  0  0  0
    4.7323    1.4259   18.8488 C   0  0  0  0  0  0  0  0  0  0  0  0
    5.4855    1.2792   17.6762 C   0  0  0  0  0  0  0  0  0  0  0  0
    6.6317    0.5861   17.6116 N   0  0  0  0  0  0  0  0  0  0  0  0
    7.0717    0.0288   18.7428 C   0  0  0  0  0  0  0  0  0  0  0  0
    8.0026   -0.5319   18.6910 H   0  0  0  0  0  0  0  0  0  0  0  0
    5.1507    1.7282   16.7438 H   0  0  0  0  0  0  0  0  0  0  0  0
    3.8168    2.0068   18.8238 H   0  0  0  0  0  0  0  0  0  0  0  0
    4.6364    0.9239   20.9651 H   0  0  0  0  0  0  0  0  0  0  0  0
    8.1658   -1.2760   20.9727 N   0  0  0  0  0  0  0  0  0  0  0  0
    8.3836   -1.6928   22.2054 C   0  0  0  0  0  0  0  0  0  0  0  0
    9.5983   -2.4465   22.6900 C   0  0  0  0  0  0  0  0  0  0  0  0
   10.7814   -1.6216   22.9188 N   0  0  0  0  0  0  0  0  0  0  0  0
   11.9072   -1.5768   21.9903 C   0  0  0  0  0  0  0  0  0  0  0  0
   12.6598   -0.3610   22.4676 C   0  0  0  0  0  0  0  0  0  0  0  0
   13.9360    0.0892   22.1621 C   0  0  0  0  0  0  0  0  0  0  0  0
   14.3684    1.3052   22.7087 C   0  0  0  0  0  0  0  0  0  0  0  0
   13.5045    2.0854   23.5028 C   0  0  0  0  0  0  0  0  0  0  0  0
   12.2641    1.5773   23.8993 C   0  0  0  0  0  0  0  0  0  0  0  0
   11.8909    0.3253   23.4030 C   0  0  0  0  0  0  0  0  0  0  0  0
   10.7453   -0.5325   23.7740 C   0  0  0  0  0  0  0  0  0  0  0  0
    9.9287   -0.3524   24.6604 O   0  0  0  0  0  0  0  0  0  0  0  0
   11.6103    2.1380   24.5657 H   0  0  0  0  0  0  0  0  0  0  0  0
   13.8092    3.0861   23.8074 H   0  0  0  0  0  0  0  0  0  0  0  0
   15.3729    1.6450   22.4640 H   0  0  0  0  0  0  0  0  0  0  0  0
   14.5596   -0.4846   21.4870 H   0  0  0  0  0  0  0  0  0  0  0  0
   11.5653   -1.4507   20.9521 H   0  0  0  0  0  0  0  0  0  0  0  0
   12.5162   -2.4902   22.0308 H   0  0  0  0  0  0  0  0  0  0  0  0
    9.8265   -3.2020   21.9375 H   0  0  0  0  0  0  0  0  0  0  0  0
    9.3806   -2.9870   23.6156 H   0  0  0  0  0  0  0  0  0  0  0  0
    6.3396   -0.9683   24.7431 H   0  0  0  0  0  0  0  0  0  0  0  0
    8.0530   -1.3195   24.9736 H   0  0  0  0  0  0  0  0  0  0  0  0
    7.5139   -3.6997   23.9765 H   0  0  0  0  0  0  0  0  0  0  0  0
    4.6754   -2.9399   24.7916 H   0  0  0  0  0  0  0  0  0  0  0  0
    5.2727   -3.0451   23.1174 H   0  0  0  0  0  0  0  0  0  0  0  0
    5.2315   -4.4959   24.1369 H   0  0  0  0  0  0  0  0  0  0  0  0
  1  2  1  0
  2  3  1  0
  3  4  1  0
  4  5  1  0
  3  6  1  0
  3  7  1  0
  2  8  1  0
  8  9  1  0
  9 10  1  0
 10 11  2  0
 11 12  1  0
 12 13  2  0
 13 14  1  0
 14 15  2  0
 15 16  1  0
 16 17  2  0
 17 18  1  0
 15 19  1  0
 14 20  1  0
 13 21  1  0
 11 22  1  0
 22 23  2  0
 23 24  1  0
 24 25  1  0
 25 26  1  0
 26 27  1  0
 27 28  2  0
 28 29  1  0
 29 30  2  0
 30 31  1  0
 31 32  2  0
 32 33  1  0
 33 34  2  0
 31 35  1  0
 30 36  1  0
 29 37  1  0
 28 38  1  0
 26 39  1  0
 26 40  1  0
 24 41  1  0
 24 42  1  0
  8 43  1  0
  8 44  1  0
  2 45  1  0
  1 46  1  0
  1 47  1  0
  1 48  1  0
 23  9  1  0
 33 25  1  0
 17 12  1  0
 32 27  1  0
M  END
>  <cnnaffinity>  (1) 
-6.09287

>  <filename>  (1) 
CC(CO)Cn1nc(-c2cccnc2)nc1CN1Cc2ccccc2C1=O

$$$$
