
     RDKit          3D

 39 41  0  0  0  0  0  0  0  0999 V2000
    4.9652    1.7655   17.0164 H   0  0  0  0  0  0  0  0  0  0  0  0
    5.4296    1.2729   17.8693 C   0  0  0  0  0  0  0  0  0  0  0  0
    6.5887    0.6488   17.6293 N   0  0  0  0  0  0  0  0  0  0  0  0
    7.1877    0.0253   18.6405 C   0  0  0  0  0  0  0  0  0  0  0  0
    8.1291   -0.4688   18.4013 H   0  0  0  0  0  0  0  0  0  0  0  0
    6.6399    0.0175   19.9145 C   0  0  0  0  0  0  0  0  0  0  0  0
    7.4997   -0.8586   21.1497 S   0  0  0  0  0  0  0  0  0  0  0  0
    8.4150   -1.7657   20.4644 O   0  0  0  0  0  0  0  0  0  0  0  0
    6.4796   -1.4065   22.0366 O   0  0  0  0  0  0  0  0  0  0  0  0
    8.5627    0.4157   22.0770 C   0  0  0  0  0  0  0  0  0  0  0  0
    7.7061    1.6737   22.3731 C   0  0  0  0  0  0  0  0  0  0  0  0
    7.9139    2.8277   21.6297 C   0  0  0  0  0  0  0  0  0  0  0  0
    8.6912    2.8441   20.8745 H   0  0  0  0  0  0  0  0  0  0  0  0
    7.1792    4.0249   21.8365 C   0  0  0  0  0  0  0  0  0  0  0  0
    7.3990    4.9020   21.2291 H   0  0  0  0  0  0  0  0  0  0  0  0
    6.1960    4.0785   22.7856 C   0  0  0  0  0  0  0  0  0  0  0  0
    5.6116    4.9824   22.9447 H   0  0  0  0  0  0  0  0  0  0  0  0
    5.9103    2.9281   23.5805 C   0  0  0  0  0  0  0  0  0  0  0  0
    4.8674    2.9904   24.5560 C   0  0  0  0  0  0  0  0  0  0  0  0
    4.3342    3.9323   24.6603 H   0  0  0  0  0  0  0  0  0  0  0  0
    4.5527    1.9024   25.3313 C   0  0  0  0  0  0  0  0  0  0  0  0
    3.7560    1.9617   26.0698 H   0  0  0  0  0  0  0  0  0  0  0  0
    5.2792    0.6995   25.1638 C   0  0  0  0  0  0  0  0  0  0  0  0
    5.0242   -0.1699   25.7631 H   0  0  0  0  0  0  0  0  0  0  0  0
    6.2977    0.6078   24.2369 C   0  0  0  0  0  0  0  0  0  0  0  0
    6.7902   -0.3441   24.1082 H   0  0  0  0  0  0  0  0  0  0  0  0
    6.6590    1.7150   23.3958 C   0  0  0  0  0  0  0  0  0  0  0  0
    9.7639    0.7084   21.1371 C   0  0  0  0  0  0  0  0  0  0  0  0
   10.3991    1.4916   21.5678 H   0  0  0  0  0  0  0  0  0  0  0  0
    9.4371    1.0228   20.1430 H   0  0  0  0  0  0  0  0  0  0  0  0
   10.3676   -0.1965   21.0120 H   0  0  0  0  0  0  0  0  0  0  0  0
    9.1506   -0.2507   23.3734 C   0  0  0  0  0  0  0  0  0  0  0  0
    8.6506   -1.1868   23.6384 H   0  0  0  0  0  0  0  0  0  0  0  0
   10.2167   -0.4886   23.2533 H   0  0  0  0  0  0  0  0  0  0  0  0
    9.0812    0.4249   24.2318 H   0  0  0  0  0  0  0  0  0  0  0  0
    5.4279    0.6488   20.1885 C   0  0  0  0  0  0  0  0  0  0  0  0
    4.9922    0.6523   21.1939 H   0  0  0  0  0  0  0  0  0  0  0  0
    4.8179    1.3006   19.1256 C   0  0  0  0  0  0  0  0  0  0  0  0
    3.8867    1.8337   19.2519 H   0  0  0  0  0  0  0  0  0  0  0  0
  1  2  1  0
  2  3  2  0
  3  4  1  0
  4  5  1  0
  4  6  2  0
  6  7  1  0
  7  8  2  0
  7  9  2  0
  7 10  1  0
 10 11  1  0
 11 12  2  0
 12 13  1  0
 12 14  1  0
 14 15  1  0
 14 16  2  0
 16 17  1  0
 16 18  1  0
 18 19  2  0
 19 20  1  0
 19 21  1  0
 21 22  1  0
 21 23  2  0
 23 24  1  0
 23 25  1  0
 25 26  1  0
 25 27  2  0
 10 28  1  0
 28 29  1  0
 28 30  1  0
 28 31  1  0
 10 32  1  0
 32 33  1  0
 32 34  1  0
 32 35  1  0
  6 36  1  0
 36 37  1  0
 36 38  2  0
 38 39  1  0
 38  2  1  0
 27 11  1  0
 27 18  1  0
M  END
>  <cnnaffinity>  (1) 
-4.63654

>  <filename>  (1) 
CC(C)(c1cccc2ccccc12)S(=O)(=O)c1cccnc1

$$$$
