
     RDKit          3D

 45 46  0  0  0  0  0  0  0  0999 V2000
    0.8813   -2.9748   29.0484 C   0  0  0  0  0  0  0  0  0  0  0  0
    1.1112   -2.6790   27.5583 C   0  0  0  0  0  0  0  0  0  0  0  0
   -0.1049   -1.9740   26.9408 C   0  0  0  0  0  0  0  0  0  0  0  0
   -1.0174   -2.5659   27.0780 H   0  0  0  0  0  0  0  0  0  0  0  0
    0.0336   -1.8031   25.8671 H   0  0  0  0  0  0  0  0  0  0  0  0
   -0.2676   -0.9953   27.4141 H   0  0  0  0  0  0  0  0  0  0  0  0
    2.3965   -1.8512   27.3641 C   0  0  0  0  0  0  0  0  0  0  0  0
    2.9838   -1.7251   25.6374 S   0  0  0  0  0  0  0  0  0  0  0  0
    3.9533   -3.2610   25.5751 C   0  0  0  0  0  0  0  0  0  0  0  0
    5.4059   -3.0410   26.0211 C   0  0  0  0  0  0  0  0  0  0  0  0
    6.1606   -2.2676   25.0049 N   0  0  0  0  0  4  0  0  0  0  0  0
    6.6465   -3.0927   23.8548 C   0  0  0  0  0  0  0  0  0  0  0  0
    7.3530   -2.1782   22.9066 C   0  0  0  0  0  0  0  0  0  0  0  0
    8.7349   -1.9735   23.0163 C   0  0  0  0  0  0  0  0  0  0  0  0
    9.4296   -1.1970   22.1775 N   0  0  0  0  0  0  0  0  0  0  0  0
    8.7667   -0.5872   21.1874 C   0  0  0  0  0  0  0  0  0  0  0  0
    7.3788   -0.7029   20.9826 C   0  0  0  0  0  0  0  0  0  0  0  0
    6.6605    0.0163   19.8853 C   0  0  0  0  0  0  0  0  0  0  0  0
    5.4385    0.6596   20.1316 C   0  0  0  0  0  0  0  0  0  0  0  0
    4.7978    1.3228   19.0840 C   0  0  0  0  0  0  0  0  0  0  0  0
    5.3867    1.3074   17.8153 C   0  0  0  0  0  0  0  0  0  0  0  0
    6.5452    0.6833   17.5520 N   0  0  0  0  0  0  0  0  0  0  0  0
    7.1590    0.0701   18.5689 C   0  0  0  0  0  0  0  0  0  0  0  0
    8.1009   -0.4205   18.3238 H   0  0  0  0  0  0  0  0  0  0  0  0
    4.9183    1.8136   16.9733 H   0  0  0  0  0  0  0  0  0  0  0  0
    3.8649    1.8539   19.2333 H   0  0  0  0  0  0  0  0  0  0  0  0
    5.0181    0.6519   21.1389 H   0  0  0  0  0  0  0  0  0  0  0  0
    6.6761   -1.5225   21.8698 C   0  0  0  0  0  0  0  0  0  0  0  0
    5.6040   -1.6602   21.7095 H   0  0  0  0  0  0  0  0  0  0  0  0
    9.3708    0.0387   20.5286 H   0  0  0  0  0  0  0  0  0  0  0  0
    9.3306   -2.4788   23.7809 H   0  0  0  0  0  0  0  0  0  0  0  0
    7.3080   -3.8918   24.2078 H   0  0  0  0  0  0  0  0  0  0  0  0
    5.7972   -3.5696   23.3569 H   0  0  0  0  0  0  0  0  0  0  0  0
    5.4939   -1.5533   24.5917 H   0  0  0  0  0  0  0  0  0  0  0  0
    6.9938   -1.7400   25.3537 H   0  0  0  0  0  0  0  0  0  0  0  0
    5.8811   -4.0167   26.1823 H   0  0  0  0  0  0  0  0  0  0  0  0
    5.4077   -2.5108   26.9774 H   0  0  0  0  0  0  0  0  0  0  0  0
    3.4697   -4.0020   26.2172 H   0  0  0  0  0  0  0  0  0  0  0  0
    3.8804   -3.6559   24.5545 H   0  0  0  0  0  0  0  0  0  0  0  0
    2.2509   -0.8246   27.7249 H   0  0  0  0  0  0  0  0  0  0  0  0
    3.2147   -2.2742   27.9639 H   0  0  0  0  0  0  0  0  0  0  0  0
    1.2545   -3.6428   27.0397 H   0  0  0  0  0  0  0  0  0  0  0  0
   -0.0236   -3.5781   29.1916 H   0  0  0  0  0  0  0  0  0  0  0  0
    0.7531   -2.0494   29.6265 H   0  0  0  0  0  0  0  0  0  0  0  0
    1.7195   -3.5290   29.4893 H   0  0  0  0  0  0  0  0  0  0  0  0
  1  2  1  0
  2  3  1  0
  3  4  1  0
  3  5  1  0
  3  6  1  0
  2  7  1  0
  7  8  1  0
  8  9  1  0
  9 10  1  0
 10 11  1  0
 11 12  1  0
 12 13  1  0
 13 14  2  0
 14 15  1  0
 15 16  2  0
 16 17  1  0
 17 18  1  0
 18 19  2  0
 19 20  1  0
 20 21  2  0
 21 22  1  0
 22 23  2  0
 23 24  1  0
 21 25  1  0
 20 26  1  0
 19 27  1  0
 17 28  2  0
 28 29  1  0
 16 30  1  0
 14 31  1  0
 12 32  1  0
 12 33  1  0
 11 34  1  0
 11 35  1  0
 10 36  1  0
 10 37  1  0
  9 38  1  0
  9 39  1  0
  7 40  1  0
  7 41  1  0
  2 42  1  0
  1 43  1  0
  1 44  1  0
  1 45  1  0
 28 13  1  0
 23 18  1  0
M  CHG  1  11   1
M  END
>  <cnnaffinity>  (1) 
-4.69951

>  <filename>  (1) 
CC(C)CSCC[NH2+]Cc1cncc(-c2cccnc2)c1

$$$$
