
     RDKit          3D

 34 35  0  0  0  0  0  0  0  0999 V2000
    8.1589    1.1841   27.9722 H   0  0  0  0  0  0  0  0  0  0  0  0
    7.8908    1.4296   26.9409 C   0  0  0  0  0  0  0  0  0  0  0  0
    7.4779    2.6684   26.7110 N   0  0  0  0  0  0  0  0  0  0  0  0
    7.1659    2.9034   25.4440 C   0  0  0  0  0  0  0  0  0  0  0  0
    6.7452    4.1218   25.1779 N   0  0  0  0  0  0  0  0  0  0  0  0
    6.7152    4.7380   25.9606 H   0  0  0  0  0  0  0  0  0  0  0  0
    6.5269    4.2591   24.2168 H   0  0  0  0  0  0  0  0  0  0  0  0
    7.2156    2.0848   24.3935 N   0  0  0  0  0  0  0  0  0  0  0  0
    7.6305    0.8299   24.6484 C   0  0  0  0  0  0  0  0  0  0  0  0
    7.7273   -0.2718   23.4888 C   0  0  0  0  0  0  0  0  0  0  0  0
    8.0641   -1.4243   23.7470 O   0  0  0  0  0  0  0  0  0  0  0  0
    7.4153    0.1284   22.2316 N   0  0  0  0  0  0  0  0  0  0  0  0
    7.2783    1.1202   22.0827 H   0  0  0  0  0  0  0  0  0  0  0  0
    7.3532   -0.7592   21.0621 C   0  0  0  0  0  0  0  0  0  0  0  0
    6.6821    0.0334   19.9415 C   0  0  0  0  0  0  0  0  0  0  0  0
    7.1763    0.0694   18.6295 C   0  0  0  0  0  0  0  0  0  0  0  0
    8.1180   -0.4168   18.3781 H   0  0  0  0  0  0  0  0  0  0  0  0
    6.5660    0.6701   17.5939 N   0  0  0  0  0  0  0  0  0  0  0  0
    5.4050    1.2861   17.8413 C   0  0  0  0  0  0  0  0  0  0  0  0
    4.9329    1.7786   16.9937 H   0  0  0  0  0  0  0  0  0  0  0  0
    4.8049    1.3120   19.1053 C   0  0  0  0  0  0  0  0  0  0  0  0
    3.8708    1.8422   19.2495 H   0  0  0  0  0  0  0  0  0  0  0  0
    5.4462    0.6688   20.1630 C   0  0  0  0  0  0  0  0  0  0  0  0
    4.9953    0.6526   21.1591 H   0  0  0  0  0  0  0  0  0  0  0  0
    6.4845   -1.9981   21.3512 C   0  0  0  0  0  0  0  0  0  0  0  0
    6.9786   -2.6760   22.0472 H   0  0  0  0  0  0  0  0  0  0  0  0
    5.5424   -1.6837   21.7985 H   0  0  0  0  0  0  0  0  0  0  0  0
    6.2521   -2.5178   20.4165 H   0  0  0  0  0  0  0  0  0  0  0  0
    8.7830   -1.1954   20.7311 C   0  0  0  0  0  0  0  0  0  0  0  0
    9.2230   -1.6696   21.6108 H   0  0  0  0  0  0  0  0  0  0  0  0
    8.7814   -1.9111   19.9166 H   0  0  0  0  0  0  0  0  0  0  0  0
    9.3950   -0.3385   20.4366 H   0  0  0  0  0  0  0  0  0  0  0  0
    7.9878    0.4553   25.9506 C   0  0  0  0  0  0  0  0  0  0  0  0
    8.3226   -0.5444   26.1736 H   0  0  0  0  0  0  0  0  0  0  0  0
  1  2  1  0
  2  3  2  0
  3  4  1  0
  4  5  1  0
  5  6  1  0
  5  7  1  0
  4  8  2  0
  8  9  1  0
  9 10  1  0
 10 11  2  0
 10 12  1  0
 12 13  1  0
 12 14  1  0
 14 15  1  0
 15 16  2  0
 16 17  1  0
 16 18  1  0
 18 19  2  0
 19 20  1  0
 19 21  1  0
 21 22  1  0
 21 23  2  0
 23 24  1  0
 14 25  1  0
 25 26  1  0
 25 27  1  0
 25 28  1  0
 14 29  1  0
 29 30  1  0
 29 31  1  0
 29 32  1  0
  9 33  2  0
 33 34  1  0
 33  2  1  0
 23 15  1  0
M  END
>  <cnnaffinity>  (1) 
-4.60182

>  <filename>  (1) 
CC(C)(NC(=O)c1ccnc(N)n1)c1cccnc1

$$$$
