
     RDKit          3D

 37 38  0  0  0  0  0  0  0  0999 V2000
   11.6376   -0.4019   23.3403 C   0  0  0  0  0  0  0  0  0  0  0  0
   10.6702    0.4346   22.4892 C   0  0  0  0  0  0  0  0  0  0  0  0
    9.2598   -0.1715   22.5168 C   0  0  0  0  0  0  0  0  0  0  0  0
    8.8090   -0.8323   23.4390 O   0  0  0  0  0  0  0  0  0  0  0  0
    8.4959    0.1263   21.4355 N   0  0  0  0  0  0  0  0  0  0  0  0
    7.2350   -0.5561   21.1788 C   0  0  2  0  0  0  0  0  0  0  0  0
    7.4928   -2.0542   20.9623 C   0  0  0  0  0  0  0  0  0  0  0  0
    8.3991   -2.1914   20.3658 H   0  0  0  0  0  0  0  0  0  0  0  0
    7.6647   -2.5219   21.9340 H   0  0  0  0  0  0  0  0  0  0  0  0
    6.6522   -2.5424   20.4649 H   0  0  0  0  0  0  0  0  0  0  0  0
    6.5690    0.1359   20.0175 C   0  0  0  0  0  0  0  0  0  0  0  0
    5.3372    0.7929   20.1482 C   0  0  0  0  0  0  0  0  0  0  0  0
    4.7663    1.3837   19.0190 C   0  0  0  0  0  0  0  0  0  0  0  0
    5.4554    1.3078   17.8037 C   0  0  0  0  0  0  0  0  0  0  0  0
    6.6386    0.6923   17.6576 N   0  0  0  0  0  0  0  0  0  0  0  0
    7.1695    0.1284   18.7511 C   0  0  0  0  0  0  0  0  0  0  0  0
    8.1344   -0.3607   18.6032 H   0  0  0  0  0  0  0  0  0  0  0  0
    5.0368    1.7536   16.9047 H   0  0  0  0  0  0  0  0  0  0  0  0
    3.8145    1.9042   19.0693 H   0  0  0  0  0  0  0  0  0  0  0  0
    4.8494    0.8535   21.1250 H   0  0  0  0  0  0  0  0  0  0  0  0
    6.5859   -0.4566   22.0592 H   0  0  0  0  0  0  0  0  0  0  0  0
    8.8664    0.7120   20.7100 H   0  0  0  0  0  0  0  0  0  0  0  0
   10.5511    1.9049   22.8861 C   0  0  0  0  0  0  0  0  0  0  0  0
    9.8455    2.2547   24.0516 C   0  0  0  0  0  0  0  0  0  0  0  0
    9.7625    3.5786   24.4889 C   0  0  0  0  0  0  0  0  0  0  0  0
   10.4144    4.5868   23.7680 C   0  0  0  0  0  0  0  0  0  0  0  0
   11.1029    4.2712   22.5951 C   0  0  0  0  0  0  0  0  0  0  0  0
   11.1229    2.9484   22.1398 C   0  0  0  0  0  0  0  0  0  0  0  0
   11.8101    2.6574   20.5614 Cl  0  0  0  0  0  0  0  0  0  0  0  0
   11.5746    5.0354   21.9830 H   0  0  0  0  0  0  0  0  0  0  0  0
   10.3528    5.6231   24.0930 H   0  0  0  0  0  0  0  0  0  0  0  0
    9.1741    3.8180   25.3713 H   0  0  0  0  0  0  0  0  0  0  0  0
    9.3544    1.4547   24.6051 H   0  0  0  0  0  0  0  0  0  0  0  0
   11.0341    0.3751   21.4581 H   0  0  0  0  0  0  0  0  0  0  0  0
   12.6484    0.0170   23.3401 H   0  0  0  0  0  0  0  0  0  0  0  0
   11.2806   -0.4890   24.3738 H   0  0  0  0  0  0  0  0  0  0  0  0
   11.6971   -1.4087   22.9075 H   0  0  0  0  0  0  0  0  0  0  0  0
  1  2  1  0
  2  3  1  0
  3  4  2  0
  3  5  1  0
  5  6  1  0
  6  7  1  0
  7  8  1  0
  7  9  1  0
  7 10  1  0
  6 11  1  0
 11 12  2  0
 12 13  1  0
 13 14  2  0
 14 15  1  0
 15 16  2  0
 16 17  1  0
 14 18  1  0
 13 19  1  0
 12 20  1  0
  6 21  1  1
  5 22  1  0
  2 23  1  0
 23 24  2  0
 24 25  1  0
 25 26  2  0
 26 27  1  0
 27 28  2  0
 28 29  1  0
 27 30  1  0
 26 31  1  0
 25 32  1  0
 24 33  1  0
  2 34  1  0
  1 35  1  0
  1 36  1  0
  1 37  1  0
 16 11  1  0
 28 23  1  0
M  END
>  <cnnaffinity>  (1) 
-4.64149

>  <filename>  (1) 
CC(C(=O)N[C@H](C)c1cccnc1)c1ccccc1Cl

$$$$
