
     RDKit          3D

 48 51  0  0  0  0  0  0  0  0999 V2000
   11.9415   -1.2058   21.2667 C   0  0  0  0  0  0  0  0  0  0  0  0
   11.2662   -1.7003   22.5460 C   0  0  0  0  0  0  0  0  0  0  0  0
   11.1120   -0.5407   23.5333 C   0  0  0  0  0  0  0  0  0  0  0  0
   10.6569   -0.9887   24.8057 O   0  0  0  0  0  0  0  0  0  0  0  0
   11.2706   -0.6851   25.4834 H   0  0  0  0  0  0  0  0  0  0  0  0
   12.0749   -0.0166   23.6227 H   0  0  0  0  0  0  0  0  0  0  0  0
   10.3881    0.1876   23.1430 H   0  0  0  0  0  0  0  0  0  0  0  0
    9.9652   -2.4637   22.2672 C   0  0  0  0  0  0  0  0  0  0  0  0
    8.7562   -1.6912   22.0481 N   0  0  0  0  0  0  0  0  0  0  0  0
    8.5083   -1.1945   20.8141 N   0  0  0  0  0  0  0  0  0  0  0  0
    7.3332   -0.6078   20.9628 C   0  0  0  0  0  0  0  0  0  0  0  0
    6.6191    0.0620   19.8794 C   0  0  0  0  0  0  0  0  0  0  0  0
    5.3892    0.7096   20.0809 C   0  0  0  0  0  0  0  0  0  0  0  0
    4.7996    1.3460   18.9912 C   0  0  0  0  0  0  0  0  0  0  0  0
    5.4486    1.2987   17.7519 C   0  0  0  0  0  0  0  0  0  0  0  0
    6.6083    0.6581   17.5447 N   0  0  0  0  0  0  0  0  0  0  0  0
    7.1760    0.0533   18.5939 C   0  0  0  0  0  0  0  0  0  0  0  0
    8.1117   -0.4698   18.3971 H   0  0  0  0  0  0  0  0  0  0  0  0
    5.0111    1.7927   16.8869 H   0  0  0  0  0  0  0  0  0  0  0  0
    3.8616    1.8804   19.0902 H   0  0  0  0  0  0  0  0  0  0  0  0
    4.9157    0.7036   21.0656 H   0  0  0  0  0  0  0  0  0  0  0  0
    6.8222   -0.6977   22.2138 N   0  0  0  0  0  0  0  0  0  0  0  0
    7.7309   -1.3811   22.8757 C   0  0  0  0  0  0  0  0  0  0  0  0
    7.6494   -1.8757   24.3090 C   0  0  0  0  0  0  0  0  0  0  0  0
    6.6760   -1.1780   25.1501 N   0  0  0  0  0  0  0  0  0  0  0  0
    5.3436   -1.5854   25.2681 C   0  0  0  0  0  0  0  0  0  0  0  0
    4.9342   -2.7011   25.0501 O   0  0  0  0  0  0  0  0  0  0  0  0
    4.5267   -0.3753   25.7183 C   0  0  0  0  0  0  0  0  0  0  0  0
    5.5540    0.7153   25.8386 C   0  0  0  0  0  0  0  0  0  0  0  0
    5.4492    2.0629   26.1590 C   0  0  0  0  0  0  0  0  0  0  0  0
    6.6069    2.8554   26.1792 C   0  0  0  0  0  0  0  0  0  0  0  0
    7.8563    2.2938   25.8681 C   0  0  0  0  0  0  0  0  0  0  0  0
    7.9686    0.9426   25.5186 C   0  0  0  0  0  0  0  0  0  0  0  0
    6.8030    0.1738   25.5046 C   0  0  0  0  0  0  0  0  0  0  0  0
    8.9257    0.4878   25.2686 H   0  0  0  0  0  0  0  0  0  0  0  0
    8.7443    2.9210   25.8923 H   0  0  0  0  0  0  0  0  0  0  0  0
    6.5285    3.9103   26.4280 H   0  0  0  0  0  0  0  0  0  0  0  0
    4.4772    2.5004   26.3752 H   0  0  0  0  0  0  0  0  0  0  0  0
    3.7623   -0.1749   24.9616 H   0  0  0  0  0  0  0  0  0  0  0  0
    4.0117   -0.6129   26.6537 H   0  0  0  0  0  0  0  0  0  0  0  0
    8.6386   -1.7729   24.7644 H   0  0  0  0  0  0  0  0  0  0  0  0
    7.3986   -2.9438   24.3068 H   0  0  0  0  0  0  0  0  0  0  0  0
    9.7853   -3.1639   23.0843 H   0  0  0  0  0  0  0  0  0  0  0  0
   10.0694   -3.0229   21.3458 H   0  0  0  0  0  0  0  0  0  0  0  0
   11.9219   -2.4695   22.9688 H   0  0  0  0  0  0  0  0  0  0  0  0
   12.7933   -0.5773   21.5382 H   0  0  0  0  0  0  0  0  0  0  0  0
   12.3537   -2.0325   20.6762 H   0  0  0  0  0  0  0  0  0  0  0  0
   11.2528   -0.6295   20.6366 H   0  0  0  0  0  0  0  0  0  0  0  0
  1  2  1  0
  2  3  1  0
  3  4  1  0
  4  5  1  0
  3  6  1  0
  3  7  1  0
  2  8  1  0
  8  9  1  0
  9 10  1  0
 10 11  2  0
 11 12  1  0
 12 13  2  0
 13 14  1  0
 14 15  2  0
 15 16  1  0
 16 17  2  0
 17 18  1  0
 15 19  1  0
 14 20  1  0
 13 21  1  0
 11 22  1  0
 22 23  2  0
 23 24  1  0
 24 25  1  0
 25 26  1  0
 26 27  2  0
 26 28  1  0
 28 29  1  0
 29 30  2  0
 30 31  1  0
 31 32  2  0
 32 33  1  0
 33 34  2  0
 33 35  1  0
 32 36  1  0
 31 37  1  0
 30 38  1  0
 28 39  1  0
 28 40  1  0
 24 41  1  0
 24 42  1  0
  8 43  1  0
  8 44  1  0
  2 45  1  0
  1 46  1  0
  1 47  1  0
  1 48  1  0
 23  9  1  0
 34 25  1  0
 17 12  1  0
 34 29  1  0
M  END
>  <cnnaffinity>  (1) 
-6.08794

>  <filename>  (1) 
CC(CO)Cn1nc(-c2cccnc2)nc1CN1C(=O)Cc2ccccc21

$$$$
