
     RDKit          3D

 32 33  0  0  0  0  0  0  0  0999 V2000
    4.9412    1.7925   17.0020 H   0  0  0  0  0  0  0  0  0  0  0  0
    5.4026    1.2840   17.8444 C   0  0  0  0  0  0  0  0  0  0  0  0
    6.5561    0.6518   17.5838 N   0  0  0  0  0  0  0  0  0  0  0  0
    7.1726    0.0309   18.5957 C   0  0  0  0  0  0  0  0  0  0  0  0
    8.1275   -0.4341   18.3580 H   0  0  0  0  0  0  0  0  0  0  0  0
    6.6503   -0.0200   19.9078 C   0  0  0  0  0  0  0  0  0  0  0  0
    7.3215   -0.7029   20.9687 N   0  0  0  0  0  0  0  0  0  0  0  0
    6.7059   -1.6200   21.8349 C   0  0  0  0  0  0  0  0  0  0  0  0
    5.6621   -1.8737   21.7803 H   0  0  0  0  0  0  0  0  0  0  0  0
    7.6603   -2.0429   22.6824 C   0  0  0  0  0  0  0  0  0  0  0  0
    7.5855   -2.8705   23.7880 N   0  0  0  0  0  0  0  0  0  0  0  0
    6.6614   -3.0587   24.1215 H   0  0  0  0  0  0  0  0  0  0  0  0
    8.6262   -3.5532   24.3727 C   0  0  0  0  0  0  0  0  0  0  0  0
    9.7410   -3.5827   23.8848 O   0  0  0  0  0  0  0  0  0  0  0  0
    8.2764   -4.2793   25.6942 C   0  0  0  0  0  0  0  0  0  0  0  0
    7.3007   -3.9040   26.0332 H   0  0  0  0  0  0  0  0  0  0  0  0
    9.3346   -3.9723   26.7774 C   0  0  0  0  0  0  0  0  0  0  0  0
    9.0891   -4.4698   27.7248 H   0  0  0  0  0  0  0  0  0  0  0  0
    9.4388   -2.9002   26.9848 H   0  0  0  0  0  0  0  0  0  0  0  0
   10.3124   -4.3402   26.4463 H   0  0  0  0  0  0  0  0  0  0  0  0
    8.1661   -5.8085   25.4742 C   0  0  0  0  0  0  0  0  0  0  0  0
    9.1198   -6.2087   25.1098 H   0  0  0  0  0  0  0  0  0  0  0  0
    7.9301   -6.3335   26.4115 H   0  0  0  0  0  0  0  0  0  0  0  0
    7.3891   -6.0685   24.7461 H   0  0  0  0  0  0  0  0  0  0  0  0
    8.8238   -1.4200   22.3599 N   0  0  0  0  0  0  0  0  0  0  0  0
    9.7182   -1.5458   22.8028 H   0  0  0  0  0  0  0  0  0  0  0  0
    8.6449   -0.5370   21.3436 C   0  0  0  0  0  0  0  0  0  0  0  0
    9.8158    0.5044   20.8122 S   0  0  0  0  0  0  0  0  0  0  0  0
    5.4433    0.6372   20.1667 C   0  0  0  0  0  0  0  0  0  0  0  0
    5.0414    0.6325   21.1814 H   0  0  0  0  0  0  0  0  0  0  0  0
    4.8134    1.3043   19.1124 C   0  0  0  0  0  0  0  0  0  0  0  0
    3.8847    1.8390   19.2612 H   0  0  0  0  0  0  0  0  0  0  0  0
  1  2  1  0
  2  3  2  0
  3  4  1  0
  4  5  1  0
  4  6  2  0
  6  7  1  0
  7  8  1  0
  8  9  1  0
  8 10  2  0
 10 11  1  0
 11 12  1  0
 11 13  1  0
 13 14  2  0
 13 15  1  0
 15 16  1  0
 15 17  1  0
 17 18  1  0
 17 19  1  0
 17 20  1  0
 15 21  1  0
 21 22  1  0
 21 23  1  0
 21 24  1  0
 10 25  1  0
 25 26  1  0
 25 27  1  0
 27 28  2  0
  6 29  1  0
 29 30  1  0
 29 31  2  0
 31 32  1  0
 31  2  1  0
 27  7  1  0
M  END
>  <cnnaffinity>  (1) 
-5.17189

>  <filename>  (1) 
CC(C)C(=O)Nc1cn(-c2cccnc2)c(=S)[nH]1

$$$$
