
     RDKit          3D

 37 39  0  0  0  0  0  0  0  0999 V2000
    8.2690   -4.8100   23.8495 C   0  0  0  0  0  0  0  0  0  0  0  0
    7.3715   -4.3232   24.9985 C   0  0  0  0  0  0  0  0  0  0  0  0
    6.7327   -2.9506   24.7132 C   0  0  0  0  0  0  0  0  0  0  0  0
    7.9648   -1.5971   24.6031 S   0  0  0  0  0  0  0  0  0  0  0  0
    7.9506   -1.3746   22.8550 C   0  0  0  0  0  0  0  0  0  0  0  0
    8.7580   -2.0294   22.0364 N   0  0  0  0  0  0  0  0  0  0  0  0
    8.3607   -1.5558   20.8284 N   0  0  0  0  0  0  0  0  0  0  0  0
    7.3533   -0.6768   20.9687 C   0  0  0  0  0  0  0  0  0  0  0  0
    6.6514    0.0121   19.8931 C   0  0  0  0  0  0  0  0  0  0  0  0
    5.4322    0.6583   20.1558 C   0  0  0  0  0  0  0  0  0  0  0  0
    4.8024    1.3121   19.1042 C   0  0  0  0  0  0  0  0  0  0  0  0
    5.4031    1.2910   17.8398 C   0  0  0  0  0  0  0  0  0  0  0  0
    6.5688    0.6769   17.5816 N   0  0  0  0  0  0  0  0  0  0  0  0
    7.1727    0.0609   18.5971 C   0  0  0  0  0  0  0  0  0  0  0  0
    8.1226   -0.4177   18.3615 H   0  0  0  0  0  0  0  0  0  0  0  0
    4.9181    1.7763   16.9989 H   0  0  0  0  0  0  0  0  0  0  0  0
    3.8708    1.8462   19.2585 H   0  0  0  0  0  0  0  0  0  0  0  0
    5.0087    0.6339   21.1658 H   0  0  0  0  0  0  0  0  0  0  0  0
    7.0731   -0.5468   22.2490 N   0  0  0  0  0  0  0  0  0  0  0  0
    8.7752   -1.8830   19.9768 H   0  0  0  0  0  0  0  0  0  0  0  0
    6.0227   -2.6898   25.5054 H   0  0  0  0  0  0  0  0  0  0  0  0
    6.1624   -2.9784   23.7770 H   0  0  0  0  0  0  0  0  0  0  0  0
    6.2900   -5.3429   25.3258 C   0  0  0  0  0  0  0  0  0  0  0  0
    6.2371   -5.9360   26.5973 C   0  0  0  0  0  0  0  0  0  0  0  0
    5.2532   -6.8795   26.9068 C   0  0  0  0  0  0  0  0  0  0  0  0
    4.3043   -7.2406   25.9454 C   0  0  0  0  0  0  0  0  0  0  0  0
    4.3465   -6.6576   24.6741 C   0  0  0  0  0  0  0  0  0  0  0  0
    5.3307   -5.7150   24.3683 C   0  0  0  0  0  0  0  0  0  0  0  0
    5.3490   -5.2711   23.3742 H   0  0  0  0  0  0  0  0  0  0  0  0
    3.6125   -6.9334   23.9221 H   0  0  0  0  0  0  0  0  0  0  0  0
    3.5396   -7.9739   26.1871 H   0  0  0  0  0  0  0  0  0  0  0  0
    5.2314   -7.3290   27.8966 H   0  0  0  0  0  0  0  0  0  0  0  0
    6.9769   -5.6555   27.3459 H   0  0  0  0  0  0  0  0  0  0  0  0
    8.0053   -4.1920   25.8857 H   0  0  0  0  0  0  0  0  0  0  0  0
    7.7222   -4.8273   22.8986 H   0  0  0  0  0  0  0  0  0  0  0  0
    8.6204   -5.8273   24.0495 H   0  0  0  0  0  0  0  0  0  0  0  0
    9.1347   -4.1520   23.7201 H   0  0  0  0  0  0  0  0  0  0  0  0
  1  2  1  0
  2  3  1  0
  3  4  1  0
  4  5  1  0
  5  6  2  0
  6  7  1  0
  7  8  1  0
  8  9  1  0
  9 10  2  0
 10 11  1  0
 11 12  2  0
 12 13  1  0
 13 14  2  0
 14 15  1  0
 12 16  1  0
 11 17  1  0
 10 18  1  0
  8 19  2  0
  7 20  1  0
  3 21  1  0
  3 22  1  0
  2 23  1  0
 23 24  2  0
 24 25  1  0
 25 26  2  0
 26 27  1  0
 27 28  2  0
 28 29  1  0
 27 30  1  0
 26 31  1  0
 25 32  1  0
 24 33  1  0
  2 34  1  0
  1 35  1  0
  1 36  1  0
  1 37  1  0
 19  5  1  0
 28 23  1  0
 14  9  1  0
M  END
>  <cnnaffinity>  (1) 
-5.25855

>  <filename>  (1) 
CC(CSc1n[nH]c(-c2cccnc2)n1)c1ccccc1

$$$$
