
     RDKit          3D

 39 40  0  0  0  0  0  0  0  0999 V2000
    6.8961   -4.3806   21.8300 C   0  0  0  0  0  0  0  0  0  0  0  0
    7.5696   -3.0316   22.0268 C   0  0  0  0  0  0  0  0  0  0  0  0
    9.0667   -3.1190   21.7383 C   0  0  0  0  0  0  0  0  0  0  0  0
    9.5038   -3.8708   22.3996 H   0  0  0  0  0  0  0  0  0  0  0  0
    9.5638   -2.1567   21.9182 H   0  0  0  0  0  0  0  0  0  0  0  0
    9.2377   -3.4133   20.7022 H   0  0  0  0  0  0  0  0  0  0  0  0
    7.3790   -2.4740   23.4682 C   0  0  0  0  0  0  0  0  0  0  0  0
    7.8568   -3.3841   24.5831 C   0  0  0  0  0  0  0  0  0  0  0  0
    9.2242   -3.4367   24.9341 C   0  0  0  0  0  0  0  0  0  0  0  0
    9.7082   -4.3113   25.9135 C   0  0  0  0  0  0  0  0  0  0  0  0
    8.8238   -5.1618   26.5871 C   0  0  0  0  0  0  0  0  0  0  0  0
    7.4606   -5.1200   26.2755 C   0  0  0  0  0  0  0  0  0  0  0  0
    6.9952   -4.2419   25.2910 C   0  0  0  0  0  0  0  0  0  0  0  0
    5.2754   -4.2656   24.9544 Cl  0  0  0  0  0  0  0  0  0  0  0  0
    6.7421   -5.7666   26.7700 H   0  0  0  0  0  0  0  0  0  0  0  0
    9.1908   -5.8476   27.3522 H   0  0  0  0  0  0  0  0  0  0  0  0
   10.7740   -4.3456   26.1303 H   0  0  0  0  0  0  0  0  0  0  0  0
    9.9249   -2.7936   24.4018 H   0  0  0  0  0  0  0  0  0  0  0  0
    7.9481   -1.5356   23.5107 H   0  0  0  0  0  0  0  0  0  0  0  0
    6.3177   -2.2252   23.5914 H   0  0  0  0  0  0  0  0  0  0  0  0
    6.9124   -2.1032   21.0385 N   0  0  0  0  0  4  0  0  0  0  0  0
    7.3767   -0.7111   20.9976 C   0  0  0  0  0  0  0  0  0  0  0  0
    6.6299   -0.0124   19.9036 C   0  0  0  0  0  0  0  0  0  0  0  0
    5.4145    0.6472   20.1377 C   0  0  0  0  0  0  0  0  0  0  0  0
    4.7848    1.3081   19.0808 C   0  0  0  0  0  0  0  0  0  0  0  0
    5.3924    1.2818   17.8238 C   0  0  0  0  0  0  0  0  0  0  0  0
    6.5399    0.6347   17.5725 N   0  0  0  0  0  0  0  0  0  0  0  0
    7.1390    0.0153   18.5969 C   0  0  0  0  0  0  0  0  0  0  0  0
    8.0986   -0.4477   18.3572 H   0  0  0  0  0  0  0  0  0  0  0  0
    4.9501    1.8123   16.9797 H   0  0  0  0  0  0  0  0  0  0  0  0
    3.8656    1.8673   19.2226 H   0  0  0  0  0  0  0  0  0  0  0  0
    4.9793    0.6674   21.1388 H   0  0  0  0  0  0  0  0  0  0  0  0
    8.4564   -0.6675   20.8110 H   0  0  0  0  0  0  0  0  0  0  0  0
    7.2084   -0.2127   21.9601 H   0  0  0  0  0  0  0  0  0  0  0  0
    5.8765   -2.0758   21.2348 H   0  0  0  0  0  0  0  0  0  0  0  0
    7.0371   -2.4964   20.0702 H   0  0  0  0  0  0  0  0  0  0  0  0
    5.8261   -4.3203   22.0586 H   0  0  0  0  0  0  0  0  0  0  0  0
    7.0175   -4.7215   20.7964 H   0  0  0  0  0  0  0  0  0  0  0  0
    7.3490   -5.1264   22.4887 H   0  0  0  0  0  0  0  0  0  0  0  0
  1  2  1  0
  2  3  1  0
  3  4  1  0
  3  5  1  0
  3  6  1  0
  2  7  1  0
  7  8  1  0
  8  9  2  0
  9 10  1  0
 10 11  2  0
 11 12  1  0
 12 13  2  0
 13 14  1  0
 12 15  1  0
 11 16  1  0
 10 17  1  0
  9 18  1  0
  7 19  1  0
  7 20  1  0
  2 21  1  0
 21 22  1  0
 22 23  1  0
 23 24  2  0
 24 25  1  0
 25 26  2  0
 26 27  1  0
 27 28  2  0
 28 29  1  0
 26 30  1  0
 25 31  1  0
 24 32  1  0
 22 33  1  0
 22 34  1  0
 21 35  1  0
 21 36  1  0
  1 37  1  0
  1 38  1  0
  1 39  1  0
 13  8  1  0
 28 23  1  0
M  CHG  1  21   1
M  END
>  <cnnaffinity>  (1) 
-4.65517

>  <filename>  (1) 
CC(C)(Cc1ccccc1Cl)[NH2+]Cc1cccnc1

$$$$
