
     RDKit          3D

 40 41  0  0  0  0  0  0  0  0999 V2000
    6.3276   -2.8545   21.6756 C   0  0  0  0  0  0  0  0  0  0  0  0
    7.3907   -2.1051   20.8783 C   0  0  0  0  0  0  0  0  0  0  0  0
    8.8049   -2.5408   21.2686 C   0  0  0  0  0  0  0  0  0  0  0  0
    9.5528   -1.9780   20.7033 H   0  0  0  0  0  0  0  0  0  0  0  0
    8.9341   -3.5998   21.0406 H   0  0  0  0  0  0  0  0  0  0  0  0
    8.9912   -2.3962   22.3376 H   0  0  0  0  0  0  0  0  0  0  0  0
    7.2355   -0.6347   20.9786 N   0  0  0  0  0  0  0  0  0  0  0  0
    7.5563   -0.0241   22.1688 C   0  0  0  0  0  0  0  0  0  0  0  0
    7.6018   -0.6181   23.2323 O   0  0  0  0  0  0  0  0  0  0  0  0
    7.9653    1.4980   22.1222 C   0  0  0  0  0  0  0  0  0  0  0  0
    6.8312    2.1935   22.4755 F   0  0  0  0  0  0  0  0  0  0  0  0
    8.2802    1.9206   20.8533 F   0  0  0  0  0  0  0  0  0  0  0  0
    9.1664    1.8078   23.0204 C   0  0  0  0  0  0  0  0  0  0  0  0
   10.0775    0.7583   23.2086 C   0  0  0  0  0  0  0  0  0  0  0  0
   11.2148    0.9156   23.9903 C   0  0  0  0  0  0  0  0  0  0  0  0
   11.4909    2.1631   24.5391 C   0  0  0  0  0  0  0  0  0  0  0  0
   10.6393    3.2468   24.2986 C   0  0  0  0  0  0  0  0  0  0  0  0
    9.4584    3.0817   23.5552 C   0  0  0  0  0  0  0  0  0  0  0  0
    8.4996    4.2685   23.3763 C   0  0  0  0  0  0  0  0  0  0  0  0
    9.0424    5.4379   23.7645 F   0  0  0  0  0  0  0  0  0  0  0  0
    8.1347    4.4237   22.0914 F   0  0  0  0  0  0  0  0  0  0  0  0
    7.3782    4.1196   24.1065 F   0  0  0  0  0  0  0  0  0  0  0  0
   10.8965    4.2253   24.6965 H   0  0  0  0  0  0  0  0  0  0  0  0
   12.3577    2.2722   25.1698 H   0  0  0  0  0  0  0  0  0  0  0  0
   11.8564    0.0570   24.1700 H   0  0  0  0  0  0  0  0  0  0  0  0
    9.8748   -0.2153   22.7725 H   0  0  0  0  0  0  0  0  0  0  0  0
    6.6031    0.0692   19.9074 C   0  0  0  0  0  0  0  0  0  0  0  0
    5.4056    0.7538   20.1244 C   0  0  0  0  0  0  0  0  0  0  0  0
    4.7876    1.3776   19.0354 C   0  0  0  0  0  0  0  0  0  0  0  0
    5.4096    1.3432   17.7835 C   0  0  0  0  0  0  0  0  0  0  0  0
    6.5760    0.7119   17.5658 N   0  0  0  0  0  0  0  0  0  0  0  0
    7.1435    0.0900   18.6057 C   0  0  0  0  0  0  0  0  0  0  0  0
    8.0951   -0.4035   18.4133 H   0  0  0  0  0  0  0  0  0  0  0  0
    4.9453    1.8234   16.9232 H   0  0  0  0  0  0  0  0  0  0  0  0
    3.8442    1.8963   19.1572 H   0  0  0  0  0  0  0  0  0  0  0  0
    4.9924    0.8079   21.1326 H   0  0  0  0  0  0  0  0  0  0  0  0
    7.2048   -2.3035   19.8173 H   0  0  0  0  0  0  0  0  0  0  0  0
    5.3330   -2.5369   21.3559 H   0  0  0  0  0  0  0  0  0  0  0  0
    6.4377   -2.6679   22.7476 H   0  0  0  0  0  0  0  0  0  0  0  0
    6.4159   -3.9278   21.4740 H   0  0  0  0  0  0  0  0  0  0  0  0
  1  2  1  0
  2  3  1  0
  3  4  1  0
  3  5  1  0
  3  6  1  0
  2  7  1  0
  7  8  1  0
  8  9  2  0
  8 10  1  0
 10 11  1  0
 10 12  1  0
 10 13  1  0
 13 14  2  0
 14 15  1  0
 15 16  2  0
 16 17  1  0
 17 18  2  0
 18 19  1  0
 19 20  1  0
 19 21  1  0
 19 22  1  0
 17 23  1  0
 16 24  1  0
 15 25  1  0
 14 26  1  0
  7 27  1  0
 27 28  2  0
 28 29  1  0
 29 30  2  0
 30 31  1  0
 31 32  2  0
 32 33  1  0
 30 34  1  0
 29 35  1  0
 28 36  1  0
  2 37  1  0
  1 38  1  0
  1 39  1  0
  1 40  1  0
 18 13  1  0
 32 27  1  0
M  END
>  <cnnaffinity>  (1) 
-5.57136

>  <filename>  (1) 
CC(C)N(C(=O)C(F)(F)c1ccccc1C(F)(F)F)c1cccnc1

$$$$
