
     RDKit          3D

 42 43  0  0  0  0  0  0  0  0999 V2000
    4.8037   -0.0460   28.3788 C   0  0  0  0  0  0  0  0  0  0  0  0
    5.2883   -0.5845   27.0233 C   0  0  0  0  0  0  0  0  0  0  0  0
    4.5792   -1.8958   26.6503 C   0  0  0  0  0  0  0  0  0  0  0  0
    4.9835   -2.3026   25.7151 H   0  0  0  0  0  0  0  0  0  0  0  0
    3.5055   -1.7261   26.5020 H   0  0  0  0  0  0  0  0  0  0  0  0
    4.7022   -2.6478   27.4381 H   0  0  0  0  0  0  0  0  0  0  0  0
    5.1117    0.4516   25.9205 C   0  0  0  0  0  0  0  0  0  0  0  0
    3.8345    0.9735   25.6423 C   0  0  0  0  0  0  0  0  0  0  0  0
    3.6357    1.9266   24.6407 C   0  0  0  0  0  0  0  0  0  0  0  0
    4.7156    2.3485   23.8630 C   0  0  0  0  0  0  0  0  0  0  0  0
    5.9989    1.8434   24.1195 C   0  0  0  0  0  0  0  0  0  0  0  0
    6.2011    0.9105   25.1458 C   0  0  0  0  0  0  0  0  0  0  0  0
    7.5311    0.5188   25.5047 N   0  0  0  0  0  0  0  0  0  0  0  0
    8.6322    0.3119   24.7408 C   0  0  0  0  0  0  0  0  0  0  0  0
   10.1223    0.8318   25.2536 S   0  0  0  0  0  0  0  0  0  0  0  0
    8.5515   -0.3770   23.5579 N   0  0  0  0  0  0  0  0  0  0  0  0
    7.4986   -1.2084   23.1453 N   0  0  0  0  0  0  0  0  0  0  0  0
    6.9937   -1.3154   21.8785 C   0  0  0  0  0  0  0  0  0  0  0  0
    5.9116   -2.5146   21.5107 S   0  0  0  0  0  0  0  0  0  0  0  0
    7.4726   -0.3746   21.0089 N   0  0  0  0  0  0  0  0  0  0  0  0
    6.7402    0.0762   19.8576 C   0  0  0  0  0  0  0  0  0  0  0  0
    5.4636    0.6263   20.0161 C   0  0  0  0  0  0  0  0  0  0  0  0
    4.8428    1.1970   18.9024 C   0  0  0  0  0  0  0  0  0  0  0  0
    5.5110    1.1664   17.6732 C   0  0  0  0  0  0  0  0  0  0  0  0
    6.7078    0.5797   17.4930 N   0  0  0  0  0  0  0  0  0  0  0  0
    7.2991    0.0417   18.5672 C   0  0  0  0  0  0  0  0  0  0  0  0
    8.2624   -0.4498   18.4321 H   0  0  0  0  0  0  0  0  0  0  0  0
    5.0669    1.6278   16.7953 H   0  0  0  0  0  0  0  0  0  0  0  0
    3.8733    1.6800   18.9872 H   0  0  0  0  0  0  0  0  0  0  0  0
    4.9850    0.5855   20.9941 H   0  0  0  0  0  0  0  0  0  0  0  0
    7.9935    0.3358   21.5133 H   0  0  0  0  0  0  0  0  0  0  0  0
    7.0926   -1.8833   23.7756 H   0  0  0  0  0  0  0  0  0  0  0  0
    9.5015   -0.6403   23.3115 H   0  0  0  0  0  0  0  0  0  0  0  0
    7.8675    0.8491   26.3962 H   0  0  0  0  0  0  0  0  0  0  0  0
    6.8601    2.2062   23.5667 H   0  0  0  0  0  0  0  0  0  0  0  0
    4.5652    3.0687   23.0601 H   0  0  0  0  0  0  0  0  0  0  0  0
    2.6473    2.3613   24.5027 H   0  0  0  0  0  0  0  0  0  0  0  0
    2.9728    0.6205   26.2028 H   0  0  0  0  0  0  0  0  0  0  0  0
    6.3600   -0.7996   27.1090 H   0  0  0  0  0  0  0  0  0  0  0  0
    5.3236    0.8789   28.6526 H   0  0  0  0  0  0  0  0  0  0  0  0
    3.7310    0.1746   28.3549 H   0  0  0  0  0  0  0  0  0  0  0  0
    4.9732   -0.7784   29.1746 H   0  0  0  0  0  0  0  0  0  0  0  0
  1  2  1  0
  2  3  1  0
  3  4  1  0
  3  5  1  0
  3  6  1  0
  2  7  1  0
  7  8  2  0
  8  9  1  0
  9 10  2  0
 10 11  1  0
 11 12  2  0
 12 13  1  0
 13 14  1  0
 14 15  2  0
 14 16  1  0
 16 17  1  0
 17 18  1  0
 18 19  2  0
 18 20  1  0
 20 21  1  0
 21 22  2  0
 22 23  1  0
 23 24  2  0
 24 25  1  0
 25 26  2  0
 26 27  1  0
 24 28  1  0
 23 29  1  0
 22 30  1  0
 20 31  1  0
 17 32  1  0
 16 33  1  0
 13 34  1  0
 11 35  1  0
 10 36  1  0
  9 37  1  0
  8 38  1  0
  2 39  1  0
  1 40  1  0
  1 41  1  0
  1 42  1  0
 12  7  1  0
 26 21  1  0
M  END
>  <cnnaffinity>  (1) 
-5.18841

>  <filename>  (1) 
CC(C)c1ccccc1NC(=S)NNC(=S)Nc1cccnc1

$$$$
