
     RDKit          3D

 34 36  0  0  0  0  0  0  0  0999 V2000
    6.6192   -1.9550   21.4861 C   0  0  0  0  0  0  0  0  0  0  0  0
    7.4216   -0.7353   20.9927 C   0  0  0  0  0  0  0  0  0  0  0  0
    6.6706    0.0042   19.8731 C   0  0  0  0  0  0  0  0  0  0  0  0
    5.4530    0.6535   20.1313 C   0  0  0  0  0  0  0  0  0  0  0  0
    4.8025    1.3052   19.0813 C   0  0  0  0  0  0  0  0  0  0  0  0
    5.3857    1.2950   17.8092 C   0  0  0  0  0  0  0  0  0  0  0  0
    6.5436    0.6743   17.5401 N   0  0  0  0  0  0  0  0  0  0  0  0
    7.1574    0.0547   18.5563 C   0  0  0  0  0  0  0  0  0  0  0  0
    8.1108   -0.4168   18.3188 H   0  0  0  0  0  0  0  0  0  0  0  0
    4.9143    1.8121   16.9737 H   0  0  0  0  0  0  0  0  0  0  0  0
    3.8726    1.8391   19.2387 H   0  0  0  0  0  0  0  0  0  0  0  0
    5.0560    0.6708   21.1512 H   0  0  0  0  0  0  0  0  0  0  0  0
    7.7393    0.1932   22.1430 C   0  0  0  0  0  0  0  0  0  0  0  0
    6.9863    0.5443   23.1460 N   0  0  0  0  0  0  0  0  0  0  0  0
    7.7652    1.4762   23.7801 C   0  0  0  0  0  0  0  0  0  0  0  0
    7.2664    2.2786   24.9423 C   0  0  0  0  0  0  0  0  0  0  0  0
    6.6789    3.6167   24.5068 C   0  0  0  0  0  0  0  0  0  0  0  0
    7.4812    4.7676   24.4497 C   0  0  0  0  0  0  0  0  0  0  0  0
    7.0771    5.9598   24.0096 N   0  0  0  0  0  0  0  0  0  0  0  0
    5.8203    6.0674   23.5673 C   0  0  0  0  0  0  0  0  0  0  0  0
    4.9230    5.0009   23.5469 C   0  0  0  0  0  0  0  0  0  0  0  0
    5.3720    3.7645   24.0153 C   0  0  0  0  0  0  0  0  0  0  0  0
    4.2848    2.4072   23.9449 Cl  0  0  0  0  0  0  0  0  0  0  0  0
    3.9159    5.1237   23.1705 H   0  0  0  0  0  0  0  0  0  0  0  0
    5.5278    7.0609   23.2216 H   0  0  0  0  0  0  0  0  0  0  0  0
    8.5240    4.7091   24.7721 H   0  0  0  0  0  0  0  0  0  0  0  0
    8.0984    2.4261   25.6397 H   0  0  0  0  0  0  0  0  0  0  0  0
    6.5069    1.6657   25.4328 H   0  0  0  0  0  0  0  0  0  0  0  0
    8.9396    1.6612   23.2434 N   0  0  0  0  0  0  0  0  0  0  0  0
    8.9241    0.8062   22.1503 O   0  0  0  0  0  0  0  0  0  0  0  0
    8.3919   -1.0654   20.6057 H   0  0  0  0  0  0  0  0  0  0  0  0
    5.6743   -1.6219   21.9178 H   0  0  0  0  0  0  0  0  0  0  0  0
    6.3830   -2.6378   20.6658 H   0  0  0  0  0  0  0  0  0  0  0  0
    7.1597   -2.5032   22.2647 H   0  0  0  0  0  0  0  0  0  0  0  0
  1  2  1  0
  2  3  1  0
  3  4  2  0
  4  5  1  0
  5  6  2  0
  6  7  1  0
  7  8  2  0
  8  9  1  0
  6 10  1  0
  5 11  1  0
  4 12  1  0
  2 13  1  0
 13 14  2  0
 14 15  1  0
 15 16  1  0
 16 17  1  0
 17 18  2  0
 18 19  1  0
 19 20  2  0
 20 21  1  0
 21 22  2  0
 22 23  1  0
 21 24  1  0
 20 25  1  0
 18 26  1  0
 16 27  1  0
 16 28  1  0
 15 29  2  0
 29 30  1  0
  2 31  1  0
  1 32  1  0
  1 33  1  0
  1 34  1  0
  8  3  1  0
 30 13  1  0
 22 17  1  0
M  END
>  <cnnaffinity>  (1) 
-5.48432

>  <filename>  (1) 
CC(c1cccnc1)c1nc(Cc2cnccc2Cl)no1

$$$$
