
     RDKit          3D

 35 36  0  0  0  0  0  0  0  0999 V2000
    6.9210   -0.4818   22.3954 C   0  0  0  0  0  0  0  0  0  0  0  0
    7.4914   -0.6708   21.0033 C   0  0  0  0  0  0  0  0  0  0  0  0
    8.9692   -0.2917   20.9615 C   0  0  0  0  0  0  0  0  0  0  0  0
    9.4745   -0.6389   21.8666 H   0  0  0  0  0  0  0  0  0  0  0  0
    9.0649    0.7937   20.9097 H   0  0  0  0  0  0  0  0  0  0  0  0
    9.4834   -0.7392   20.1049 H   0  0  0  0  0  0  0  0  0  0  0  0
    7.3330   -2.2145   20.6180 N   0  0  0  0  0  4  0  0  0  0  0  0
    7.8800   -3.2267   21.5800 C   0  0  0  0  0  0  0  0  0  0  0  0
    6.8659   -3.9155   22.5050 C   0  0  0  0  0  0  0  0  0  0  0  0
    6.8657   -3.5457   23.7985 N   0  0  0  0  0  0  0  0  0  0  0  0
    5.9354   -4.0480   24.6191 C   0  0  0  0  0  0  0  0  0  0  0  0
    5.0026   -4.9995   24.2132 C   0  0  0  0  0  0  0  0  0  0  0  0
    5.0372   -5.4417   22.8840 C   0  0  0  0  0  0  0  0  0  0  0  0
    3.9004   -6.6307   22.3529 Cl  0  0  0  0  0  0  0  0  0  0  0  0
    5.9811   -4.8943   22.0081 C   0  0  0  0  0  0  0  0  0  0  0  0
    6.0519   -5.3386   20.3285 Cl  0  0  0  0  0  0  0  0  0  0  0  0
    4.2744   -5.3995   24.9077 H   0  0  0  0  0  0  0  0  0  0  0  0
    5.9247   -3.6521   25.6370 H   0  0  0  0  0  0  0  0  0  0  0  0
    8.4268   -4.0192   21.0594 H   0  0  0  0  0  0  0  0  0  0  0  0
    8.5776   -2.7414   22.2654 H   0  0  0  0  0  0  0  0  0  0  0  0
    6.2969   -2.3014   20.5030 H   0  0  0  0  0  0  0  0  0  0  0  0
    7.7461   -2.2469   19.6662 H   0  0  0  0  0  0  0  0  0  0  0  0
    6.6689   -0.0078   19.9188 C   0  0  0  0  0  0  0  0  0  0  0  0
    5.4366    0.6365   20.1469 C   0  0  0  0  0  0  0  0  0  0  0  0
    4.8001    1.2916   19.0911 C   0  0  0  0  0  0  0  0  0  0  0  0
    5.4019    1.2698   17.8314 C   0  0  0  0  0  0  0  0  0  0  0  0
    6.5535    0.6335   17.5792 N   0  0  0  0  0  0  0  0  0  0  0  0
    7.1608    0.0203   18.6021 C   0  0  0  0  0  0  0  0  0  0  0  0
    8.1167   -0.4413   18.3446 H   0  0  0  0  0  0  0  0  0  0  0  0
    4.9553    1.7957   16.9885 H   0  0  0  0  0  0  0  0  0  0  0  0
    3.8774    1.8444   19.2410 H   0  0  0  0  0  0  0  0  0  0  0  0
    4.9863    0.6446   21.1406 H   0  0  0  0  0  0  0  0  0  0  0  0
    7.5630   -0.9363   23.1520 H   0  0  0  0  0  0  0  0  0  0  0  0
    6.8140    0.5776   22.6269 H   0  0  0  0  0  0  0  0  0  0  0  0
    5.9566   -0.9842   22.4299 H   0  0  0  0  0  0  0  0  0  0  0  0
  1  2  1  0
  2  3  1  0
  3  4  1  0
  3  5  1  0
  3  6  1  0
  2  7  1  0
  7  8  1  0
  8  9  1  0
  9 10  2  0
 10 11  1  0
 11 12  2  0
 12 13  1  0
 13 14  1  0
 13 15  2  0
 15 16  1  0
 12 17  1  0
 11 18  1  0
  8 19  1  0
  8 20  1  0
  7 21  1  0
  7 22  1  0
  2 23  1  0
 23 24  2  0
 24 25  1  0
 25 26  2  0
 26 27  1  0
 27 28  2  0
 28 29  1  0
 26 30  1  0
 25 31  1  0
 24 32  1  0
  1 33  1  0
  1 34  1  0
  1 35  1  0
 15  9  1  0
 28 23  1  0
M  CHG  1   7   1
M  END
>  <cnnaffinity>  (1) 
-5.04514

>  <filename>  (1) 
CC(C)([NH2+]Cc1nccc(Cl)c1Cl)c1cccnc1

$$$$
