
     RDKit          3D

 41 42  0  0  0  0  0  0  0  0999 V2000
    7.5840    1.0489   22.3389 C   0  0  0  0  0  0  0  0  0  0  0  0
    8.2329   -0.2059   21.7572 C   0  0  0  0  0  0  0  0  0  0  0  0
    9.5058    0.1055   20.9704 C   0  0  0  0  0  0  0  0  0  0  0  0
    9.3038    0.7539   20.1107 H   0  0  0  0  0  0  0  0  0  0  0  0
    9.9638   -0.8245   20.6171 H   0  0  0  0  0  0  0  0  0  0  0  0
   10.2291    0.6216   21.6135 H   0  0  0  0  0  0  0  0  0  0  0  0
    7.2662   -1.0120   20.9430 N   0  0  0  0  0  0  0  0  0  0  0  0
    7.3620   -2.4057   21.0863 C   0  0  0  0  0  0  0  0  0  0  0  0
    8.3411   -2.9338   21.5739 O   0  0  0  0  0  0  0  0  0  0  0  0
    6.1428   -3.2451   20.6202 C   0  0  0  0  0  0  0  0  0  0  0  0
    5.9345   -4.4728   21.3236 O   0  0  0  0  0  0  0  0  0  0  0  0
    5.4050   -4.4536   22.5835 C   0  0  0  0  0  0  0  0  0  0  0  0
    5.2784   -3.2717   23.3213 C   0  0  0  0  0  0  0  0  0  0  0  0
    4.5044   -3.2547   24.4827 C   0  0  0  0  0  0  0  0  0  0  0  0
    3.9101   -4.4271   24.9413 C   0  0  0  0  0  0  0  0  0  0  0  0
    4.1577   -5.6316   24.2798 C   0  0  0  0  0  0  0  0  0  0  0  0
    4.9744   -5.6749   23.1395 C   0  0  0  0  0  0  0  0  0  0  0  0
    5.3693   -6.9779   22.4815 C   0  0  0  0  0  0  0  0  0  0  0  0
    5.1969   -8.0200   23.3513 F   0  0  0  0  0  0  0  0  0  0  0  0
    6.6794   -6.9847   22.1174 F   0  0  0  0  0  0  0  0  0  0  0  0
    4.7764   -7.1709   21.5788 H   0  0  0  0  0  0  0  0  0  0  0  0
    3.7210   -6.5480   24.6655 H   0  0  0  0  0  0  0  0  0  0  0  0
    3.2799   -4.4267   25.8261 H   0  0  0  0  0  0  0  0  0  0  0  0
    4.3742   -2.3199   25.0201 H   0  0  0  0  0  0  0  0  0  0  0  0
    5.7967   -2.3784   22.9889 H   0  0  0  0  0  0  0  0  0  0  0  0
    5.2574   -2.6044   20.6564 H   0  0  0  0  0  0  0  0  0  0  0  0
    6.2907   -3.5421   19.5843 H   0  0  0  0  0  0  0  0  0  0  0  0
    6.5843   -0.3288   19.8624 C   0  0  0  0  0  0  0  0  0  0  0  0
    5.3931    0.3725   20.1085 C   0  0  0  0  0  0  0  0  0  0  0  0
    4.8435    1.1628   19.0903 C   0  0  0  0  0  0  0  0  0  0  0  0
    5.4822    1.2181   17.8505 C   0  0  0  0  0  0  0  0  0  0  0  0
    6.6036    0.5322   17.5736 N   0  0  0  0  0  0  0  0  0  0  0  0
    7.1340   -0.2066   18.5591 C   0  0  0  0  0  0  0  0  0  0  0  0
    8.0647   -0.7230   18.3173 H   0  0  0  0  0  0  0  0  0  0  0  0
    5.0801    1.8282   17.0443 H   0  0  0  0  0  0  0  0  0  0  0  0
    3.9513    1.7581   19.2571 H   0  0  0  0  0  0  0  0  0  0  0  0
    4.9447    0.3401   21.1021 H   0  0  0  0  0  0  0  0  0  0  0  0
    8.5208   -0.8471   22.5994 H   0  0  0  0  0  0  0  0  0  0  0  0
    7.3102    1.7730   21.5635 H   0  0  0  0  0  0  0  0  0  0  0  0
    6.6757    0.7985   22.8965 H   0  0  0  0  0  0  0  0  0  0  0  0
    8.2798    1.5446   23.0250 H   0  0  0  0  0  0  0  0  0  0  0  0
  1  2  1  0
  2  3  1  0
  3  4  1  0
  3  5  1  0
  3  6  1  0
  2  7  1  0
  7  8  1  0
  8  9  2  0
  8 10  1  0
 10 11  1  0
 11 12  1  0
 12 13  2  0
 13 14  1  0
 14 15  2  0
 15 16  1  0
 16 17  2  0
 17 18  1  0
 18 19  1  0
 18 20  1  0
 18 21  1  0
 16 22  1  0
 15 23  1  0
 14 24  1  0
 13 25  1  0
 10 26  1  0
 10 27  1  0
  7 28  1  0
 28 29  2  0
 29 30  1  0
 30 31  2  0
 31 32  1  0
 32 33  2  0
 33 34  1  0
 31 35  1  0
 30 36  1  0
 29 37  1  0
  2 38  1  0
  1 39  1  0
  1 40  1  0
  1 41  1  0
 17 12  1  0
 33 28  1  0
M  END
>  <cnnaffinity>  (1) 
-4.20834

>  <filename>  (1) 
CC(C)N(C(=O)COc1ccccc1C(F)F)c1cccnc1

$$$$
