
     RDKit          3D

 47 50  0  0  0  0  0  0  0  0999 V2000
    7.3371   -4.1464   23.8309 C   0  0  0  0  0  0  0  0  0  0  0  0
    6.7742   -2.8659   24.4629 C   0  0  0  0  0  0  0  0  0  0  0  0
    6.4382   -3.0826   25.9483 C   0  0  0  0  0  0  0  0  0  0  0  0
    5.4609   -4.0892   26.1405 O   0  0  0  0  0  0  0  0  0  0  0  0
    4.7120   -3.8743   25.5692 H   0  0  0  0  0  0  0  0  0  0  0  0
    7.3223   -3.4234   26.5036 H   0  0  0  0  0  0  0  0  0  0  0  0
    6.1177   -2.1343   26.4132 H   0  0  0  0  0  0  0  0  0  0  0  0
    7.7055   -1.6471   24.2837 C   0  0  0  0  0  0  0  0  0  0  0  0
    7.8615   -1.2064   22.8942 N   0  0  0  0  0  0  0  0  0  0  0  0
    6.8330   -0.5832   22.2612 N   0  0  0  0  0  0  0  0  0  0  0  0
    7.3053   -0.3863   21.0446 C   0  0  0  0  0  0  0  0  0  0  0  0
    6.5769    0.2154   19.9287 C   0  0  0  0  0  0  0  0  0  0  0  0
    5.3381    0.8649   20.0491 C   0  0  0  0  0  0  0  0  0  0  0  0
    4.7716    1.4028   18.8951 C   0  0  0  0  0  0  0  0  0  0  0  0
    5.4457    1.2695   17.6759 C   0  0  0  0  0  0  0  0  0  0  0  0
    6.6255    0.6455   17.5503 N   0  0  0  0  0  0  0  0  0  0  0  0
    7.1743    0.1424   18.6589 C   0  0  0  0  0  0  0  0  0  0  0  0
    8.1421   -0.3393   18.5359 H   0  0  0  0  0  0  0  0  0  0  0  0
    5.0273    1.6865   16.7620 H   0  0  0  0  0  0  0  0  0  0  0  0
    3.8312    1.9400   18.9218 H   0  0  0  0  0  0  0  0  0  0  0  0
    4.8440    0.9533   21.0193 H   0  0  0  0  0  0  0  0  0  0  0  0
    8.5636   -0.8559   20.8531 N   0  0  0  0  0  0  0  0  0  0  0  0
    8.8905   -1.3581   22.0246 C   0  0  0  0  0  0  0  0  0  0  0  0
   10.1668   -2.1077   22.2511 C   0  0  0  0  0  0  0  0  0  0  0  0
   11.4554   -1.2997   22.3240 C   0  0  0  0  0  0  0  0  0  0  0  0
   12.5692   -1.6796   21.6219 C   0  0  0  0  0  0  0  0  0  0  0  0
   13.5926   -0.7884   21.8170 N   0  0  0  0  0  0  0  0  0  0  0  0
   13.1420    0.2409   22.5874 C   0  0  0  0  0  0  0  0  0  0  0  0
   13.7961    1.4491   22.8445 C   0  0  0  0  0  0  0  0  0  0  0  0
   13.0761    2.4100   23.5314 C   0  0  0  0  0  0  0  0  0  0  0  0
   13.7516    4.0106   23.6090 Cl  0  0  0  0  0  0  0  0  0  0  0  0
   11.7956    2.1441   24.0771 C   0  0  0  0  0  0  0  0  0  0  0  0
   11.1570    0.9392   23.7794 C   0  0  0  0  0  0  0  0  0  0  0  0
   11.8023   -0.0395   22.9764 C   0  0  0  0  0  0  0  0  0  0  0  0
   10.1500    0.7736   24.1512 H   0  0  0  0  0  0  0  0  0  0  0  0
   11.3144    2.8858   24.7092 H   0  0  0  0  0  0  0  0  0  0  0  0
   14.7984    1.6444   22.4789 H   0  0  0  0  0  0  0  0  0  0  0  0
   14.5229   -0.8618   21.4459 H   0  0  0  0  0  0  0  0  0  0  0  0
   12.6989   -2.4835   20.9131 H   0  0  0  0  0  0  0  0  0  0  0  0
   10.0454   -2.7896   23.1027 H   0  0  0  0  0  0  0  0  0  0  0  0
   10.2296   -2.7639   21.3762 H   0  0  0  0  0  0  0  0  0  0  0  0
    8.7025   -1.8794   24.6726 H   0  0  0  0  0  0  0  0  0  0  0  0
    7.3161   -0.7916   24.8453 H   0  0  0  0  0  0  0  0  0  0  0  0
    5.8287   -2.6063   23.9601 H   0  0  0  0  0  0  0  0  0  0  0  0
    7.4898   -4.0371   22.7522 H   0  0  0  0  0  0  0  0  0  0  0  0
    8.2990   -4.4284   24.2813 H   0  0  0  0  0  0  0  0  0  0  0  0
    6.6513   -4.9837   24.0005 H   0  0  0  0  0  0  0  0  0  0  0  0
  1  2  1  0
  2  3  1  0
  3  4  1  0
  4  5  1  0
  3  6  1  0
  3  7  1  0
  2  8  1  0
  8  9  1  0
  9 10  1  0
 10 11  2  0
 11 12  1  0
 12 13  2  0
 13 14  1  0
 14 15  2  0
 15 16  1  0
 16 17  2  0
 17 18  1  0
 15 19  1  0
 14 20  1  0
 13 21  1  0
 11 22  1  0
 22 23  2  0
 23 24  1  0
 24 25  1  0
 25 26  2  0
 26 27  1  0
 27 28  1  0
 28 29  2  0
 29 30  1  0
 30 31  1  0
 30 32  2  0
 32 33  1  0
 33 34  2  0
 33 35  1  0
 32 36  1  0
 29 37  1  0
 27 38  1  0
 26 39  1  0
 24 40  1  0
 24 41  1  0
  8 42  1  0
  8 43  1  0
  2 44  1  0
  1 45  1  0
  1 46  1  0
  1 47  1  0
 23  9  1  0
 34 25  1  0
 17 12  1  0
 34 28  1  0
M  END
>  <cnnaffinity>  (1) 
-6.70165

>  <filename>  (1) 
CC(CO)Cn1nc(-c2cccnc2)nc1Cc1c[nH]c2cc(Cl)ccc12

$$$$
