
     RDKit          3D

 51 55  0  0  0  0  0  0  0  0999 V2000
   12.0199    1.3925   24.6715 C   0  0  0  0  0  0  0  0  0  0  0  0
   12.4879    1.4364   23.2138 C   0  0  0  0  0  0  0  0  0  0  0  0
   11.4805    2.1236   22.2251 C   0  0  0  0  0  0  0  0  0  0  0  0
   10.0903    1.5477   22.1262 C   0  0  0  0  0  0  0  0  0  0  0  0
    9.6555    0.6977   21.2040 N   0  0  0  0  0  0  0  0  0  0  0  0
    8.4177    0.3477   21.6535 C   0  0  0  0  0  0  0  0  0  0  0  0
    7.4942   -0.6158   20.9528 C   0  0  0  0  0  0  0  0  0  0  0  0
    6.6827    0.0088   19.8221 C   0  0  0  0  0  0  0  0  0  0  0  0
    5.4638    0.6553   20.0732 C   0  0  0  0  0  0  0  0  0  0  0  0
    4.8176    1.3206   19.0274 C   0  0  0  0  0  0  0  0  0  0  0  0
    5.4065    1.3027   17.7597 C   0  0  0  0  0  0  0  0  0  0  0  0
    6.5475    0.6522   17.4840 N   0  0  0  0  0  0  0  0  0  0  0  0
    7.1520    0.0203   18.4971 C   0  0  0  0  0  0  0  0  0  0  0  0
    8.0659   -0.5208   18.2471 H   0  0  0  0  0  0  0  0  0  0  0  0
    4.9386    1.8169   16.9219 H   0  0  0  0  0  0  0  0  0  0  0  0
    3.8819    1.8496   19.1789 H   0  0  0  0  0  0  0  0  0  0  0  0
    5.0254    0.6272   21.0733 H   0  0  0  0  0  0  0  0  0  0  0  0
    6.8168   -1.0144   21.7167 H   0  0  0  0  0  0  0  0  0  0  0  0
    8.0970   -1.4494   20.5789 H   0  0  0  0  0  0  0  0  0  0  0  0
    8.0509    0.9444   22.7676 N   0  0  0  0  0  0  0  0  0  0  0  0
    9.0960    1.7694   23.0338 N   0  0  0  0  0  0  0  0  0  0  0  0
    9.0178    2.7099   24.0933 C   0  0  0  0  0  0  0  0  0  0  0  0
    8.7326    2.3170   25.4028 C   0  0  0  0  0  0  0  0  0  0  0  0
    8.7072    3.2688   26.4457 C   0  0  0  0  0  0  0  0  0  0  0  0
    8.9528    4.6206   26.2058 C   0  0  0  0  0  0  0  0  0  0  0  0
    9.1935    5.0297   24.8799 C   0  0  0  0  0  0  0  0  0  0  0  0
    9.2047    4.0802   23.8466 C   0  0  0  0  0  0  0  0  0  0  0  0
    9.3706    4.8155   22.6936 N   0  0  0  0  0  0  0  0  0  0  0  0
    9.4627    6.1236   23.0731 C   0  0  0  0  0  0  0  0  0  0  0  0
    9.3778    6.3044   24.3579 N   0  0  0  0  0  0  0  0  0  0  0  0
    9.5878    6.9128   22.3412 H   0  0  0  0  0  0  0  0  0  0  0  0
    9.3196    4.4765   21.7463 H   0  0  0  0  0  0  0  0  0  0  0  0
    8.9368    5.3723   26.9864 H   0  0  0  0  0  0  0  0  0  0  0  0
    8.4704    2.9268   27.4494 H   0  0  0  0  0  0  0  0  0  0  0  0
    8.5091    1.2734   25.6116 H   0  0  0  0  0  0  0  0  0  0  0  0
   11.4134    3.1832   22.4725 H   0  0  0  0  0  0  0  0  0  0  0  0
   11.8980    2.0564   21.2168 H   0  0  0  0  0  0  0  0  0  0  0  0
   12.8182    0.0599   22.6774 C   0  0  0  0  0  0  0  0  0  0  0  0
   11.7960   -0.8799   22.6087 C   0  0  0  0  0  0  0  0  0  0  0  0
   11.8458   -1.8341   21.6001 C   0  0  0  0  0  0  0  0  0  0  0  0
   12.9206   -2.0373   20.8267 N   0  0  0  0  0  0  0  0  0  0  0  0
   14.0017   -1.2988   21.0835 C   0  0  0  0  0  0  0  0  0  0  0  0
   14.0053   -0.2334   21.9943 C   0  0  0  0  0  0  0  0  0  0  0  0
   14.8548    0.4337   22.0535 H   0  0  0  0  0  0  0  0  0  0  0  0
   14.8791   -1.5203   20.4813 H   0  0  0  0  0  0  0  0  0  0  0  0
   10.9578   -2.4215   21.3918 H   0  0  0  0  0  0  0  0  0  0  0  0
   10.9136   -0.8242   23.2382 H   0  0  0  0  0  0  0  0  0  0  0  0
   13.4109    2.0281   23.1753 H   0  0  0  0  0  0  0  0  0  0  0  0
   11.1037    0.8052   24.8008 H   0  0  0  0  0  0  0  0  0  0  0  0
   12.7945    0.9239   25.2899 H   0  0  0  0  0  0  0  0  0  0  0  0
   11.8261    2.4027   25.0479 H   0  0  0  0  0  0  0  0  0  0  0  0
  1  2  1  0
  2  3  1  0
  3  4  1  0
  4  5  2  0
  5  6  1  0
  6  7  1  0
  7  8  1  0
  8  9  2  0
  9 10  1  0
 10 11  2  0
 11 12  1  0
 12 13  2  0
 13 14  1  0
 11 15  1  0
 10 16  1  0
  9 17  1  0
  7 18  1  0
  7 19  1  0
  6 20  2  0
 20 21  1  0
 21 22  1  0
 22 23  2  0
 23 24  1  0
 24 25  2  0
 25 26  1  0
 26 27  2  0
 27 28  1  0
 28 29  1  0
 29 30  2  0
 29 31  1  0
 28 32  1  0
 25 33  1  0
 24 34  1  0
 23 35  1  0
  3 36  1  0
  3 37  1  0
  2 38  1  0
 38 39  2  0
 39 40  1  0
 40 41  2  0
 41 42  1  0
 42 43  2  0
 43 44  1  0
 42 45  1  0
 40 46  1  0
 39 47  1  0
  2 48  1  0
  1 49  1  0
  1 50  1  0
  1 51  1  0
 21  4  1  0
 27 22  1  0
 43 38  1  0
 13  8  1  0
 30 26  1  0
M  END
>  <cnnaffinity>  (1) 
-6.88676

>  <filename>  (1) 
CC(Cc1nc(Cc2cccnc2)nn1-c1cccc2nc[nH]c12)c1ccncc1

$$$$
