
     RDKit          3D

 49 53  0  0  0  0  0  0  0  0999 V2000
    8.4498    2.5849   25.2936 C   0  0  0  0  0  0  0  0  0  0  0  0
    8.7896    3.1195   23.9046 C   0  0  0  0  0  0  0  0  0  0  0  0
    7.8376    4.2371   23.4259 C   0  0  0  0  0  0  0  0  0  0  0  0
    6.3192    3.9314   23.2875 C   0  0  0  0  0  0  0  0  0  0  0  0
    6.3795    4.3242   21.7908 C   0  0  0  0  0  0  0  0  0  0  0  0
    7.8957    4.6121   21.9218 C   0  0  0  0  0  0  0  0  0  0  0  0
    8.2235    5.6333   21.6990 H   0  0  0  0  0  0  0  0  0  0  0  0
    8.5179    3.9305   21.3378 H   0  0  0  0  0  0  0  0  0  0  0  0
    5.7595    5.1783   21.4988 H   0  0  0  0  0  0  0  0  0  0  0  0
    6.1500    3.4881   21.1187 H   0  0  0  0  0  0  0  0  0  0  0  0
    5.6742    4.5534   23.9183 H   0  0  0  0  0  0  0  0  0  0  0  0
    6.0450    2.8887   23.4619 H   0  0  0  0  0  0  0  0  0  0  0  0
    8.0057    5.1095   24.0730 H   0  0  0  0  0  0  0  0  0  0  0  0
    8.9154    2.0047   22.9329 N   0  0  0  0  0  0  0  0  0  0  0  0
    7.8276    1.2828   22.5787 N   0  0  0  0  0  0  0  0  0  0  0  0
    8.3017    0.4033   21.7175 C   0  0  0  0  0  0  0  0  0  0  0  0
    7.4074   -0.5762   21.0056 C   0  0  0  0  0  0  0  0  0  0  0  0
    6.6265    0.0271   19.8430 C   0  0  0  0  0  0  0  0  0  0  0  0
    5.4121    0.6864   20.0669 C   0  0  0  0  0  0  0  0  0  0  0  0
    4.7779    1.3312   19.0025 C   0  0  0  0  0  0  0  0  0  0  0  0
    5.3917    1.2977   17.7472 C   0  0  0  0  0  0  0  0  0  0  0  0
    6.5358    0.6417   17.4965 N   0  0  0  0  0  0  0  0  0  0  0  0
    7.1221    0.0171   18.5260 C   0  0  0  0  0  0  0  0  0  0  0  0
    8.0410   -0.5276   18.2986 H   0  0  0  0  0  0  0  0  0  0  0  0
    4.9465    1.8184   16.9036 H   0  0  0  0  0  0  0  0  0  0  0  0
    3.8388    1.8598   19.1341 H   0  0  0  0  0  0  0  0  0  0  0  0
    4.9875    0.7019   21.0726 H   0  0  0  0  0  0  0  0  0  0  0  0
    8.0324   -1.4053   20.6571 H   0  0  0  0  0  0  0  0  0  0  0  0
    6.7120   -0.9702   21.7564 H   0  0  0  0  0  0  0  0  0  0  0  0
    9.6378    0.4810   21.5188 N   0  0  0  0  0  0  0  0  0  0  0  0
   10.0061    1.5031   22.2891 C   0  0  0  0  0  0  0  0  0  0  0  0
   11.3424    2.0749   22.4473 C   0  0  0  0  0  0  0  0  0  0  0  0
   11.6132    3.4421   22.3882 C   0  0  0  0  0  0  0  0  0  0  0  0
   12.9441    3.9324   22.4595 C   0  0  0  0  0  0  0  0  0  0  0  0
   13.9834    3.0470   22.6170 C   0  0  0  0  0  0  0  0  0  0  0  0
   13.7145    1.6975   22.7155 N   0  0  0  0  0  0  0  0  0  0  0  0
   14.6566    0.7472   22.8293 N   0  0  0  0  0  0  0  0  0  0  0  0
   13.9856   -0.4033   22.7954 C   0  0  0  0  0  0  0  0  0  0  0  0
   12.6051   -0.2156   22.6570 C   0  0  0  0  0  0  0  0  0  0  0  0
   12.4315    1.1674   22.6026 C   0  0  0  0  0  0  0  0  0  0  0  0
   11.8114   -0.9385   22.5414 H   0  0  0  0  0  0  0  0  0  0  0  0
   14.5417   -1.3308   22.8709 H   0  0  0  0  0  0  0  0  0  0  0  0
   15.0359    3.2804   22.5620 H   0  0  0  0  0  0  0  0  0  0  0  0
   13.1436    4.9959   22.3905 H   0  0  0  0  0  0  0  0  0  0  0  0
   10.8081    4.1650   22.2573 H   0  0  0  0  0  0  0  0  0  0  0  0
    9.7804    3.5623   23.9762 H   0  0  0  0  0  0  0  0  0  0  0  0
    9.1931    1.8381   25.5881 H   0  0  0  0  0  0  0  0  0  0  0  0
    7.4609    2.1182   25.3172 H   0  0  0  0  0  0  0  0  0  0  0  0
    8.4739    3.3889   26.0387 H   0  0  0  0  0  0  0  0  0  0  0  0
  1  2  1  0
  2  3  1  0
  3  4  1  0
  4  5  1  0
  5  6  1  0
  6  7  1  0
  6  8  1  0
  5  9  1  0
  5 10  1  0
  4 11  1  0
  4 12  1  0
  3 13  1  0
  2 14  1  0
 14 15  1  0
 15 16  2  0
 16 17  1  0
 17 18  1  0
 18 19  2  0
 19 20  1  0
 20 21  2  0
 21 22  1  0
 22 23  2  0
 23 24  1  0
 21 25  1  0
 20 26  1  0
 19 27  1  0
 17 28  1  0
 17 29  1  0
 16 30  1  0
 30 31  2  0
 31 32  1  0
 32 33  2  0
 33 34  1  0
 34 35  2  0
 35 36  1  0
 36 37  1  0
 37 38  2  0
 38 39  1  0
 39 40  2  0
 39 41  1  0
 38 42  1  0
 35 43  1  0
 34 44  1  0
 33 45  1  0
  2 46  1  0
  1 47  1  0
  1 48  1  0
  1 49  1  0
  6  3  1  0
 31 14  1  0
 40 32  1  0
 23 18  1  0
 40 36  1  0
M  END
>  <cnnaffinity>  (1) 
-6.76826

>  <filename>  (1) 
CC(C1CCC1)n1nc(Cc2cccnc2)nc1-c1cccn2nccc12

$$$$
