
     RDKit          3D

 33 34  0  0  0  0  0  0  0  0999 V2000
    9.3052   -0.1102   24.7560 H   0  0  0  0  0  0  0  0  0  0  0  0
   10.2688   -0.1513   24.8438 O   0  0  0  0  0  0  0  0  0  0  0  0
   10.8298    0.4084   23.6761 C   0  0  0  0  0  0  0  0  0  0  0  0
   10.3853    1.3949   23.4589 H   0  0  0  0  0  0  0  0  0  0  0  0
   11.8843    0.6160   23.9065 H   0  0  0  0  0  0  0  0  0  0  0  0
   10.7454   -0.4847   22.4041 C   0  0  0  0  0  0  0  0  0  0  0  0
    9.2698   -0.8898   22.1773 C   0  0  0  0  0  0  0  0  0  0  0  0
    8.6400   -0.4073   21.1392 N   0  0  0  0  0  0  0  0  0  0  0  0
    7.3156   -0.7300   20.9628 N   0  0  0  0  0  0  0  0  0  0  0  0
    6.6678   -0.0044   19.9187 C   0  0  0  0  0  0  0  0  0  0  0  0
    7.2844    0.1158   18.6624 C   0  0  0  0  0  0  0  0  0  0  0  0
    8.2693   -0.3221   18.5110 H   0  0  0  0  0  0  0  0  0  0  0  0
    6.7098    0.7284   17.6213 N   0  0  0  0  0  0  0  0  0  0  0  0
    5.5116    1.3075   17.8221 C   0  0  0  0  0  0  0  0  0  0  0  0
    5.0733    1.8104   16.9616 H   0  0  0  0  0  0  0  0  0  0  0  0
    4.8407    1.2747   19.0481 C   0  0  0  0  0  0  0  0  0  0  0  0
    3.8949    1.7974   19.1521 H   0  0  0  0  0  0  0  0  0  0  0  0
    5.4168    0.5884   20.1213 C   0  0  0  0  0  0  0  0  0  0  0  0
    4.9194    0.5209   21.0873 H   0  0  0  0  0  0  0  0  0  0  0  0
    6.6224   -1.7911   21.6464 C   0  0  0  0  0  0  0  0  0  0  0  0
    5.5430   -2.2236   21.2861 O   0  0  0  0  0  0  0  0  0  0  0  0
    7.3636   -2.2829   22.7959 C   0  0  0  0  0  0  0  0  0  0  0  0
    6.8220   -3.0108   23.3855 H   0  0  0  0  0  0  0  0  0  0  0  0
    8.6171   -1.8219   23.0756 C   0  0  0  0  0  0  0  0  0  0  0  0
    9.1480   -2.1461   23.9653 H   0  0  0  0  0  0  0  0  0  0  0  0
   11.3599    0.3157   21.2466 C   0  0  0  0  0  0  0  0  0  0  0  0
   12.2560    0.8531   21.5816 H   0  0  0  0  0  0  0  0  0  0  0  0
   11.6414   -0.3859   20.4514 H   0  0  0  0  0  0  0  0  0  0  0  0
   10.6676    1.0518   20.8420 H   0  0  0  0  0  0  0  0  0  0  0  0
   11.6118   -1.7632   22.5123 C   0  0  0  0  0  0  0  0  0  0  0  0
   11.2361   -2.4652   23.2599 H   0  0  0  0  0  0  0  0  0  0  0  0
   12.6522   -1.5007   22.7389 H   0  0  0  0  0  0  0  0  0  0  0  0
   11.6475   -2.2737   21.5429 H   0  0  0  0  0  0  0  0  0  0  0  0
  1  2  1  0
  2  3  1  0
  3  4  1  0
  3  5  1  0
  3  6  1  0
  6  7  1  0
  7  8  2  0
  8  9  1  0
  9 10  1  0
 10 11  2  0
 11 12  1  0
 11 13  1  0
 13 14  2  0
 14 15  1  0
 14 16  1  0
 16 17  1  0
 16 18  2  0
 18 19  1  0
  9 20  1  0
 20 21  2  0
 20 22  1  0
 22 23  1  0
 22 24  2  0
 24 25  1  0
  6 26  1  0
 26 27  1  0
 26 28  1  0
 26 29  1  0
  6 30  1  0
 30 31  1  0
 30 32  1  0
 30 33  1  0
 24  7  1  0
 18 10  1  0
M  END
>  <cnnaffinity>  (1) 
-4.63141

>  <filename>  (1) 
CC(C)(CO)c1ccc(=O)n(-c2cccnc2)n1

$$$$
