
     RDKit          3D

 30 31  0  0  0  0  0  0  0  0999 V2000
    4.8952    1.7752   17.0140 H   0  0  0  0  0  0  0  0  0  0  0  0
    5.3989    1.2924   17.8425 C   0  0  0  0  0  0  0  0  0  0  0  0
    6.5694    0.6812   17.5926 N   0  0  0  0  0  0  0  0  0  0  0  0
    7.1907    0.0538   18.6081 C   0  0  0  0  0  0  0  0  0  0  0  0
    8.1353   -0.4426   18.3904 H   0  0  0  0  0  0  0  0  0  0  0  0
    6.6613    0.0034   19.9112 C   0  0  0  0  0  0  0  0  0  0  0  0
    7.3463   -0.7504   21.0475 C   0  0  0  0  0  0  0  0  0  0  0  0
    7.4478    0.1754   22.2646 C   0  0  0  0  0  0  0  0  0  0  0  0
    7.0644   -0.2301   23.5610 C   0  0  0  0  0  0  0  0  0  0  0  0
    6.6594   -1.2193   23.7481 H   0  0  0  0  0  0  0  0  0  0  0  0
    7.2037    0.6327   24.6565 C   0  0  0  0  0  0  0  0  0  0  0  0
    6.9029    0.3037   25.6468 H   0  0  0  0  0  0  0  0  0  0  0  0
    7.7313    1.9142   24.4846 C   0  0  0  0  0  0  0  0  0  0  0  0
    7.9193    3.0873   25.9801 Br  0  0  0  0  0  0  0  0  0  0  0  0
    8.1271    2.3284   23.2116 C   0  0  0  0  0  0  0  0  0  0  0  0
    8.5455    3.3207   23.0717 H   0  0  0  0  0  0  0  0  0  0  0  0
    7.9896    1.4692   22.1159 C   0  0  0  0  0  0  0  0  0  0  0  0
    8.3149    1.8167   21.1409 H   0  0  0  0  0  0  0  0  0  0  0  0
    6.4985   -2.0154   21.2977 C   0  0  0  0  0  0  0  0  0  0  0  0
    6.3711   -2.5837   20.3692 H   0  0  0  0  0  0  0  0  0  0  0  0
    5.5036   -1.7561   21.6717 H   0  0  0  0  0  0  0  0  0  0  0  0
    6.9868   -2.6682   22.0272 H   0  0  0  0  0  0  0  0  0  0  0  0
    8.7832   -1.2002   20.7178 C   0  0  0  0  0  0  0  0  0  0  0  0
    9.2443   -1.6526   21.6008 H   0  0  0  0  0  0  0  0  0  0  0  0
    9.4058   -0.3608   20.3964 H   0  0  0  0  0  0  0  0  0  0  0  0
    8.7914   -1.9472   19.9320 H   0  0  0  0  0  0  0  0  0  0  0  0
    5.4453    0.6508   20.1561 C   0  0  0  0  0  0  0  0  0  0  0  0
    5.0104    0.6295   21.1514 H   0  0  0  0  0  0  0  0  0  0  0  0
    4.8103    1.3122   19.1101 C   0  0  0  0  0  0  0  0  0  0  0  0
    3.8760    1.8413   19.2680 H   0  0  0  0  0  0  0  0  0  0  0  0
  1  2  1  0
  2  3  2  0
  3  4  1  0
  4  5  1  0
  4  6  2  0
  6  7  1  0
  7  8  1  0
  8  9  2  0
  9 10  1  0
  9 11  1  0
 11 12  1  0
 11 13  2  0
 13 14  1  0
 13 15  1  0
 15 16  1  0
 15 17  2  0
 17 18  1  0
  7 19  1  0
 19 20  1  0
 19 21  1  0
 19 22  1  0
  7 23  1  0
 23 24  1  0
 23 25  1  0
 23 26  1  0
  6 27  1  0
 27 28  1  0
 27 29  2  0
 29 30  1  0
 29  2  1  0
 17  8  1  0
M  END
>  <cnnaffinity>  (1) 
-4.47567

>  <filename>  (1) 
CC(C)(c1ccc(Br)cc1)c1cccnc1

$$$$
