
     RDKit          3D

 33 34  0  0  0  0  0  0  0  0999 V2000
    9.4934    4.2491   22.5442 H   0  0  0  0  0  0  0  0  0  0  0  0
    8.7646    3.4516   22.6627 C   0  0  0  0  0  0  0  0  0  0  0  0
    9.0875    2.2737   22.1189 N   0  0  0  0  0  0  0  0  0  0  0  0
    8.1956    1.2796   22.2456 C   0  0  0  0  0  0  0  0  0  0  0  0
    8.4983   -0.1440   21.6410 C   0  0  0  0  0  0  0  0  0  0  0  0
    7.3876   -0.8005   20.8648 N   0  0  0  0  0  0  0  0  0  0  0  0
    6.8054   -1.4210   21.4211 H   0  0  0  0  0  0  0  0  0  0  0  0
    6.6703   -0.0359   19.8997 C   0  0  0  0  0  0  0  0  0  0  0  0
    7.1679    0.0643   18.5789 C   0  0  0  0  0  0  0  0  0  0  0  0
    8.1149   -0.4265   18.3716 H   0  0  0  0  0  0  0  0  0  0  0  0
    6.5566    0.6894   17.5609 N   0  0  0  0  0  0  0  0  0  0  0  0
    5.3941    1.2990   17.8314 C   0  0  0  0  0  0  0  0  0  0  0  0
    4.9119    1.7913   16.9879 H   0  0  0  0  0  0  0  0  0  0  0  0
    4.8111    1.3019   19.1056 C   0  0  0  0  0  0  0  0  0  0  0  0
    3.8803    1.8393   19.2563 H   0  0  0  0  0  0  0  0  0  0  0  0
    5.4503    0.6197   20.1585 C   0  0  0  0  0  0  0  0  0  0  0  0
    5.0447    0.6212   21.1744 H   0  0  0  0  0  0  0  0  0  0  0  0
    8.8384   -1.0950   22.7992 C   0  0  0  0  0  0  0  0  0  0  0  0
    9.7104   -0.7320   23.3574 H   0  0  0  0  0  0  0  0  0  0  0  0
    9.0905   -2.0828   22.4004 H   0  0  0  0  0  0  0  0  0  0  0  0
    8.0013   -1.1969   23.4983 H   0  0  0  0  0  0  0  0  0  0  0  0
    9.6941   -0.0706   20.6874 C   0  0  0  0  0  0  0  0  0  0  0  0
    9.5419    0.6927   19.9231 H   0  0  0  0  0  0  0  0  0  0  0  0
   10.6119    0.1845   21.2218 H   0  0  0  0  0  0  0  0  0  0  0  0
    9.8205   -1.0385   20.2027 H   0  0  0  0  0  0  0  0  0  0  0  0
    7.0565    1.3819   22.9455 N   0  0  0  0  0  0  0  0  0  0  0  0
    6.7181    2.5721   23.4538 C   0  0  0  0  0  0  0  0  0  0  0  0
    5.3556    2.7187   24.1933 C   0  0  0  0  0  0  0  0  0  0  0  0
    5.5550    3.1125   25.4694 F   0  0  0  0  0  0  0  0  0  0  0  0
    4.6215    1.6016   24.2229 F   0  0  0  0  0  0  0  0  0  0  0  0
    4.5943    3.6766   23.6199 F   0  0  0  0  0  0  0  0  0  0  0  0
    7.5780    3.6658   23.3473 C   0  0  0  0  0  0  0  0  0  0  0  0
    7.3370    4.6268   23.7788 H   0  0  0  0  0  0  0  0  0  0  0  0
  1  2  1  0
  2  3  2  0
  3  4  1  0
  4  5  1  0
  5  6  1  0
  6  7  1  0
  6  8  1  0
  8  9  2  0
  9 10  1  0
  9 11  1  0
 11 12  2  0
 12 13  1  0
 12 14  1  0
 14 15  1  0
 14 16  2  0
 16 17  1  0
  5 18  1  0
 18 19  1  0
 18 20  1  0
 18 21  1  0
  5 22  1  0
 22 23  1  0
 22 24  1  0
 22 25  1  0
  4 26  2  0
 26 27  1  0
 27 28  1  0
 28 29  1  0
 28 30  1  0
 28 31  1  0
 27 32  2  0
 32 33  1  0
 32  2  1  0
 16  8  1  0
M  END
>  <cnnaffinity>  (1) 
-5.12469

>  <filename>  (1) 
CC(C)(Nc1cccnc1)c1nccc(C(F)(F)F)n1

$$$$
