
     RDKit          3D

 37 39  0  0  0  0  0  0  0  0999 V2000
    7.3576   -1.0848   24.7497 C   0  0  0  0  0  0  0  0  0  0  0  0
    7.8048   -1.2517   23.2884 C   0  0  0  0  0  0  0  0  0  0  0  0
    7.0473   -0.2691   22.3449 C   0  0  0  0  0  0  0  0  0  0  0  0
    6.4645    0.7209   22.7373 O   0  0  0  0  0  0  0  0  0  0  0  0
    7.1588   -0.6071   21.0083 N   0  0  0  0  0  0  0  0  0  0  0  0
    6.5584    0.0340   19.8929 C   0  0  0  0  0  0  0  0  0  0  0  0
    5.3472    0.7231   20.0452 C   0  0  0  0  0  0  0  0  0  0  0  0
    4.7908    1.3463   18.9235 C   0  0  0  0  0  0  0  0  0  0  0  0
    5.4513    1.2713   17.6941 C   0  0  0  0  0  0  0  0  0  0  0  0
    6.6062    0.6047   17.5218 N   0  0  0  0  0  0  0  0  0  0  0  0
    7.1358    0.0024   18.5959 C   0  0  0  0  0  0  0  0  0  0  0  0
    8.0746   -0.5255   18.4249 H   0  0  0  0  0  0  0  0  0  0  0  0
    5.0400    1.7612   16.8154 H   0  0  0  0  0  0  0  0  0  0  0  0
    3.8646    1.9061   19.0049 H   0  0  0  0  0  0  0  0  0  0  0  0
    4.8777    0.7793   21.0237 H   0  0  0  0  0  0  0  0  0  0  0  0
    7.8403   -1.3260   20.8380 H   0  0  0  0  0  0  0  0  0  0  0  0
    9.3142   -1.0322   23.1669 C   0  0  0  0  0  0  0  0  0  0  0  0
    9.8574    0.2037   23.4138 C   0  0  0  0  0  0  0  0  0  0  0  0
   11.2609    0.4165   23.2650 C   0  0  0  0  0  0  0  0  0  0  0  0
   11.9094    1.6366   23.6090 C   0  0  0  0  0  0  0  0  0  0  0  0
   13.2493    1.8088   23.3450 C   0  0  0  0  0  0  0  0  0  0  0  0
   13.9944    0.7790   22.7098 C   0  0  0  0  0  0  0  0  0  0  0  0
   13.4010   -0.4363   22.4268 C   0  0  0  0  0  0  0  0  0  0  0  0
   12.0361   -0.6628   22.7339 C   0  0  0  0  0  0  0  0  0  0  0  0
   11.5067   -1.9207   22.5212 N   0  0  0  0  0  0  0  0  0  0  0  0
   10.2405   -2.0644   22.7832 C   0  0  0  0  0  0  0  0  0  0  0  0
    9.7856   -3.3123   22.6236 O   0  0  0  0  0  0  0  0  0  0  0  0
   10.6270   -3.7237   22.3441 H   0  0  0  0  0  0  0  0  0  0  0  0
   13.9414   -1.2415   21.9433 H   0  0  0  0  0  0  0  0  0  0  0  0
   15.0329    0.9715   22.4450 H   0  0  0  0  0  0  0  0  0  0  0  0
   13.7280    2.7595   23.5613 H   0  0  0  0  0  0  0  0  0  0  0  0
   11.3262    2.4287   24.0765 H   0  0  0  0  0  0  0  0  0  0  0  0
    9.2035    1.0464   23.6545 H   0  0  0  0  0  0  0  0  0  0  0  0
    7.5799   -2.2730   22.9576 H   0  0  0  0  0  0  0  0  0  0  0  0
    6.2773   -1.2179   24.8522 H   0  0  0  0  0  0  0  0  0  0  0  0
    7.8577   -1.8136   25.3940 H   0  0  0  0  0  0  0  0  0  0  0  0
    7.5982   -0.0850   25.1264 H   0  0  0  0  0  0  0  0  0  0  0  0
  1  2  1  0
  2  3  1  0
  3  4  2  0
  3  5  1  0
  5  6  1  0
  6  7  2  0
  7  8  1  0
  8  9  2  0
  9 10  1  0
 10 11  2  0
 11 12  1  0
  9 13  1  0
  8 14  1  0
  7 15  1  0
  5 16  1  0
  2 17  1  0
 17 18  2  0
 18 19  1  0
 19 20  2  0
 20 21  1  0
 21 22  2  0
 22 23  1  0
 23 24  2  0
 24 25  1  0
 25 26  2  0
 26 27  1  0
 27 28  1  0
 23 29  1  0
 22 30  1  0
 21 31  1  0
 20 32  1  0
 18 33  1  0
  2 34  1  0
  1 35  1  0
  1 36  1  0
  1 37  1  0
 11  6  1  0
 26 17  1  0
 24 19  1  0
M  END
>  <cnnaffinity>  (1) 
-5.61648

>  <filename>  (1) 
CC(C(=O)Nc1cccnc1)c1cc2ccccc2nc1O

$$$$
