
     RDKit          3D

 34 36  0  0  0  0  0  0  0  0999 V2000
    7.2463   -2.0383   21.1173 C   0  0  0  0  0  0  0  0  0  0  0  0
    7.2737   -0.4999   21.1992 C   0  0  0  0  0  0  0  0  0  0  0  0
    8.7421   -0.0387   21.3670 C   0  0  0  0  0  0  0  0  0  0  0  0
    9.6728   -0.6034   20.8202 O   0  0  0  0  0  0  0  0  0  0  0  0
    8.9114    1.0506   22.1943 N   0  0  0  0  0  0  0  0  0  0  0  0
   10.1451    1.6263   22.5447 C   0  0  0  0  0  0  0  0  0  0  0  0
   10.2415    3.0146   22.6702 C   0  0  0  0  0  0  0  0  0  0  0  0
    8.8396    4.0362   22.5426 Cl  0  0  0  0  0  0  0  0  0  0  0  0
   11.5052    3.5977   22.8932 C   0  0  0  0  0  0  0  0  0  0  0  0
   12.6264    2.7708   23.1222 C   0  0  0  0  0  0  0  0  0  0  0  0
   12.5312    1.3621   23.1004 C   0  0  0  0  0  0  0  0  0  0  0  0
   11.2964    0.8154   22.7878 C   0  0  0  0  0  0  0  0  0  0  0  0
   11.1746   -0.2532   22.6750 H   0  0  0  0  0  0  0  0  0  0  0  0
   13.4005    0.7335   23.2625 H   0  0  0  0  0  0  0  0  0  0  0  0
   13.6808    3.6182   23.2470 N   0  0  0  0  0  0  0  0  0  0  0  0
   13.3307    4.9159   23.0808 N   0  0  0  0  0  0  0  0  0  0  0  0
   12.0312    4.9179   22.8662 C   0  0  0  0  0  0  0  0  0  0  0  0
   11.4777    5.8268   22.6742 H   0  0  0  0  0  0  0  0  0  0  0  0
   14.6489    3.3652   23.3916 H   0  0  0  0  0  0  0  0  0  0  0  0
    8.1274    1.6842   22.2299 H   0  0  0  0  0  0  0  0  0  0  0  0
    6.5833    0.1839   20.0060 C   0  0  0  0  0  0  0  0  0  0  0  0
    5.3446    0.8313   20.1535 C   0  0  0  0  0  0  0  0  0  0  0  0
    4.7320    1.3973   19.0304 C   0  0  0  0  0  0  0  0  0  0  0  0
    5.3841    1.3056   17.7976 C   0  0  0  0  0  0  0  0  0  0  0  0
    6.5533    0.6732   17.6195 N   0  0  0  0  0  0  0  0  0  0  0  0
    7.1228    0.1278   18.7039 C   0  0  0  0  0  0  0  0  0  0  0  0
    8.0705   -0.3889   18.5431 H   0  0  0  0  0  0  0  0  0  0  0  0
    4.9482    1.7503   16.9071 H   0  0  0  0  0  0  0  0  0  0  0  0
    3.7790    1.9134   19.0971 H   0  0  0  0  0  0  0  0  0  0  0  0
    4.8645    0.8828   21.1326 H   0  0  0  0  0  0  0  0  0  0  0  0
    6.7460   -0.1968   22.1153 H   0  0  0  0  0  0  0  0  0  0  0  0
    7.4802   -2.4845   22.0928 H   0  0  0  0  0  0  0  0  0  0  0  0
    8.0112   -2.3639   20.4151 H   0  0  0  0  0  0  0  0  0  0  0  0
    6.2688   -2.3961   20.7879 H   0  0  0  0  0  0  0  0  0  0  0  0
  1  2  1  0
  2  3  1  0
  3  4  2  0
  3  5  1  0
  5  6  1  0
  6  7  2  0
  7  8  1  0
  7  9  1  0
  9 10  2  0
 10 11  1  0
 11 12  2  0
 12 13  1  0
 11 14  1  0
 10 15  1  0
 15 16  1  0
 16 17  2  0
 17 18  1  0
 15 19  1  0
  5 20  1  0
  2 21  1  0
 21 22  2  0
 22 23  1  0
 23 24  2  0
 24 25  1  0
 25 26  2  0
 26 27  1  0
 24 28  1  0
 23 29  1  0
 22 30  1  0
  2 31  1  0
  1 32  1  0
  1 33  1  0
  1 34  1  0
 12  6  1  0
 26 21  1  0
 17  9  1  0
M  END
>  <cnnaffinity>  (1) 
-5.36138

>  <filename>  (1) 
CC(C(=O)Nc1ccc2[nH]ncc2c1Cl)c1cccnc1

$$$$
