
     RDKit          3D

 46 49  0  0  0  0  0  0  0  0999 V2000
   11.0581   -0.5401   23.6638 C   0  0  0  0  0  0  0  0  0  0  0  0
   11.1819   -1.2602   22.3112 C   0  0  0  0  0  0  0  0  0  0  0  0
   12.5131   -1.9635   21.9893 C   0  0  0  0  0  0  0  0  0  0  0  0
   13.6565   -1.1856   22.3064 O   0  0  0  0  0  0  0  0  0  0  0  0
   14.3723   -1.8060   22.5127 H   0  0  0  0  0  0  0  0  0  0  0  0
   12.5091   -2.2122   20.9050 H   0  0  0  0  0  0  0  0  0  0  0  0
   12.5319   -2.9074   22.5535 H   0  0  0  0  0  0  0  0  0  0  0  0
   10.0676   -2.3143   22.1115 C   0  0  0  0  0  0  0  0  0  0  0  0
    8.7473   -1.7361   21.9692 N   0  0  0  0  0  0  0  0  0  0  0  0
    8.4209   -1.2802   20.7413 N   0  0  0  0  0  0  0  0  0  0  0  0
    7.2986   -0.6262   20.9581 C   0  0  0  0  0  0  0  0  0  0  0  0
    6.5858    0.0460   19.8872 C   0  0  0  0  0  0  0  0  0  0  0  0
    5.3680    0.6981   20.1096 C   0  0  0  0  0  0  0  0  0  0  0  0
    4.7722    1.3411   19.0286 C   0  0  0  0  0  0  0  0  0  0  0  0
    5.4136    1.3084   17.7826 C   0  0  0  0  0  0  0  0  0  0  0  0
    6.5742    0.6696   17.5625 N   0  0  0  0  0  0  0  0  0  0  0  0
    7.1416    0.0533   18.6020 C   0  0  0  0  0  0  0  0  0  0  0  0
    8.0821   -0.4638   18.4166 H   0  0  0  0  0  0  0  0  0  0  0  0
    4.9794    1.8116   16.9211 H   0  0  0  0  0  0  0  0  0  0  0  0
    3.8392    1.8810   19.1417 H   0  0  0  0  0  0  0  0  0  0  0  0
    4.9309    0.6952   21.1109 H   0  0  0  0  0  0  0  0  0  0  0  0
    6.8867   -0.6273   22.2480 N   0  0  0  0  0  0  0  0  0  0  0  0
    7.8051   -1.3507   22.8608 C   0  0  0  0  0  0  0  0  0  0  0  0
    7.7786   -1.7193   24.3179 C   0  0  0  0  0  0  0  0  0  0  0  0
    6.5708   -2.5388   24.6846 C   0  0  0  0  0  0  0  0  0  0  0  0
    5.4248   -2.0996   25.2467 C   0  0  0  0  0  0  0  0  0  0  0  0
    4.4695   -3.0715   25.3328 O   0  0  0  0  0  0  0  0  0  0  0  0
    5.0098   -4.1842   24.7778 C   0  0  0  0  0  0  0  0  0  0  0  0
    4.3983   -5.4325   24.6007 C   0  0  0  0  0  0  0  0  0  0  0  0
    3.1493   -5.6801   25.0151 F   0  0  0  0  0  0  0  0  0  0  0  0
    5.1455   -6.4077   23.9398 C   0  0  0  0  0  0  0  0  0  0  0  0
    4.6079   -7.6200   23.7558 F   0  0  0  0  0  0  0  0  0  0  0  0
    6.4472   -6.1537   23.4586 C   0  0  0  0  0  0  0  0  0  0  0  0
    7.0498   -4.9239   23.6813 C   0  0  0  0  0  0  0  0  0  0  0  0
    6.3213   -3.9214   24.3432 C   0  0  0  0  0  0  0  0  0  0  0  0
    8.0703   -4.7345   23.3594 H   0  0  0  0  0  0  0  0  0  0  0  0
    6.9561   -6.9429   22.9149 H   0  0  0  0  0  0  0  0  0  0  0  0
    5.1182   -1.1268   25.6067 H   0  0  0  0  0  0  0  0  0  0  0  0
    7.7748   -0.7868   24.8926 H   0  0  0  0  0  0  0  0  0  0  0  0
    8.6972   -2.2543   24.5838 H   0  0  0  0  0  0  0  0  0  0  0  0
   10.2185   -2.8091   21.1539 H   0  0  0  0  0  0  0  0  0  0  0  0
   10.0557   -3.0759   22.9055 H   0  0  0  0  0  0  0  0  0  0  0  0
   11.0453   -0.4896   21.5370 H   0  0  0  0  0  0  0  0  0  0  0  0
   10.2035    0.1474   23.6274 H   0  0  0  0  0  0  0  0  0  0  0  0
   11.9589    0.0470   23.8688 H   0  0  0  0  0  0  0  0  0  0  0  0
   10.8821   -1.2097   24.5174 H   0  0  0  0  0  0  0  0  0  0  0  0
  1  2  1  0
  2  3  1  0
  3  4  1  0
  4  5  1  0
  3  6  1  0
  3  7  1  0
  2  8  1  0
  8  9  1  0
  9 10  1  0
 10 11  2  0
 11 12  1  0
 12 13  2  0
 13 14  1  0
 14 15  2  0
 15 16  1  0
 16 17  2  0
 17 18  1  0
 15 19  1  0
 14 20  1  0
 13 21  1  0
 11 22  1  0
 22 23  2  0
 23 24  1  0
 24 25  1  0
 25 26  2  0
 26 27  1  0
 27 28  1  0
 28 29  2  0
 29 30  1  0
 29 31  1  0
 31 32  1  0
 31 33  2  0
 33 34  1  0
 34 35  2  0
 34 36  1  0
 33 37  1  0
 26 38  1  0
 24 39  1  0
 24 40  1  0
  8 41  1  0
  8 42  1  0
  2 43  1  0
  1 44  1  0
  1 45  1  0
  1 46  1  0
 23  9  1  0
 35 25  1  0
 17 12  1  0
 35 28  1  0
M  END
>  <cnnaffinity>  (1) 
-6.79792

>  <filename>  (1) 
CC(CO)Cn1nc(-c2cccnc2)nc1Cc1coc2c(F)c(F)ccc12

$$$$
