
     RDKit          3D

 40 42  0  0  0  0  0  0  0  0999 V2000
   10.9054    2.3605   24.7495 C   0  0  0  0  0  0  0  0  0  0  0  0
   10.4226    1.3767   23.6806 C   0  0  0  0  0  0  0  0  0  0  0  0
    9.3363    2.0188   22.7754 C   0  0  0  0  0  0  0  0  0  0  0  0
    8.9277    1.0833   21.6626 C   0  0  0  0  0  0  0  0  0  0  0  0
    9.4942    1.0186   20.5940 O   0  0  0  0  0  0  0  0  0  0  0  0
    7.8967    0.2865   22.0124 O   0  0  0  0  0  0  0  0  0  0  0  0
    7.4292   -0.6502   21.0171 C   0  0  0  0  0  0  0  0  0  0  0  0
    6.6734    0.0322   19.9058 C   0  0  0  0  0  0  0  0  0  0  0  0
    5.4462    0.6633   20.1485 C   0  0  0  0  0  0  0  0  0  0  0  0
    4.8023    1.3098   19.0940 C   0  0  0  0  0  0  0  0  0  0  0  0
    5.3966    1.2908   17.8282 C   0  0  0  0  0  0  0  0  0  0  0  0
    6.5564    0.6718   17.5709 N   0  0  0  0  0  0  0  0  0  0  0  0
    7.1748    0.0742   18.5997 C   0  0  0  0  0  0  0  0  0  0  0  0
    8.1303   -0.4006   18.3659 H   0  0  0  0  0  0  0  0  0  0  0  0
    4.9259    1.7951   16.9836 H   0  0  0  0  0  0  0  0  0  0  0  0
    3.8696    1.8419   19.2406 H   0  0  0  0  0  0  0  0  0  0  0  0
    5.0167    0.6431   21.1514 H   0  0  0  0  0  0  0  0  0  0  0  0
    6.7853   -1.3026   21.6103 H   0  0  0  0  0  0  0  0  0  0  0  0
    8.2770   -1.2268   20.6290 H   0  0  0  0  0  0  0  0  0  0  0  0
    9.7473    2.9182   22.3099 H   0  0  0  0  0  0  0  0  0  0  0  0
    8.4613    2.2889   23.3729 H   0  0  0  0  0  0  0  0  0  0  0  0
    9.9427    0.0921   24.3010 C   0  0  0  0  0  0  0  0  0  0  0  0
   10.4538   -1.1475   24.0726 C   0  0  0  0  0  0  0  0  0  0  0  0
    9.7504   -2.0951   24.7814 N   0  0  0  0  0  0  0  0  0  0  0  0
    8.7387   -1.4741   25.4741 C   0  0  0  0  0  0  0  0  0  0  0  0
    7.7353   -2.0129   26.3004 C   0  0  0  0  0  0  0  0  0  0  0  0
    6.8158   -1.1380   26.8633 C   0  0  0  0  0  0  0  0  0  0  0  0
    6.8867    0.2563   26.6101 C   0  0  0  0  0  0  0  0  0  0  0  0
    7.8786    0.7789   25.7911 C   0  0  0  0  0  0  0  0  0  0  0  0
    8.8270   -0.0889   25.2019 C   0  0  0  0  0  0  0  0  0  0  0  0
    7.9274    1.8476   25.5965 H   0  0  0  0  0  0  0  0  0  0  0  0
    6.1590    0.9241   27.0570 H   0  0  0  0  0  0  0  0  0  0  0  0
    6.0259   -1.5174   27.5063 H   0  0  0  0  0  0  0  0  0  0  0  0
    7.6803   -3.0805   26.4885 H   0  0  0  0  0  0  0  0  0  0  0  0
    9.9223   -3.0859   24.7884 H   0  0  0  0  0  0  0  0  0  0  0  0
   11.2566   -1.4138   23.3960 H   0  0  0  0  0  0  0  0  0  0  0  0
   11.2804    1.1349   23.0342 H   0  0  0  0  0  0  0  0  0  0  0  0
   11.6506    1.8854   25.3941 H   0  0  0  0  0  0  0  0  0  0  0  0
   10.0705    2.6811   25.3844 H   0  0  0  0  0  0  0  0  0  0  0  0
   11.3632    3.2514   24.3039 H   0  0  0  0  0  0  0  0  0  0  0  0
  1  2  1  0
  2  3  1  0
  3  4  1  0
  4  5  2  0
  4  6  1  0
  6  7  1  0
  7  8  1  0
  8  9  2  0
  9 10  1  0
 10 11  2  0
 11 12  1  0
 12 13  2  0
 13 14  1  0
 11 15  1  0
 10 16  1  0
  9 17  1  0
  7 18  1  0
  7 19  1  0
  3 20  1  0
  3 21  1  0
  2 22  1  0
 22 23  2  0
 23 24  1  0
 24 25  1  0
 25 26  2  0
 26 27  1  0
 27 28  2  0
 28 29  1  0
 29 30  2  0
 29 31  1  0
 28 32  1  0
 27 33  1  0
 26 34  1  0
 24 35  1  0
 23 36  1  0
  2 37  1  0
  1 38  1  0
  1 39  1  0
  1 40  1  0
 13  8  1  0
 30 22  1  0
 30 25  1  0
M  END
>  <cnnaffinity>  (1) 
-5.34202

>  <filename>  (1) 
CC(CC(=O)OCc1cccnc1)c1c[nH]c2ccccc12

$$$$
