
     RDKit          3D

 52 56  0  0  0  0  0  0  0  0999 V2000
    8.8459    1.9110   25.6138 C   0  0  0  0  0  0  0  0  0  0  0  0
    8.6656    2.7161   24.3320 C   0  0  0  0  0  0  0  0  0  0  0  0
    7.4485    3.6281   24.3798 C   0  0  0  0  0  0  0  0  0  0  0  0
    7.3393    4.7484   23.3858 C   0  0  0  0  0  0  0  0  0  0  0  0
    7.5861    5.0515   24.8402 C   0  0  0  0  0  0  0  0  0  0  0  0
    6.7666    5.4823   25.4095 H   0  0  0  0  0  0  0  0  0  0  0  0
    8.5713    5.4104   25.1379 H   0  0  0  0  0  0  0  0  0  0  0  0
    6.3659    4.9780   22.9581 H   0  0  0  0  0  0  0  0  0  0  0  0
    8.1705    4.8752   22.6885 H   0  0  0  0  0  0  0  0  0  0  0  0
    6.5285    3.1080   24.6460 H   0  0  0  0  0  0  0  0  0  0  0  0
    8.6328    1.8532   23.1338 N   0  0  0  0  0  0  0  0  0  0  0  0
    7.6251    0.9622   22.8994 N   0  0  0  0  0  0  0  0  0  0  0  0
    7.9602    0.4446   21.7348 C   0  0  0  0  0  0  0  0  0  0  0  0
    7.2146   -0.6263   20.9961 C   0  0  0  0  0  0  0  0  0  0  0  0
    6.4940   -0.0487   19.7906 C   0  0  0  0  0  0  0  0  0  0  0  0
    5.3133    0.6753   19.9855 C   0  0  0  0  0  0  0  0  0  0  0  0
    4.7501    1.3534   18.9050 C   0  0  0  0  0  0  0  0  0  0  0  0
    5.3878    1.2831   17.6629 C   0  0  0  0  0  0  0  0  0  0  0  0
    6.5056    0.5742   17.4444 N   0  0  0  0  0  0  0  0  0  0  0  0
    7.0360   -0.0700   18.4928 C   0  0  0  0  0  0  0  0  0  0  0  0
    7.9566   -0.6228   18.2965 H   0  0  0  0  0  0  0  0  0  0  0  0
    4.9863    1.8221   16.8068 H   0  0  0  0  0  0  0  0  0  0  0  0
    3.8525    1.9498   19.0188 H   0  0  0  0  0  0  0  0  0  0  0  0
    4.8598    0.7181   20.9777 H   0  0  0  0  0  0  0  0  0  0  0  0
    6.5241   -1.1150   21.6910 H   0  0  0  0  0  0  0  0  0  0  0  0
    7.9580   -1.3663   20.6817 H   0  0  0  0  0  0  0  0  0  0  0  0
    9.1075    0.9321   21.1990 N   0  0  0  0  0  0  0  0  0  0  0  0
    9.5450    1.7606   22.1315 C   0  0  0  0  0  0  0  0  0  0  0  0
   10.9202    2.2835   22.2100 C   0  0  0  0  0  0  0  0  0  0  0  0
   11.1666    3.6192   22.2010 C   0  0  0  0  0  0  0  0  0  0  0  0
   12.4399    4.1374   22.1505 N   0  0  0  0  0  0  0  0  0  0  0  0
   12.6340    5.5627   21.8444 C   0  0  0  0  0  0  0  0  0  0  0  0
   13.1601    5.7046   20.8948 H   0  0  0  0  0  0  0  0  0  0  0  0
   13.2144    6.0620   22.6251 H   0  0  0  0  0  0  0  0  0  0  0  0
   11.6427    6.0151   21.7672 H   0  0  0  0  0  0  0  0  0  0  0  0
   13.5606    3.3454   22.4339 C   0  0  0  0  0  0  0  0  0  0  0  0
   14.6508    3.8819   22.5690 O   0  0  0  0  0  0  0  0  0  0  0  0
   13.3155    1.8683   22.4841 C   0  0  0  0  0  0  0  0  0  0  0  0
   14.4090    0.9958   22.5889 C   0  0  0  0  0  0  0  0  0  0  0  0
   14.2299   -0.3720   22.5459 C   0  0  0  0  0  0  0  0  0  0  0  0
   12.9472   -0.9165   22.3516 C   0  0  0  0  0  0  0  0  0  0  0  0
   11.8603   -0.0789   22.2203 C   0  0  0  0  0  0  0  0  0  0  0  0
   12.0198    1.3391   22.2894 C   0  0  0  0  0  0  0  0  0  0  0  0
   10.8641   -0.4700   22.0412 H   0  0  0  0  0  0  0  0  0  0  0  0
   12.8136   -1.9969   22.3302 H   0  0  0  0  0  0  0  0  0  0  0  0
   15.0661   -1.0467   22.6549 H   0  0  0  0  0  0  0  0  0  0  0  0
   15.3954    1.4388   22.6432 H   0  0  0  0  0  0  0  0  0  0  0  0
   10.3804    4.3784   22.2141 H   0  0  0  0  0  0  0  0  0  0  0  0
    9.5437    3.3560   24.2134 H   0  0  0  0  0  0  0  0  0  0  0  0
    8.8817    2.5881   26.4748 H   0  0  0  0  0  0  0  0  0  0  0  0
    9.7819    1.3443   25.5752 H   0  0  0  0  0  0  0  0  0  0  0  0
    8.0100    1.2165   25.7462 H   0  0  0  0  0  0  0  0  0  0  0  0
  1  2  1  0
  2  3  1  0
  3  4  1  0
  4  5  1  0
  5  6  1  0
  5  7  1  0
  4  8  1  0
  4  9  1  0
  3 10  1  0
  2 11  1  0
 11 12  1  0
 12 13  2  0
 13 14  1  0
 14 15  1  0
 15 16  2  0
 16 17  1  0
 17 18  2  0
 18 19  1  0
 19 20  2  0
 20 21  1  0
 18 22  1  0
 17 23  1  0
 16 24  1  0
 14 25  1  0
 14 26  1  0
 13 27  1  0
 27 28  2  0
 28 29  1  0
 29 30  2  0
 30 31  1  0
 31 32  1  0
 32 33  1  0
 32 34  1  0
 32 35  1  0
 31 36  1  0
 36 37  2  0
 36 38  1  0
 38 39  2  0
 39 40  1  0
 40 41  2  0
 41 42  1  0
 42 43  2  0
 42 44  1  0
 41 45  1  0
 40 46  1  0
 39 47  1  0
 30 48  1  0
  2 49  1  0
  1 50  1  0
  1 51  1  0
  1 52  1  0
  5  3  1  0
 28 11  1  0
 43 29  1  0
 20 15  1  0
 43 38  1  0
M  END
>  <cnnaffinity>  (1) 
-6.91106

>  <filename>  (1) 
CC(C1CC1)n1nc(Cc2cccnc2)nc1-c1cn(C)c(=O)c2ccccc12

$$$$
