
     RDKit          3D

 38 40  0  0  0  0  0  0  0  0999 V2000
    8.7416   -0.0094   21.3457 C   0  0  0  0  0  0  0  0  0  0  0  0
    7.3436   -0.5994   21.1128 C   0  0  0  0  0  0  0  0  0  0  0  0
    7.4917   -2.0990   20.8016 C   0  0  0  0  0  0  0  0  0  0  0  0
    7.8634   -2.9488   21.9482 C   0  0  0  0  0  0  0  0  0  0  0  0
    7.1188   -3.3718   22.9201 N   0  0  0  0  0  0  0  0  0  0  0  0
    8.0433   -4.0178   23.7173 C   0  0  0  0  0  0  0  0  0  0  0  0
    7.6948   -4.6112   25.0157 C   0  0  0  0  0  0  0  0  0  0  0  0
    8.6693   -5.2582   25.7953 C   0  0  0  0  0  0  0  0  0  0  0  0
    8.3062   -5.7922   27.0277 C   0  0  0  0  0  0  0  0  0  0  0  0
    6.9863   -5.7015   27.4808 C   0  0  0  0  0  0  0  0  0  0  0  0
    6.0135   -5.0487   26.7149 C   0  0  0  0  0  0  0  0  0  0  0  0
    4.6020   -4.9449   27.2241 C   0  0  0  0  0  0  0  0  0  0  0  0
    3.7282   -5.5274   26.3510 F   0  0  0  0  0  0  0  0  0  0  0  0
    4.2253   -3.6382   27.3480 F   0  0  0  0  0  0  0  0  0  0  0  0
    4.4844   -5.4281   28.2002 H   0  0  0  0  0  0  0  0  0  0  0  0
    6.3740   -4.4961   25.4817 C   0  0  0  0  0  0  0  0  0  0  0  0
    5.6426   -3.9699   24.8718 H   0  0  0  0  0  0  0  0  0  0  0  0
    6.7310   -6.1476   28.4386 H   0  0  0  0  0  0  0  0  0  0  0  0
    9.0528   -6.2656   27.6458 H   0  0  0  0  0  0  0  0  0  0  0  0
    9.6972   -5.3362   25.4394 H   0  0  0  0  0  0  0  0  0  0  0  0
    9.2595   -4.0188   23.2355 N   0  0  0  0  0  0  0  0  0  0  0  0
    9.1389   -3.3119   22.0634 O   0  0  0  0  0  0  0  0  0  0  0  0
    6.6031   -2.5175   20.3211 H   0  0  0  0  0  0  0  0  0  0  0  0
    8.3123   -2.1265   20.1002 H   0  0  0  0  0  0  0  0  0  0  0  0
    6.6350    0.0527   19.9405 C   0  0  0  0  0  0  0  0  0  0  0  0
    5.4021    0.6828   20.1382 C   0  0  0  0  0  0  0  0  0  0  0  0
    4.7709    1.3251   19.0718 C   0  0  0  0  0  0  0  0  0  0  0  0
    5.3892    1.2962   17.8181 C   0  0  0  0  0  0  0  0  0  0  0  0
    6.5482    0.6648   17.5892 N   0  0  0  0  0  0  0  0  0  0  0  0
    7.1494    0.0639   18.6278 C   0  0  0  0  0  0  0  0  0  0  0  0
    8.0961   -0.4183   18.3742 H   0  0  0  0  0  0  0  0  0  0  0  0
    4.9446    1.8043   16.9634 H   0  0  0  0  0  0  0  0  0  0  0  0
    3.8396    1.8640   19.2093 H   0  0  0  0  0  0  0  0  0  0  0  0
    4.9647    0.6732   21.1384 H   0  0  0  0  0  0  0  0  0  0  0  0
    6.7267   -0.4448   22.0103 H   0  0  0  0  0  0  0  0  0  0  0  0
    8.7052    1.0745   21.4842 H   0  0  0  0  0  0  0  0  0  0  0  0
    9.2521   -0.4704   22.2001 H   0  0  0  0  0  0  0  0  0  0  0  0
    9.3560   -0.2205   20.4619 H   0  0  0  0  0  0  0  0  0  0  0  0
  1  2  1  0
  2  3  1  0
  3  4  1  0
  4  5  2  0
  5  6  1  0
  6  7  1  0
  7  8  2  0
  8  9  1  0
  9 10  2  0
 10 11  1  0
 11 12  1  0
 12 13  1  0
 12 14  1  0
 12 15  1  0
 11 16  2  0
 16 17  1  0
 10 18  1  0
  9 19  1  0
  8 20  1  0
  6 21  2  0
 21 22  1  0
  3 23  1  0
  3 24  1  0
  2 25  1  0
 25 26  2  0
 26 27  1  0
 27 28  2  0
 28 29  1  0
 29 30  2  0
 30 31  1  0
 28 32  1  0
 27 33  1  0
 26 34  1  0
  2 35  1  0
  1 36  1  0
  1 37  1  0
  1 38  1  0
 22  4  1  0
 30 25  1  0
 16  7  1  0
M  END
>  <cnnaffinity>  (1) 
-5.43305

>  <filename>  (1) 
CC(Cc1nc(-c2cccc(C(F)F)c2)no1)c1cccnc1

$$$$
