
     RDKit          3D

 32 33  0  0  0  0  0  0  0  0999 V2000
    4.9652    1.9320   16.8194 H   0  0  0  0  0  0  0  0  0  0  0  0
    5.4158    1.3796   17.6428 C   0  0  0  0  0  0  0  0  0  0  0  0
    6.5553    0.7343   17.3560 N   0  0  0  0  0  0  0  0  0  0  0  0
    7.1462    0.0502   18.3408 C   0  0  0  0  0  0  0  0  0  0  0  0
    8.0775   -0.4546   18.0905 H   0  0  0  0  0  0  0  0  0  0  0  0
    6.6273   -0.0317   19.6384 C   0  0  0  0  0  0  0  0  0  0  0  0
    7.3876   -0.7965   20.6302 C   0  0  0  0  0  0  0  0  0  0  0  0
    6.9644   -0.9565   21.9092 N   0  0  0  0  0  0  0  0  0  0  0  0
    7.9341   -1.6395   22.4856 C   0  0  0  0  0  0  0  0  0  0  0  0
    7.9735   -2.0075   23.9323 C   0  0  0  0  0  0  0  0  0  0  0  0
    6.9178   -2.0605   24.2160 H   0  0  0  0  0  0  0  0  0  0  0  0
    8.3920   -3.0136   24.0588 H   0  0  0  0  0  0  0  0  0  0  0  0
    8.7264   -0.9982   24.8327 C   0  0  0  0  0  0  0  0  0  0  0  0
    9.7931   -1.0174   24.5638 H   0  0  0  0  0  0  0  0  0  0  0  0
    8.3770    0.0201   24.6018 H   0  0  0  0  0  0  0  0  0  0  0  0
    8.5908   -1.2342   26.3511 C   0  0  0  0  0  0  0  0  0  0  0  0
    8.9643   -2.2454   26.5741 H   0  0  0  0  0  0  0  0  0  0  0  0
    9.4776   -0.2527   27.1355 C   0  0  0  0  0  0  0  0  0  0  0  0
    9.4568   -0.4672   28.2115 H   0  0  0  0  0  0  0  0  0  0  0  0
   10.5262   -0.2842   26.8072 H   0  0  0  0  0  0  0  0  0  0  0  0
    9.1324    0.7814   27.0059 H   0  0  0  0  0  0  0  0  0  0  0  0
    7.1300   -1.1646   26.8248 C   0  0  0  0  0  0  0  0  0  0  0  0
    6.7126   -0.1558   26.6943 H   0  0  0  0  0  0  0  0  0  0  0  0
    6.4890   -1.8597   26.2680 H   0  0  0  0  0  0  0  0  0  0  0  0
    7.0490   -1.4354   27.8832 H   0  0  0  0  0  0  0  0  0  0  0  0
    8.8870   -1.8964   21.5731 N   0  0  0  0  0  0  0  0  0  0  0  0
    9.7821   -2.3512   21.7034 H   0  0  0  0  0  0  0  0  0  0  0  0
    8.5598   -1.3572   20.3750 N   0  0  0  0  0  0  0  0  0  0  0  0
    5.4302    0.6454   19.9303 C   0  0  0  0  0  0  0  0  0  0  0  0
    5.0080    0.6218   20.9362 H   0  0  0  0  0  0  0  0  0  0  0  0
    4.8167    1.3633   18.9046 C   0  0  0  0  0  0  0  0  0  0  0  0
    3.8987    1.9204   19.0673 H   0  0  0  0  0  0  0  0  0  0  0  0
  1  2  1  0
  2  3  2  0
  3  4  1  0
  4  5  1  0
  4  6  2  0
  6  7  1  0
  7  8  1  0
  8  9  2  0
  9 10  1  0
 10 11  1  0
 10 12  1  0
 10 13  1  0
 13 14  1  0
 13 15  1  0
 13 16  1  0
 16 17  1  0
 16 18  1  0
 18 19  1  0
 18 20  1  0
 18 21  1  0
 16 22  1  0
 22 23  1  0
 22 24  1  0
 22 25  1  0
  9 26  1  0
 26 27  1  0
 26 28  1  0
  6 29  1  0
 29 30  1  0
 29 31  2  0
 31 32  1  0
 31  2  1  0
 28  7  2  0
M  END
>  <cnnaffinity>  (1) 
-4.82942

>  <filename>  (1) 
CC(C)CCc1nc(-c2cccnc2)n[nH]1

$$$$
