
     RDKit          3D

 37 38  0  0  0  0  0  0  0  0999 V2000
    8.7288    3.6056   23.0387 C   0  0  0  0  0  0  0  0  0  0  0  0
    8.2393    2.1562   23.2187 C   0  0  0  0  0  0  0  0  0  0  0  0
    8.3735    1.2807   21.9495 C   0  0  0  0  0  0  0  0  0  0  0  0
    9.0775    1.5289   20.9859 O   0  0  0  0  0  0  0  0  0  0  0  0
    7.6470    0.1275   22.0327 N   0  0  0  0  0  0  0  0  0  0  0  0
    7.4051   -0.7359   20.8925 C   0  0  1  0  0  0  0  0  0  0  0  0
    6.7079   -2.0034   21.3741 C   0  0  0  0  0  0  0  0  0  0  0  0
    5.7030   -1.7892   21.7519 H   0  0  0  0  0  0  0  0  0  0  0  0
    7.2838   -2.4634   22.1841 H   0  0  0  0  0  0  0  0  0  0  0  0
    6.6110   -2.7352   20.5669 H   0  0  0  0  0  0  0  0  0  0  0  0
    6.6433    0.0152   19.8163 C   0  0  0  0  0  0  0  0  0  0  0  0
    5.4371    0.6866   20.0570 C   0  0  0  0  0  0  0  0  0  0  0  0
    4.8103    1.3344   18.9921 C   0  0  0  0  0  0  0  0  0  0  0  0
    5.4223    1.3039   17.7329 C   0  0  0  0  0  0  0  0  0  0  0  0
    6.5859    0.6859   17.4868 N   0  0  0  0  0  0  0  0  0  0  0  0
    7.1733    0.0765   18.5253 C   0  0  0  0  0  0  0  0  0  0  0  0
    8.1351   -0.3989   18.3217 H   0  0  0  0  0  0  0  0  0  0  0  0
    4.9567    1.7930   16.8815 H   0  0  0  0  0  0  0  0  0  0  0  0
    3.8805    1.8740   19.1310 H   0  0  0  0  0  0  0  0  0  0  0  0
    5.0228    0.7307   21.0681 H   0  0  0  0  0  0  0  0  0  0  0  0
    8.3740   -1.0183   20.4622 H   0  0  0  0  0  0  0  0  0  0  0  0
    7.1526   -0.0508   22.8890 H   0  0  0  0  0  0  0  0  0  0  0  0
    8.9482    1.4540   24.3737 C   0  0  0  0  0  0  0  0  0  0  0  0
   10.3054    1.1196   24.2185 C   0  0  0  0  0  0  0  0  0  0  0  0
   11.0427    0.5598   25.2629 C   0  0  0  0  0  0  0  0  0  0  0  0
   10.3977    0.2469   26.4618 C   0  0  0  0  0  0  0  0  0  0  0  0
    9.0359    0.5062   26.6186 C   0  0  0  0  0  0  0  0  0  0  0  0
    8.3190    1.1136   25.5863 C   0  0  0  0  0  0  0  0  0  0  0  0
    6.6145    1.3968   25.8697 Cl  0  0  0  0  0  0  0  0  0  0  0  0
    8.5434    0.2515   27.5497 H   0  0  0  0  0  0  0  0  0  0  0  0
   10.9229   -0.1903   27.3021 H   0  0  0  0  0  0  0  0  0  0  0  0
   12.1037    0.3684   25.1328 H   0  0  0  0  0  0  0  0  0  0  0  0
   10.7540    1.2959   23.2413 H   0  0  0  0  0  0  0  0  0  0  0  0
    7.1677    2.1948   23.4453 H   0  0  0  0  0  0  0  0  0  0  0  0
    8.6631    4.1367   23.9949 H   0  0  0  0  0  0  0  0  0  0  0  0
    8.1121    4.1459   22.3110 H   0  0  0  0  0  0  0  0  0  0  0  0
    9.7735    3.6412   22.7075 H   0  0  0  0  0  0  0  0  0  0  0  0
  1  2  1  0
  2  3  1  0
  3  4  2  0
  3  5  1  0
  5  6  1  0
  6  7  1  0
  7  8  1  0
  7  9  1  0
  7 10  1  0
  6 11  1  0
 11 12  2  0
 12 13  1  0
 13 14  2  0
 14 15  1  0
 15 16  2  0
 16 17  1  0
 14 18  1  0
 13 19  1  0
 12 20  1  0
  6 21  1  6
  5 22  1  0
  2 23  1  0
 23 24  2  0
 24 25  1  0
 25 26  2  0
 26 27  1  0
 27 28  2  0
 28 29  1  0
 27 30  1  0
 26 31  1  0
 25 32  1  0
 24 33  1  0
  2 34  1  0
  1 35  1  0
  1 36  1  0
  1 37  1  0
 16 11  1  0
 28 23  1  0
M  END
>  <cnnaffinity>  (1) 
-4.97585

>  <filename>  (1) 
CC(C(=O)N[C@@H](C)c1cccnc1)c1ccccc1Cl

$$$$
