
     RDKit          3D

 34 35  0  0  0  0  0  0  0  0999 V2000
    4.9555    1.7633   16.9195 H   0  0  0  0  0  0  0  0  0  0  0  0
    5.3950    1.3443   17.8181 C   0  0  0  0  0  0  0  0  0  0  0  0
    6.5788    0.7394   17.6440 N   0  0  0  0  0  0  0  0  0  0  0  0
    7.1327    0.1794   18.7254 C   0  0  0  0  0  0  0  0  0  0  0  0
    8.0912   -0.3128   18.5655 H   0  0  0  0  0  0  0  0  0  0  0  0
    6.5669    0.2097   20.0199 C   0  0  0  0  0  0  0  0  0  0  0  0
    7.2223   -0.5130   21.1418 C   0  0  0  0  0  0  0  0  0  0  0  0
    7.6010    0.1324   22.3866 C   0  0  0  0  0  0  0  0  0  0  0  0
    7.3731    1.1772   22.5880 H   0  0  0  0  0  0  0  0  0  0  0  0
    8.2667   -0.4790   23.3245 N   0  0  0  0  0  0  0  0  0  0  0  0
    8.5827   -1.8065   23.1180 N   0  0  0  0  0  0  0  0  0  0  0  0
    9.3326   -2.5019   24.1502 C   0  0  0  0  0  0  0  0  0  0  0  0
   10.2909   -2.8402   23.7120 H   0  0  0  0  0  0  0  0  0  0  0  0
    9.5553   -1.7649   24.9278 H   0  0  0  0  0  0  0  0  0  0  0  0
    8.5409   -3.6206   24.6299 N   0  0  0  0  0  0  0  0  0  0  0  0
    8.4214   -4.2675   23.8607 H   0  0  0  0  0  0  0  0  0  0  0  0
    8.8068   -4.2458   25.9065 C   0  0  0  0  0  0  0  0  0  0  0  0
    8.0437   -5.0398   26.0080 H   0  0  0  0  0  0  0  0  0  0  0  0
    8.5810   -3.2342   27.0238 C   0  0  0  0  0  0  0  0  0  0  0  0
    9.4521   -2.5855   27.1627 H   0  0  0  0  0  0  0  0  0  0  0  0
    7.7230   -2.5993   26.7851 H   0  0  0  0  0  0  0  0  0  0  0  0
    8.3861   -3.7425   27.9694 H   0  0  0  0  0  0  0  0  0  0  0  0
   10.1903   -4.8996   25.9659 C   0  0  0  0  0  0  0  0  0  0  0  0
   10.3970   -5.3274   26.9517 H   0  0  0  0  0  0  0  0  0  0  0  0
   10.2696   -5.6949   25.2184 H   0  0  0  0  0  0  0  0  0  0  0  0
   10.9765   -4.1670   25.7529 H   0  0  0  0  0  0  0  0  0  0  0  0
    8.1852   -2.5948   22.0280 C   0  0  0  0  0  0  0  0  0  0  0  0
    8.4292   -3.8028   21.9567 O   0  0  0  0  0  0  0  0  0  0  0  0
    7.5001   -1.8424   21.0023 C   0  0  0  0  0  0  0  0  0  0  0  0
    7.1906   -2.4046   20.1381 H   0  0  0  0  0  0  0  0  0  0  0  0
    5.3486    0.8830   20.1800 C   0  0  0  0  0  0  0  0  0  0  0  0
    4.8867    0.9536   21.1681 H   0  0  0  0  0  0  0  0  0  0  0  0
    4.7388    1.4384   19.0515 C   0  0  0  0  0  0  0  0  0  0  0  0
    3.7793    1.9389   19.1063 H   0  0  0  0  0  0  0  0  0  0  0  0
  1  2  1  0
  2  3  2  0
  3  4  1  0
  4  5  1  0
  4  6  2  0
  6  7  1  0
  7  8  1  0
  8  9  1  0
  8 10  2  0
 10 11  1  0
 11 12  1  0
 12 13  1  0
 12 14  1  0
 12 15  1  0
 15 16  1  0
 15 17  1  0
 17 18  1  0
 17 19  1  0
 19 20  1  0
 19 21  1  0
 19 22  1  0
 17 23  1  0
 23 24  1  0
 23 25  1  0
 23 26  1  0
 11 27  1  0
 27 28  2  0
 27 29  1  0
 29 30  1  0
  6 31  1  0
 31 32  1  0
 31 33  2  0
 33 34  1  0
 33  2  1  0
 29  7  2  0
M  END
>  <cnnaffinity>  (1) 
-4.91299

>  <filename>  (1) 
CC(C)NCn1ncc(-c2cccnc2)cc1=O

$$$$
