
     RDKit          3D

 33 34  0  0  0  0  0  0  0  0999 V2000
    5.3124    2.0329   16.9909 H   0  0  0  0  0  0  0  0  0  0  0  0
    5.8388    1.4076   17.7086 C   0  0  0  0  0  0  0  0  0  0  0  0
    6.9784    0.8486   17.2776 N   0  0  0  0  0  0  0  0  0  0  0  0
    7.6531    0.0728   18.1335 C   0  0  0  0  0  0  0  0  0  0  0  0
    8.5665   -0.3726   17.7388 H   0  0  0  0  0  0  0  0  0  0  0  0
    7.2368   -0.2134   19.4513 C   0  0  0  0  0  0  0  0  0  0  0  0
    8.0267   -1.0810   20.3417 C   0  0  0  0  0  0  0  0  0  0  0  0
    7.6845   -1.9690   21.3502 C   0  0  0  0  0  0  0  0  0  0  0  0
    6.3301   -2.3324   21.8846 C   0  0  0  0  0  0  0  0  0  0  0  0
    6.4628   -2.5841   22.9458 H   0  0  0  0  0  0  0  0  0  0  0  0
    5.7149   -1.4331   21.8773 H   0  0  0  0  0  0  0  0  0  0  0  0
    5.5231   -3.4656   21.1659 C   0  0  0  0  0  0  0  0  0  0  0  0
    5.3779   -3.1239   20.0975 H   0  0  0  0  0  0  0  0  0  0  0  0
    4.4639   -3.3130   21.5432 H   0  0  0  0  0  0  0  0  0  0  0  0
    6.2419   -4.9988   21.3170 C   0  0  0  0  0  0  0  0  0  0  0  0
    5.3685   -5.5615   20.5752 H   0  0  0  0  0  0  0  0  0  0  0  0
    5.4763   -5.3820   22.7823 C   0  0  0  0  0  0  0  0  0  0  0  0
    4.3416   -5.4253   22.8579 H   0  0  0  0  0  0  0  0  0  0  0  0
    5.6309   -4.6423   23.6235 H   0  0  0  0  0  0  0  0  0  0  0  0
    5.7331   -6.3809   23.2343 H   0  0  0  0  0  0  0  0  0  0  0  0
    5.8958   -4.9546   21.3802 C   0  0  0  0  0  0  0  0  0  0  0  0
    7.3500   -4.6930   21.6973 H   0  0  0  0  0  0  0  0  0  0  0  0
    7.0973   -4.7815   20.0027 H   0  0  0  0  0  0  0  0  0  0  0  0
    7.0496   -6.3349   21.1930 H   0  0  0  0  0  0  0  0  0  0  0  0
    8.8291   -2.4878   21.9119 N   0  0  0  0  0  0  0  0  0  0  0  0
    9.8305   -1.9446   21.2757 C   0  0  0  0  0  0  0  0  0  0  0  0
   10.8774   -2.1148   21.4881 H   0  0  0  0  0  0  0  0  0  0  0  0
    9.4045   -1.1036   20.3032 N   0  0  0  0  0  0  0  0  0  0  0  0
    9.9979   -0.5618   19.6973 H   0  0  0  0  0  0  0  0  0  0  0  0
    6.0316    0.3791   19.8696 C   0  0  0  0  0  0  0  0  0  0  0  0
    5.6643    0.2110   20.8787 H   0  0  0  0  0  0  0  0  0  0  0  0
    5.3322    1.2071   18.9950 C   0  0  0  0  0  0  0  0  0  0  0  0
    4.4210    1.7064   19.3007 H   0  0  0  0  0  0  0  0  0  0  0  0
  1  2  1  0
  2  3  2  0
  3  4  1  0
  4  5  1  0
  4  6  2  0
  6  7  1  0
  7  8  2  0
  8  9  1  0
  9 10  1  0
  9 11  1  0
  9 12  1  0
 12 13  1  0
 12 14  1  0
 12 15  1  0
 15 16  1  0
 15 17  1  0
 17 18  1  0
 17 19  1  0
 17 20  1  0
 15 21  1  0
 21 22  1  0
 21 23  1  0
 21 24  1  0
  8 25  1  0
 25 26  2  0
 26 27  1  0
 26 28  1  0
 28 29  1  0
  6 30  1  0
 30 31  1  0
 30 32  2  0
 32 33  1  0
 32  2  1  0
 28  7  1  0
M  END
>  <cnnaffinity>  (1) 
-4.62607

>  <filename>  (1) 
CC(C)CCc1nc[nH]c1-c1cccnc1

$$$$
