
     RDKit          3D

 45 48  0  0  0  0  0  0  0  0999 V2000
    7.1693   -3.6262   25.9922 C   0  0  0  0  0  0  0  0  0  0  0  0
    7.0868   -3.1676   24.5336 C   0  0  0  0  0  0  0  0  0  0  0  0
    5.7441   -3.5474   23.9013 C   0  0  0  0  0  0  0  0  0  0  0  0
    5.6875   -3.2188   22.8585 H   0  0  0  0  0  0  0  0  0  0  0  0
    4.9080   -3.0805   24.4423 H   0  0  0  0  0  0  0  0  0  0  0  0
    5.5981   -4.6342   23.9301 H   0  0  0  0  0  0  0  0  0  0  0  0
    7.3406   -1.6476   24.4189 C   0  0  0  0  0  0  0  0  0  0  0  0
    7.6489   -1.2015   23.0624 N   0  0  0  0  0  0  0  0  0  0  0  0
    6.6922   -0.6262   22.3065 N   0  0  0  0  0  0  0  0  0  0  0  0
    7.2801   -0.4579   21.1395 C   0  0  0  0  0  0  0  0  0  0  0  0
    6.6000    0.1399   19.9902 C   0  0  0  0  0  0  0  0  0  0  0  0
    5.3511    0.7887   20.0627 C   0  0  0  0  0  0  0  0  0  0  0  0
    4.8315    1.3325   18.8893 C   0  0  0  0  0  0  0  0  0  0  0  0
    5.5587    1.2045   17.6995 C   0  0  0  0  0  0  0  0  0  0  0  0
    6.7373    0.5695   17.6212 N   0  0  0  0  0  0  0  0  0  0  0  0
    7.2416    0.0567   18.7485 C   0  0  0  0  0  0  0  0  0  0  0  0
    8.2044   -0.4480   18.6676 H   0  0  0  0  0  0  0  0  0  0  0  0
    5.1752    1.6206   16.7682 H   0  0  0  0  0  0  0  0  0  0  0  0
    3.8862    1.8648   18.8795 H   0  0  0  0  0  0  0  0  0  0  0  0
    4.8125    0.8681   21.0109 H   0  0  0  0  0  0  0  0  0  0  0  0
    8.5628   -0.9180   21.0907 N   0  0  0  0  0  0  0  0  0  0  0  0
    8.7665   -1.3665   22.3121 C   0  0  0  0  0  0  0  0  0  0  0  0
    9.9798   -2.0979   22.8120 C   0  0  0  0  0  0  0  0  0  0  0  0
   11.2284   -1.4814   22.4472 N   0  0  0  0  0  0  0  0  0  0  0  0
   12.0346   -2.0332   21.5205 N   0  0  0  0  0  0  0  0  0  0  0  0
   13.1147   -1.2856   21.4555 C   0  0  0  0  0  0  0  0  0  0  0  0
   13.0465   -0.1865   22.3736 C   0  0  0  0  0  0  0  0  0  0  0  0
   13.8450    0.9378   22.7316 C   0  0  0  0  0  0  0  0  0  0  0  0
   13.3615    1.7996   23.6933 C   0  0  0  0  0  0  0  0  0  0  0  0
   12.1199    1.5722   24.3438 C   0  0  0  0  0  0  0  0  0  0  0  0
   11.3482    0.4641   24.0483 C   0  0  0  0  0  0  0  0  0  0  0  0
   11.8049   -0.3851   23.0211 C   0  0  0  0  0  0  0  0  0  0  0  0
   10.4251    0.2470   24.5752 H   0  0  0  0  0  0  0  0  0  0  0  0
   11.7858    2.2854   25.0871 H   0  0  0  0  0  0  0  0  0  0  0  0
   13.9160    2.6968   23.9445 H   0  0  0  0  0  0  0  0  0  0  0  0
   14.8075    1.1356   22.2633 H   0  0  0  0  0  0  0  0  0  0  0  0
   13.9053   -1.5354   20.7589 H   0  0  0  0  0  0  0  0  0  0  0  0
    9.9527   -2.1769   23.9041 H   0  0  0  0  0  0  0  0  0  0  0  0
    9.9946   -3.1048   22.3869 H   0  0  0  0  0  0  0  0  0  0  0  0
    8.1606   -1.3399   25.0800 H   0  0  0  0  0  0  0  0  0  0  0  0
    6.4527   -1.0899   24.7320 H   0  0  0  0  0  0  0  0  0  0  0  0
    7.8875   -3.6790   23.9765 H   0  0  0  0  0  0  0  0  0  0  0  0
    6.4464   -3.0955   26.6260 H   0  0  0  0  0  0  0  0  0  0  0  0
    6.9578   -4.6992   26.0730 H   0  0  0  0  0  0  0  0  0  0  0  0
    8.1688   -3.4568   26.4091 H   0  0  0  0  0  0  0  0  0  0  0  0
  1  2  1  0
  2  3  1  0
  3  4  1  0
  3  5  1  0
  3  6  1  0
  2  7  1  0
  7  8  1  0
  8  9  1  0
  9 10  2  0
 10 11  1  0
 11 12  2  0
 12 13  1  0
 13 14  2  0
 14 15  1  0
 15 16  2  0
 16 17  1  0
 14 18  1  0
 13 19  1  0
 12 20  1  0
 10 21  1  0
 21 22  2  0
 22 23  1  0
 23 24  1  0
 24 25  1  0
 25 26  2  0
 26 27  1  0
 27 28  2  0
 28 29  1  0
 29 30  2  0
 30 31  1  0
 31 32  2  0
 31 33  1  0
 30 34  1  0
 29 35  1  0
 28 36  1  0
 26 37  1  0
 23 38  1  0
 23 39  1  0
  7 40  1  0
  7 41  1  0
  2 42  1  0
  1 43  1  0
  1 44  1  0
  1 45  1  0
 22  8  1  0
 32 24  1  0
 16 11  1  0
 32 27  1  0
M  END
>  <cnnaffinity>  (1) 
-6.41433

>  <filename>  (1) 
CC(C)Cn1nc(-c2cccnc2)nc1Cn1ncc2ccccc21

$$$$
