
     RDKit          3D

 36 37  0  0  0  0  0  0  0  0999 V2000
    5.0988    1.7177   16.9629 H   0  0  0  0  0  0  0  0  0  0  0  0
    5.5222    1.2377   17.8409 C   0  0  0  0  0  0  0  0  0  0  0  0
    6.6865    0.5994   17.6620 N   0  0  0  0  0  0  0  0  0  0  0  0
    7.2342    0.0273   18.7459 C   0  0  0  0  0  0  0  0  0  0  0  0
    8.1828   -0.4746   18.5717 H   0  0  0  0  0  0  0  0  0  0  0  0
    6.6697    0.0353   20.0395 C   0  0  0  0  0  0  0  0  0  0  0  0
    7.3497   -0.5625   21.2951 C   0  0  0  0  0  0  0  0  0  0  0  0
    6.5161   -1.6929   22.0157 C   0  0  0  0  0  0  0  0  0  0  0  0
    6.7214   -1.9769   23.1894 O   0  0  0  0  0  0  0  0  0  0  0  0
    5.6687   -2.4106   21.2060 N   0  0  0  0  0  0  0  0  0  0  0  0
    5.6359   -2.1207   20.2391 H   0  0  0  0  0  0  0  0  0  0  0  0
    4.7671   -3.4373   21.5618 N   0  0  0  0  0  0  0  0  0  0  0  0
    4.2306   -3.1546   22.3912 H   0  0  0  0  0  0  0  0  0  0  0  0
    5.4549   -4.7014   21.8938 C   0  0  0  0  0  0  0  0  0  0  0  0
    5.6912   -5.2300   20.9581 H   0  0  0  0  0  0  0  0  0  0  0  0
    6.4079   -4.4677   22.3939 H   0  0  0  0  0  0  0  0  0  0  0  0
    4.6242   -5.5665   22.7989 C   0  0  0  0  0  0  0  0  0  0  0  0
    3.1991   -6.3674   22.2335 S   0  0  0  0  0  0  0  0  0  0  0  0
    2.9526   -7.1300   23.7546 C   0  0  0  0  0  0  0  0  0  0  0  0
    2.1093   -7.7917   23.8988 H   0  0  0  0  0  0  0  0  0  0  0  0
    3.9023   -6.7729   24.6594 C   0  0  0  0  0  0  0  0  0  0  0  0
    3.9202   -7.1377   25.6803 H   0  0  0  0  0  0  0  0  0  0  0  0
    4.8592   -5.8668   24.1109 C   0  0  0  0  0  0  0  0  0  0  0  0
    5.6819   -5.4321   24.6724 H   0  0  0  0  0  0  0  0  0  0  0  0
    8.7399   -1.1776   20.9834 C   0  0  0  0  0  0  0  0  0  0  0  0
    9.3421   -0.4503   20.4335 H   0  0  0  0  0  0  0  0  0  0  0  0
    9.2777   -1.3912   21.9144 H   0  0  0  0  0  0  0  0  0  0  0  0
    8.6898   -2.1038   20.4017 H   0  0  0  0  0  0  0  0  0  0  0  0
    7.6245    0.6056   22.2767 C   0  0  0  0  0  0  0  0  0  0  0  0
    8.0646    0.2449   23.2089 H   0  0  0  0  0  0  0  0  0  0  0  0
    6.7301    1.1793   22.5282 H   0  0  0  0  0  0  0  0  0  0  0  0
    8.3299    1.2995   21.8102 H   0  0  0  0  0  0  0  0  0  0  0  0
    5.4386    0.7029   20.1847 C   0  0  0  0  0  0  0  0  0  0  0  0
    4.9497    0.7509   21.1619 H   0  0  0  0  0  0  0  0  0  0  0  0
    4.8571    1.3140   19.0712 C   0  0  0  0  0  0  0  0  0  0  0  0
    3.9264    1.8700   19.1551 H   0  0  0  0  0  0  0  0  0  0  0  0
  1  2  1  0
  2  3  2  0
  3  4  1  0
  4  5  1  0
  4  6  2  0
  6  7  1  0
  7  8  1  0
  8  9  2  0
  8 10  1  0
 10 11  1  0
 10 12  1  0
 12 13  1  0
 12 14  1  0
 14 15  1  0
 14 16  1  0
 14 17  1  0
 17 18  1  0
 18 19  1  0
 19 20  1  0
 19 21  2  0
 21 22  1  0
 21 23  1  0
 23 24  1  0
  7 25  1  0
 25 26  1  0
 25 27  1  0
 25 28  1  0
  7 29  1  0
 29 30  1  0
 29 31  1  0
 29 32  1  0
  6 33  1  0
 33 34  1  0
 33 35  2  0
 35 36  1  0
 35  2  1  0
 23 17  2  0
M  END
>  <cnnaffinity>  (1) 
-4.96788

>  <filename>  (1) 
CC(C)(C(=O)NNCc1cccs1)c1cccnc1

$$$$
