
     RDKit          3D

 35 37  0  0  0  0  0  0  0  0999 V2000
    6.6200   -1.9394   21.4935 C   0  0  0  0  0  0  0  0  0  0  0  0
    7.4239   -0.7291   20.9882 C   0  0  0  0  0  0  0  0  0  0  0  0
    6.6645    0.0081   19.8810 C   0  0  0  0  0  0  0  0  0  0  0  0
    5.4463    0.6493   20.1478 C   0  0  0  0  0  0  0  0  0  0  0  0
    4.8062    1.3064   19.0946 C   0  0  0  0  0  0  0  0  0  0  0  0
    5.3950    1.2957   17.8219 C   0  0  0  0  0  0  0  0  0  0  0  0
    6.5534    0.6794   17.5441 N   0  0  0  0  0  0  0  0  0  0  0  0
    7.1595    0.0635   18.5679 C   0  0  0  0  0  0  0  0  0  0  0  0
    8.1101   -0.4170   18.3515 H   0  0  0  0  0  0  0  0  0  0  0  0
    4.9127    1.7951   16.9851 H   0  0  0  0  0  0  0  0  0  0  0  0
    3.8784    1.8380   19.2531 H   0  0  0  0  0  0  0  0  0  0  0  0
    5.0299    0.6507   21.1644 H   0  0  0  0  0  0  0  0  0  0  0  0
    7.7866    0.2193   22.1078 C   0  0  0  0  0  0  0  0  0  0  0  0
    8.9132    0.8786   22.1117 N   0  0  0  0  0  0  0  0  0  0  0  0
    8.7953    1.7003   23.2273 O   0  0  0  0  0  0  0  0  0  0  0  0
    7.6092    1.4471   23.7769 C   0  0  0  0  0  0  0  0  0  0  0  0
    7.1826    2.2290   24.9678 C   0  0  0  0  0  0  0  0  0  0  0  0
    6.5789    3.5612   24.5615 C   0  0  0  0  0  0  0  0  0  0  0  0
    7.3792    4.7074   24.5513 C   0  0  0  0  0  0  0  0  0  0  0  0
    6.8863    5.9425   24.1253 C   0  0  0  0  0  0  0  0  0  0  0  0
    5.5619    6.0404   23.6905 C   0  0  0  0  0  0  0  0  0  0  0  0
    4.7420    4.9106   23.6654 C   0  0  0  0  0  0  0  0  0  0  0  0
    5.2616    3.6848   24.0918 C   0  0  0  0  0  0  0  0  0  0  0  0
    4.2149    2.2976   24.0152 Cl  0  0  0  0  0  0  0  0  0  0  0  0
    3.7126    4.9584   23.3202 H   0  0  0  0  0  0  0  0  0  0  0  0
    5.1622    6.9950   23.3609 H   0  0  0  0  0  0  0  0  0  0  0  0
    7.5308    6.8166   24.1360 H   0  0  0  0  0  0  0  0  0  0  0  0
    8.4132    4.6068   24.8710 H   0  0  0  0  0  0  0  0  0  0  0  0
    8.0376    2.3724   25.6333 H   0  0  0  0  0  0  0  0  0  0  0  0
    6.4437    1.6138   25.4857 H   0  0  0  0  0  0  0  0  0  0  0  0
    6.9379    0.5346   23.1423 N   0  0  0  0  0  0  0  0  0  0  0  0
    8.3756   -1.0869   20.5835 H   0  0  0  0  0  0  0  0  0  0  0  0
    5.6677   -1.6199   21.9173 H   0  0  0  0  0  0  0  0  0  0  0  0
    6.3858   -2.6104   20.6624 H   0  0  0  0  0  0  0  0  0  0  0  0
    7.1628   -2.4941   22.2664 H   0  0  0  0  0  0  0  0  0  0  0  0
  1  2  1  0
  2  3  1  0
  3  4  2  0
  4  5  1  0
  5  6  2  0
  6  7  1  0
  7  8  2  0
  8  9  1  0
  6 10  1  0
  5 11  1  0
  4 12  1  0
  2 13  1  0
 13 14  2  0
 14 15  1  0
 15 16  1  0
 16 17  1  0
 17 18  1  0
 18 19  2  0
 19 20  1  0
 20 21  2  0
 21 22  1  0
 22 23  2  0
 23 24  1  0
 22 25  1  0
 21 26  1  0
 20 27  1  0
 19 28  1  0
 17 29  1  0
 17 30  1  0
 16 31  2  0
  2 32  1  0
  1 33  1  0
  1 34  1  0
  1 35  1  0
  8  3  1  0
 31 13  1  0
 23 18  1  0
M  END
>  <cnnaffinity>  (1) 
-5.63211

>  <filename>  (1) 
CC(c1cccnc1)c1noc(Cc2ccccc2Cl)n1

$$$$
