
     RDKit          3D

 43 45  0  0  0  0  0  0  0  0999 V2000
   11.0397   -0.5163   23.6591 C   0  0  0  0  0  0  0  0  0  0  0  0
   11.1743   -1.1852   22.2819 C   0  0  0  0  0  0  0  0  0  0  0  0
   12.5299   -1.8495   21.9928 C   0  0  0  0  0  0  0  0  0  0  0  0
   13.6632   -1.0816   22.3455 O   0  0  0  0  0  0  0  0  0  0  0  0
   13.7847   -1.1723   23.2951 H   0  0  0  0  0  0  0  0  0  0  0  0
   12.6038   -2.0075   20.9078 H   0  0  0  0  0  0  0  0  0  0  0  0
   12.5474   -2.8416   22.4736 H   0  0  0  0  0  0  0  0  0  0  0  0
   10.0930   -2.2597   22.0718 C   0  0  0  0  0  0  0  0  0  0  0  0
    8.7555   -1.7170   21.9400 N   0  0  0  0  0  0  0  0  0  0  0  0
    8.4143   -1.2132   20.7349 N   0  0  0  0  0  0  0  0  0  0  0  0
    7.2467   -0.6390   20.9654 C   0  0  0  0  0  0  0  0  0  0  0  0
    6.5248    0.0523   19.9035 C   0  0  0  0  0  0  0  0  0  0  0  0
    5.3069    0.7254   20.0887 C   0  0  0  0  0  0  0  0  0  0  0  0
    4.7522    1.3719   18.9860 C   0  0  0  0  0  0  0  0  0  0  0  0
    5.4188    1.3190   17.7572 C   0  0  0  0  0  0  0  0  0  0  0  0
    6.5729    0.6640   17.5708 N   0  0  0  0  0  0  0  0  0  0  0  0
    7.1080    0.0482   18.6266 C   0  0  0  0  0  0  0  0  0  0  0  0
    8.0447   -0.4781   18.4496 H   0  0  0  0  0  0  0  0  0  0  0  0
    5.0058    1.8189   16.8829 H   0  0  0  0  0  0  0  0  0  0  0  0
    3.8230    1.9256   19.0600 H   0  0  0  0  0  0  0  0  0  0  0  0
    4.8158    0.7471   21.0650 H   0  0  0  0  0  0  0  0  0  0  0  0
    6.8299   -0.7288   22.2468 N   0  0  0  0  0  0  0  0  0  0  0  0
    7.7892   -1.4152   22.8425 C   0  0  0  0  0  0  0  0  0  0  0  0
    7.7894   -1.7358   24.3123 C   0  0  0  0  0  0  0  0  0  0  0  0
    6.4887   -2.3965   24.7447 C   0  0  0  0  0  0  0  0  0  0  0  0
    6.2307   -3.7525   24.4711 C   0  0  0  0  0  0  0  0  0  0  0  0
    7.4527   -4.7163   23.6998 Cl  0  0  0  0  0  0  0  0  0  0  0  0
    4.9881   -4.3242   24.8024 C   0  0  0  0  0  0  0  0  0  0  0  0
    4.6447   -6.0007   24.5144 Cl  0  0  0  0  0  0  0  0  0  0  0  0
    3.9917   -3.5365   25.3892 C   0  0  0  0  0  0  0  0  0  0  0  0
    4.2334   -2.1897   25.6578 C   0  0  0  0  0  0  0  0  0  0  0  0
    5.4771   -1.6341   25.3432 C   0  0  0  0  0  0  0  0  0  0  0  0
    5.6653   -0.5829   25.5447 H   0  0  0  0  0  0  0  0  0  0  0  0
    3.4578   -1.5750   26.1083 H   0  0  0  0  0  0  0  0  0  0  0  0
    3.0409   -3.9980   25.6374 H   0  0  0  0  0  0  0  0  0  0  0  0
    7.9194   -0.7931   24.8602 H   0  0  0  0  0  0  0  0  0  0  0  0
    8.6375   -2.3790   24.5657 H   0  0  0  0  0  0  0  0  0  0  0  0
   10.2634   -2.7810   21.1324 H   0  0  0  0  0  0  0  0  0  0  0  0
   10.1195   -2.9961   22.8809 H   0  0  0  0  0  0  0  0  0  0  0  0
   11.0249   -0.4220   21.5055 H   0  0  0  0  0  0  0  0  0  0  0  0
   10.1746    0.1607   23.6674 H   0  0  0  0  0  0  0  0  0  0  0  0
   10.8964   -1.2514   24.4663 H   0  0  0  0  0  0  0  0  0  0  0  0
   11.9375    0.0711   23.8884 H   0  0  0  0  0  0  0  0  0  0  0  0
  1  2  1  0
  2  3  1  0
  3  4  1  0
  4  5  1  0
  3  6  1  0
  3  7  1  0
  2  8  1  0
  8  9  1  0
  9 10  1  0
 10 11  2  0
 11 12  1  0
 12 13  2  0
 13 14  1  0
 14 15  2  0
 15 16  1  0
 16 17  2  0
 17 18  1  0
 15 19  1  0
 14 20  1  0
 13 21  1  0
 11 22  1  0
 22 23  2  0
 23 24  1  0
 24 25  1  0
 25 26  2  0
 26 27  1  0
 26 28  1  0
 28 29  1  0
 28 30  2  0
 30 31  1  0
 31 32  2  0
 32 33  1  0
 31 34  1  0
 30 35  1  0
 24 36  1  0
 24 37  1  0
  8 38  1  0
  8 39  1  0
  2 40  1  0
  1 41  1  0
  1 42  1  0
  1 43  1  0
 23  9  1  0
 32 25  1  0
 17 12  1  0
M  END
>  <cnnaffinity>  (1) 
-6.32698

>  <filename>  (1) 
CC(CO)Cn1nc(-c2cccnc2)nc1Cc1cccc(Cl)c1Cl

$$$$
