
     RDKit          3D

 38 39  0  0  0  0  0  0  0  0999 V2000
    8.6926    0.1441   21.3922 C   0  0  0  0  0  0  0  0  0  0  0  0
    7.4175   -0.6664   21.1075 C   0  0  0  0  0  0  0  0  0  0  0  0
    7.7015   -2.1983   21.0772 C   0  0  0  0  0  0  0  0  0  0  0  0
    8.7964   -2.6985   21.2666 O   0  0  0  0  0  0  0  0  0  0  0  0
    6.5699   -2.9395   20.9110 N   0  0  0  0  0  0  0  0  0  0  0  0
    6.5735   -4.2818   20.6014 O   0  0  0  0  0  0  0  0  0  0  0  0
    6.9277   -5.1029   21.7395 C   0  0  0  0  0  0  0  0  0  0  0  0
    5.7893   -5.2436   22.7132 C   0  0  0  0  0  0  0  0  0  0  0  0
    4.7419   -6.1257   22.4433 C   0  0  0  0  0  0  0  0  0  0  0  0
    4.8198   -6.8579   21.3219 F   0  0  0  0  0  0  0  0  0  0  0  0
    3.6413   -6.2720   23.2912 C   0  0  0  0  0  0  0  0  0  0  0  0
    2.5931   -7.3114   22.9658 C   0  0  0  0  0  0  0  0  0  0  0  0
    2.3172   -7.3771   21.6545 F   0  0  0  0  0  0  0  0  0  0  0  0
    2.9739   -8.5410   23.3640 F   0  0  0  0  0  0  0  0  0  0  0  0
    1.4280   -7.0476   23.5884 F   0  0  0  0  0  0  0  0  0  0  0  0
    3.5913   -5.4926   24.4601 C   0  0  0  0  0  0  0  0  0  0  0  0
    4.6118   -4.5820   24.7400 C   0  0  0  0  0  0  0  0  0  0  0  0
    5.7010   -4.4613   23.8724 C   0  0  0  0  0  0  0  0  0  0  0  0
    6.5026   -3.7537   24.0800 H   0  0  0  0  0  0  0  0  0  0  0  0
    4.5624   -3.9608   25.6291 H   0  0  0  0  0  0  0  0  0  0  0  0
    2.7561   -5.5965   25.1533 H   0  0  0  0  0  0  0  0  0  0  0  0
    7.1981   -6.0575   21.2795 H   0  0  0  0  0  0  0  0  0  0  0  0
    7.8171   -4.6761   22.2130 H   0  0  0  0  0  0  0  0  0  0  0  0
    5.6587   -2.5094   20.8846 H   0  0  0  0  0  0  0  0  0  0  0  0
    6.6422   -0.0649   19.9246 C   0  0  0  0  0  0  0  0  0  0  0  0
    5.4222    0.5963   20.1388 C   0  0  0  0  0  0  0  0  0  0  0  0
    4.8116    1.2741   19.0811 C   0  0  0  0  0  0  0  0  0  0  0  0
    5.4340    1.2615   17.8327 C   0  0  0  0  0  0  0  0  0  0  0  0
    6.5842    0.6153   17.5880 N   0  0  0  0  0  0  0  0  0  0  0  0
    7.1618   -0.0205   18.6158 C   0  0  0  0  0  0  0  0  0  0  0  0
    8.1046   -0.5216   18.3936 H   0  0  0  0  0  0  0  0  0  0  0  0
    4.9947    1.7915   16.9889 H   0  0  0  0  0  0  0  0  0  0  0  0
    3.8841    1.8246   19.2140 H   0  0  0  0  0  0  0  0  0  0  0  0
    4.9783    0.5993   21.1343 H   0  0  0  0  0  0  0  0  0  0  0  0
    6.7808   -0.5503   21.9979 H   0  0  0  0  0  0  0  0  0  0  0  0
    9.2310   -0.2762   22.2463 H   0  0  0  0  0  0  0  0  0  0  0  0
    8.4286    1.1830   21.6109 H   0  0  0  0  0  0  0  0  0  0  0  0
    9.3803    0.1572   20.5415 H   0  0  0  0  0  0  0  0  0  0  0  0
  1  2  1  0
  2  3  1  0
  3  4  2  0
  3  5  1  0
  5  6  1  0
  6  7  1  0
  7  8  1  0
  8  9  2  0
  9 10  1  0
  9 11  1  0
 11 12  1  0
 12 13  1  0
 12 14  1  0
 12 15  1  0
 11 16  2  0
 16 17  1  0
 17 18  2  0
 18 19  1  0
 17 20  1  0
 16 21  1  0
  7 22  1  0
  7 23  1  0
  5 24  1  0
  2 25  1  0
 25 26  2  0
 26 27  1  0
 27 28  2  0
 28 29  1  0
 29 30  2  0
 30 31  1  0
 28 32  1  0
 27 33  1  0
 26 34  1  0
  2 35  1  0
  1 36  1  0
  1 37  1  0
  1 38  1  0
 18  8  1  0
 30 25  1  0
M  END
>  <cnnaffinity>  (1) 
-4.58205

>  <filename>  (1) 
CC(C(=O)NOCc1cccc(C(F)(F)F)c1F)c1cccnc1

$$$$
