
     RDKit          3D

 39 41  0  0  0  0  0  0  0  0999 V2000
    4.9750    1.7633   17.0220 H   0  0  0  0  0  0  0  0  0  0  0  0
    5.4353    1.2710   17.8754 C   0  0  0  0  0  0  0  0  0  0  0  0
    6.5930    0.6418   17.6351 N   0  0  0  0  0  0  0  0  0  0  0  0
    7.1893    0.0231   18.6517 C   0  0  0  0  0  0  0  0  0  0  0  0
    8.1283   -0.4780   18.4194 H   0  0  0  0  0  0  0  0  0  0  0  0
    6.6437    0.0300   19.9279 C   0  0  0  0  0  0  0  0  0  0  0  0
    7.5037   -0.8538   21.1619 S   0  0  0  0  0  0  0  0  0  0  0  0
    6.4881   -1.3805   22.0701 O   0  0  0  0  0  0  0  0  0  0  0  0
    8.4140   -1.7614   20.4727 O   0  0  0  0  0  0  0  0  0  0  0  0
    8.5716    0.3966   22.0820 C   0  0  0  0  0  0  0  0  0  0  0  0
    7.6537    1.5601   22.4972 C   0  0  0  0  0  0  0  0  0  0  0  0
    6.6821    1.3588   23.5295 C   0  0  0  0  0  0  0  0  0  0  0  0
    6.6047    0.3821   24.0021 H   0  0  0  0  0  0  0  0  0  0  0  0
    5.8334    2.3666   23.9200 C   0  0  0  0  0  0  0  0  0  0  0  0
    5.1180    2.1957   24.7184 H   0  0  0  0  0  0  0  0  0  0  0  0
    5.8766    3.6517   23.2931 C   0  0  0  0  0  0  0  0  0  0  0  0
    5.0047    4.7204   23.6680 C   0  0  0  0  0  0  0  0  0  0  0  0
    4.2848    4.5453   24.4643 H   0  0  0  0  0  0  0  0  0  0  0  0
    5.0695    5.9395   23.0328 C   0  0  0  0  0  0  0  0  0  0  0  0
    4.3968    6.7466   23.3124 H   0  0  0  0  0  0  0  0  0  0  0  0
    6.0195    6.1555   21.9938 C   0  0  0  0  0  0  0  0  0  0  0  0
    6.0534    7.1180   21.4891 H   0  0  0  0  0  0  0  0  0  0  0  0
    6.8817    5.1516   21.6204 C   0  0  0  0  0  0  0  0  0  0  0  0
    7.6156    5.3295   20.8371 H   0  0  0  0  0  0  0  0  0  0  0  0
    6.8314    3.8685   22.2503 C   0  0  0  0  0  0  0  0  0  0  0  0
    7.7023    2.7946   21.8782 C   0  0  0  0  0  0  0  0  0  0  0  0
    8.4345    2.9838   21.1006 H   0  0  0  0  0  0  0  0  0  0  0  0
    9.1815   -0.3266   23.3053 C   0  0  0  0  0  0  0  0  0  0  0  0
    8.4226   -0.7927   23.9415 H   0  0  0  0  0  0  0  0  0  0  0  0
    9.7360    0.4001   23.9107 H   0  0  0  0  0  0  0  0  0  0  0  0
    9.8811   -1.1061   22.9817 H   0  0  0  0  0  0  0  0  0  0  0  0
    9.7171    0.8131   21.1458 C   0  0  0  0  0  0  0  0  0  0  0  0
   10.3687   -0.0383   20.9334 H   0  0  0  0  0  0  0  0  0  0  0  0
   10.3118    1.6030   21.6151 H   0  0  0  0  0  0  0  0  0  0  0  0
    9.3215    1.1764   20.1983 H   0  0  0  0  0  0  0  0  0  0  0  0
    5.4307    0.6621   20.1991 C   0  0  0  0  0  0  0  0  0  0  0  0
    4.9906    0.6648   21.2020 H   0  0  0  0  0  0  0  0  0  0  0  0
    4.8199    1.3042   19.1304 C   0  0  0  0  0  0  0  0  0  0  0  0
    3.8848    1.8359   19.2528 H   0  0  0  0  0  0  0  0  0  0  0  0
  1  2  1  0
  2  3  2  0
  3  4  1  0
  4  5  1  0
  4  6  2  0
  6  7  1  0
  7  8  2  0
  7  9  2  0
  7 10  1  0
 10 11  1  0
 11 12  2  0
 12 13  1  0
 12 14  1  0
 14 15  1  0
 14 16  2  0
 16 17  1  0
 17 18  1  0
 17 19  2  0
 19 20  1  0
 19 21  1  0
 21 22  1  0
 21 23  2  0
 23 24  1  0
 23 25  1  0
 25 26  2  0
 26 27  1  0
 10 28  1  0
 28 29  1  0
 28 30  1  0
 28 31  1  0
 10 32  1  0
 32 33  1  0
 32 34  1  0
 32 35  1  0
  6 36  1  0
 36 37  1  0
 36 38  2  0
 38 39  1  0
 38  2  1  0
 26 11  1  0
 25 16  1  0
M  END
>  <cnnaffinity>  (1) 
-4.92261

>  <filename>  (1) 
CC(C)(c1ccc2ccccc2c1)S(=O)(=O)c1cccnc1

$$$$
