
     RDKit          3D

 37 39  0  0  0  0  0  0  0  0999 V2000
    4.9777    1.8649   16.9680 H   0  0  0  0  0  0  0  0  0  0  0  0
    5.4505    1.3314   17.7924 C   0  0  0  0  0  0  0  0  0  0  0  0
    6.6304    0.7547   17.5289 N   0  0  0  0  0  0  0  0  0  0  0  0
    7.2309    0.1024   18.5357 C   0  0  0  0  0  0  0  0  0  0  0  0
    8.1893   -0.3418   18.2787 H   0  0  0  0  0  0  0  0  0  0  0  0
    6.7076   -0.0428   19.8447 C   0  0  0  0  0  0  0  0  0  0  0  0
    7.4110   -0.8138   20.9918 C   0  0  0  0  0  0  0  0  0  0  0  0
    7.3971    0.0270   22.2981 C   0  0  0  0  0  0  0  0  0  0  0  0
    7.9942   -0.4426   23.0858 H   0  0  0  0  0  0  0  0  0  0  0  0
    6.3973    0.2229   22.6927 H   0  0  0  0  0  0  0  0  0  0  0  0
    7.8642    1.0013   22.1010 H   0  0  0  0  0  0  0  0  0  0  0  0
    8.8921   -1.0987   20.6743 C   0  0  0  0  0  0  0  0  0  0  0  0
    9.3929   -0.1379   20.4976 H   0  0  0  0  0  0  0  0  0  0  0  0
    9.0388   -1.7121   19.7862 H   0  0  0  0  0  0  0  0  0  0  0  0
    9.4010   -1.5806   21.5158 H   0  0  0  0  0  0  0  0  0  0  0  0
    6.4433   -2.4970   21.2205 S   0  0  0  0  0  0  0  0  0  0  0  0
    5.0898   -2.3018   21.7063 O   0  0  0  0  0  0  0  0  0  0  0  0
    6.5367   -3.3110   20.0156 O   0  0  0  0  0  0  0  0  0  0  0  0
    7.3050   -3.3011   22.5586 C   0  0  0  0  0  0  0  0  0  0  0  0
    8.0763   -4.4389   22.2420 C   0  0  0  0  0  0  0  0  0  0  0  0
    8.2005   -4.7307   21.1993 H   0  0  0  0  0  0  0  0  0  0  0  0
    8.6024   -5.2162   23.2599 C   0  0  0  0  0  0  0  0  0  0  0  0
    9.0752   -6.1682   23.0648 H   0  0  0  0  0  0  0  0  0  0  0  0
    8.4228   -4.7896   24.5822 C   0  0  0  0  0  0  0  0  0  0  0  0
    7.6341   -3.6690   24.9282 C   0  0  0  0  0  0  0  0  0  0  0  0
    7.0338   -2.9288   23.8801 C   0  0  0  0  0  0  0  0  0  0  0  0
    6.3373   -2.1263   24.1197 H   0  0  0  0  0  0  0  0  0  0  0  0
    7.6634   -3.5947   26.3698 C   0  0  0  0  0  0  0  0  0  0  0  0
    7.1305   -2.8799   26.9871 H   0  0  0  0  0  0  0  0  0  0  0  0
    8.4622   -4.6073   26.8202 C   0  0  0  0  0  0  0  0  0  0  0  0
    8.7328   -4.8933   27.8341 H   0  0  0  0  0  0  0  0  0  0  0  0
    8.9170   -5.3374   25.7372 N   0  0  0  0  0  0  0  0  0  0  0  0
    9.5980   -6.0767   25.7300 H   0  0  0  0  0  0  0  0  0  0  0  0
    5.4674    0.5768   20.0800 C   0  0  0  0  0  0  0  0  0  0  0  0
    5.0016    0.5233   21.0669 H   0  0  0  0  0  0  0  0  0  0  0  0
    4.8358    1.2743   19.0472 C   0  0  0  0  0  0  0  0  0  0  0  0
    3.8980    1.7929   19.2150 H   0  0  0  0  0  0  0  0  0  0  0  0
  1  2  1  0
  2  3  2  0
  3  4  1  0
  4  5  1  0
  4  6  2  0
  6  7  1  0
  7  8  1  0
  8  9  1  0
  8 10  1  0
  8 11  1  0
  7 12  1  0
 12 13  1  0
 12 14  1  0
 12 15  1  0
  7 16  1  0
 16 17  2  0
 16 18  2  0
 16 19  1  0
 19 20  2  0
 20 21  1  0
 20 22  1  0
 22 23  1  0
 22 24  2  0
 24 25  1  0
 25 26  2  0
 26 27  1  0
 25 28  1  0
 28 29  1  0
 28 30  2  0
 30 31  1  0
 30 32  1  0
 32 33  1  0
  6 34  1  0
 34 35  1  0
 34 36  2  0
 36 37  1  0
 36  2  1  0
 26 19  1  0
 32 24  1  0
M  END
>  <cnnaffinity>  (1) 
-5.00969

>  <filename>  (1) 
CC(C)(c1cccnc1)S(=O)(=O)c1ccc2[nH]ccc2c1

$$$$
