
     RDKit          3D

 48 51  0  0  0  0  0  0  0  0999 V2000
    6.9475   -1.3024   26.6276 C   0  0  0  0  0  0  0  0  0  0  0  0
    6.9279   -0.8408   25.1678 C   0  0  0  0  0  0  0  0  0  0  0  0
    7.8561   -1.7331   24.3318 C   0  0  0  0  0  0  0  0  0  0  0  0
    7.8171   -1.3884   22.8859 C   0  0  0  0  0  0  0  0  0  0  0  0
    6.8628   -0.7772   22.2181 N   0  0  0  0  0  0  0  0  0  0  0  0
    7.3593   -0.6975   20.9611 C   0  0  0  0  0  0  0  0  0  0  0  0
    6.6570   -0.0060   19.9017 C   0  0  0  0  0  0  0  0  0  0  0  0
    5.4472    0.6442   20.1638 C   0  0  0  0  0  0  0  0  0  0  0  0
    4.8175    1.2993   19.1136 C   0  0  0  0  0  0  0  0  0  0  0  0
    5.4220    1.2760   17.8512 C   0  0  0  0  0  0  0  0  0  0  0  0
    6.5822    0.6538   17.5920 N   0  0  0  0  0  0  0  0  0  0  0  0
    7.1921    0.0342   18.6054 C   0  0  0  0  0  0  0  0  0  0  0  0
    8.1447   -0.4427   18.3703 H   0  0  0  0  0  0  0  0  0  0  0  0
    4.9591    1.7832   17.0098 H   0  0  0  0  0  0  0  0  0  0  0  0
    3.8845    1.8306   19.2571 H   0  0  0  0  0  0  0  0  0  0  0  0
    5.0288    0.6222   21.1743 H   0  0  0  0  0  0  0  0  0  0  0  0
    8.5377   -1.2662   20.7980 N   0  0  0  0  0  0  0  0  0  0  0  0
    8.8103   -1.7320   22.0345 N   0  0  0  0  0  0  0  0  0  0  0  0
   10.0260   -2.4805   22.1952 C   0  0  0  0  0  0  0  0  0  0  0  0
   11.2395   -1.5890   22.3114 C   0  0  0  0  0  0  0  0  0  0  0  0
   11.1714   -0.8072   23.4342 F   0  0  0  0  0  0  0  0  0  0  0  0
   12.3102   -2.4162   22.4331 F   0  0  0  0  0  0  0  0  0  0  0  0
   11.3800   -0.9275   21.4556 H   0  0  0  0  0  0  0  0  0  0  0  0
   10.0042   -3.1592   23.0537 H   0  0  0  0  0  0  0  0  0  0  0  0
   10.1208   -3.0383   21.2702 H   0  0  0  0  0  0  0  0  0  0  0  0
    7.5457   -2.7776   24.4470 H   0  0  0  0  0  0  0  0  0  0  0  0
    8.8893   -1.6647   24.6958 H   0  0  0  0  0  0  0  0  0  0  0  0
    7.2624    0.5581   25.0328 N   0  0  0  0  0  0  0  0  0  0  0  0
    8.5767    1.0679   25.4038 C   0  0  0  0  0  0  0  0  0  0  0  0
    8.5302    2.5793   25.0397 C   0  0  0  0  0  0  0  0  0  0  0  0
    7.1443    2.7710   24.4564 C   0  0  0  0  0  0  0  0  0  0  0  0
    6.5183    3.8991   23.9354 C   0  0  0  0  0  0  0  0  0  0  0  0
    5.2092    3.8094   23.4382 C   0  0  0  0  0  0  0  0  0  0  0  0
    4.5271    2.5821   23.4685 C   0  0  0  0  0  0  0  0  0  0  0  0
    5.1464    1.4455   24.0003 C   0  0  0  0  0  0  0  0  0  0  0  0
    6.4607    1.5453   24.4873 C   0  0  0  0  0  0  0  0  0  0  0  0
    4.6223    0.4994   24.0470 H   0  0  0  0  0  0  0  0  0  0  0  0
    3.5170    2.5259   23.0601 H   0  0  0  0  0  0  0  0  0  0  0  0
    4.7252    4.6881   23.0211 H   0  0  0  0  0  0  0  0  0  0  0  0
    7.0507    4.8476   23.9084 H   0  0  0  0  0  0  0  0  0  0  0  0
    9.3149    2.8389   24.3170 H   0  0  0  0  0  0  0  0  0  0  0  0
    8.6856    3.2060   25.9269 H   0  0  0  0  0  0  0  0  0  0  0  0
    8.7563    0.9064   26.4788 H   0  0  0  0  0  0  0  0  0  0  0  0
    9.3755    0.5355   24.8588 H   0  0  0  0  0  0  0  0  0  0  0  0
    5.9204   -0.9569   24.7551 H   0  0  0  0  0  0  0  0  0  0  0  0
    6.6077   -2.3429   26.6915 H   0  0  0  0  0  0  0  0  0  0  0  0
    7.9629   -1.2619   27.0464 H   0  0  0  0  0  0  0  0  0  0  0  0
    6.2902   -0.6788   27.2419 H   0  0  0  0  0  0  0  0  0  0  0  0
  1  2  1  0
  2  3  1  0
  3  4  1  0
  4  5  2  0
  5  6  1  0
  6  7  1  0
  7  8  2  0
  8  9  1  0
  9 10  2  0
 10 11  1  0
 11 12  2  0
 12 13  1  0
 10 14  1  0
  9 15  1  0
  8 16  1  0
  6 17  2  0
 17 18  1  0
 18 19  1  0
 19 20  1  0
 20 21  1  0
 20 22  1  0
 20 23  1  0
 19 24  1  0
 19 25  1  0
  3 26  1  0
  3 27  1  0
  2 28  1  0
 28 29  1  0
 29 30  1  0
 30 31  1  0
 31 32  2  0
 32 33  1  0
 33 34  2  0
 34 35  1  0
 35 36  2  0
 35 37  1  0
 34 38  1  0
 33 39  1  0
 32 40  1  0
 30 41  1  0
 30 42  1  0
 29 43  1  0
 29 44  1  0
  2 45  1  0
  1 46  1  0
  1 47  1  0
  1 48  1  0
 18  4  1  0
 36 28  1  0
 12  7  1  0
 36 31  1  0
M  END
>  <cnnaffinity>  (1) 
-6.23439

>  <filename>  (1) 
CC(Cc1nc(-c2cccnc2)nn1CC(F)F)N1CCc2ccccc21

$$$$
