
     RDKit          3D

 42 44  0  0  0  0  0  0  0  0999 V2000
    6.7271   -3.0085   24.4949 C   0  0  0  0  0  0  0  0  0  0  0  0
    7.7702   -1.8903   24.2915 C   0  0  0  0  0  0  0  0  0  0  0  0
    7.5040   -0.6710   25.2049 C   0  0  0  0  0  0  0  0  0  0  0  0
    8.6335    0.3160   25.2108 C   0  0  0  0  0  0  0  0  0  0  0  0
    9.7931    0.3698   25.9537 C   0  0  0  0  0  0  0  0  0  0  0  0
   10.6066    1.3870   25.5203 N   0  0  0  0  0  0  0  0  0  0  0  0
    9.9656    1.9505   24.5298 C   0  0  0  0  0  0  0  0  0  0  0  0
    8.7609    1.3506   24.3051 N   0  0  0  0  0  0  0  0  0  0  0  0
    8.1595    1.4998   23.5072 H   0  0  0  0  0  0  0  0  0  0  0  0
   10.3319    2.7769   23.9325 H   0  0  0  0  0  0  0  0  0  0  0  0
   10.1016   -0.2779   26.7681 H   0  0  0  0  0  0  0  0  0  0  0  0
    6.5609   -0.2035   24.8956 H   0  0  0  0  0  0  0  0  0  0  0  0
    7.3543   -1.0347   26.2258 H   0  0  0  0  0  0  0  0  0  0  0  0
    7.8324   -1.4382   22.8573 C   0  0  0  0  0  0  0  0  0  0  0  0
    6.9677   -0.6454   22.2478 N   0  0  0  0  0  0  0  0  0  0  0  0
    7.3717   -0.6782   20.9520 C   0  0  0  0  0  0  0  0  0  0  0  0
    6.6517    0.0199   19.9018 C   0  0  0  0  0  0  0  0  0  0  0  0
    5.4316    0.6600   20.1574 C   0  0  0  0  0  0  0  0  0  0  0  0
    4.8064    1.3066   19.0995 C   0  0  0  0  0  0  0  0  0  0  0  0
    5.4161    1.2821   17.8394 C   0  0  0  0  0  0  0  0  0  0  0  0
    6.5780    0.6613   17.5866 N   0  0  0  0  0  0  0  0  0  0  0  0
    7.1838    0.0489   18.6064 C   0  0  0  0  0  0  0  0  0  0  0  0
    8.1353   -0.4355   18.3819 H   0  0  0  0  0  0  0  0  0  0  0  0
    4.9540    1.7847   16.9948 H   0  0  0  0  0  0  0  0  0  0  0  0
    3.8732    1.8398   19.2389 H   0  0  0  0  0  0  0  0  0  0  0  0
    4.9932    0.6486   21.1583 H   0  0  0  0  0  0  0  0  0  0  0  0
    8.4514   -1.3978   20.7376 N   0  0  0  0  0  0  0  0  0  0  0  0
    8.7517   -1.8723   21.9667 N   0  0  0  0  0  0  0  0  0  0  0  0
   10.0173   -2.5388   22.1874 C   0  0  0  0  0  0  0  0  0  0  0  0
   11.1341   -1.7035   22.8187 C   0  0  0  0  0  0  0  0  0  0  0  0
   11.6515   -0.5586   21.9836 C   0  0  0  0  0  0  0  0  0  0  0  0
   10.7606    0.4146   21.7363 F   0  0  0  0  0  0  0  0  0  0  0  0
   12.7046    0.0224   22.5901 F   0  0  0  0  0  0  0  0  0  0  0  0
   12.0827   -1.0322   20.7980 F   0  0  0  0  0  0  0  0  0  0  0  0
   11.9894   -2.3776   22.8876 H   0  0  0  0  0  0  0  0  0  0  0  0
   10.9011   -1.3258   23.8173 H   0  0  0  0  0  0  0  0  0  0  0  0
    9.8457   -3.4296   22.8028 H   0  0  0  0  0  0  0  0  0  0  0  0
   10.3224   -2.8430   21.1890 H   0  0  0  0  0  0  0  0  0  0  0  0
    8.7545   -2.2897   24.5710 H   0  0  0  0  0  0  0  0  0  0  0  0
    5.7231   -2.6547   24.2315 H   0  0  0  0  0  0  0  0  0  0  0  0
    6.9471   -3.8870   23.8755 H   0  0  0  0  0  0  0  0  0  0  0  0
    6.7104   -3.3356   25.5408 H   0  0  0  0  0  0  0  0  0  0  0  0
  1  2  1  0
  2  3  1  0
  3  4  1  0
  4  5  2  0
  5  6  1  0
  6  7  2  0
  7  8  1  0
  8  9  1  0
  7 10  1  0
  5 11  1  0
  3 12  1  0
  3 13  1  0
  2 14  1  0
 14 15  2  0
 15 16  1  0
 16 17  1  0
 17 18  2  0
 18 19  1  0
 19 20  2  0
 20 21  1  0
 21 22  2  0
 22 23  1  0
 20 24  1  0
 19 25  1  0
 18 26  1  0
 16 27  2  0
 27 28  1  0
 28 29  1  0
 29 30  1  0
 30 31  1  0
 31 32  1  0
 31 33  1  0
 31 34  1  0
 30 35  1  0
 30 36  1  0
 29 37  1  0
 29 38  1  0
  2 39  1  0
  1 40  1  0
  1 41  1  0
  1 42  1  0
  8  4  1  0
 28 14  1  0
 22 17  1  0
M  END
>  <cnnaffinity>  (1) 
-6.37827

>  <filename>  (1) 
CC(Cc1cnc[nH]1)c1nc(-c2cccnc2)nn1CCC(F)(F)F

$$$$
