
     RDKit          3D

 46 50  0  0  0  0  0  0  0  0999 V2000
    8.3578    2.1694   25.4339 C   0  0  0  0  0  0  0  0  0  0  0  0
    8.7306    2.8568   24.1264 C   0  0  0  0  0  0  0  0  0  0  0  0
    7.8540    4.0293   23.7044 C   0  0  0  0  0  0  0  0  0  0  0  0
    6.3790    3.8731   23.4759 C   0  0  0  0  0  0  0  0  0  0  0  0
    6.8856    4.7172   24.6170 C   0  0  0  0  0  0  0  0  0  0  0  0
    6.8102    5.7981   24.5294 H   0  0  0  0  0  0  0  0  0  0  0  0
    6.7675    4.3521   25.6353 H   0  0  0  0  0  0  0  0  0  0  0  0
    5.9421    4.3572   22.6044 H   0  0  0  0  0  0  0  0  0  0  0  0
    5.9408    2.9007   23.6947 H   0  0  0  0  0  0  0  0  0  0  0  0
    8.3421    4.6984   22.9975 H   0  0  0  0  0  0  0  0  0  0  0  0
    8.7966    1.8738   23.0412 N   0  0  0  0  0  0  0  0  0  0  0  0
    7.7327    1.0954   22.7276 N   0  0  0  0  0  0  0  0  0  0  0  0
    8.2099    0.3276   21.7659 C   0  0  0  0  0  0  0  0  0  0  0  0
    7.3863   -0.6763   21.0190 C   0  0  0  0  0  0  0  0  0  0  0  0
    6.6229   -0.0327   19.8624 C   0  0  0  0  0  0  0  0  0  0  0  0
    5.4200    0.6418   20.1120 C   0  0  0  0  0  0  0  0  0  0  0  0
    4.7880    1.3129   19.0636 C   0  0  0  0  0  0  0  0  0  0  0  0
    5.3892    1.3019   17.8031 C   0  0  0  0  0  0  0  0  0  0  0  0
    6.5422    0.6696   17.5385 N   0  0  0  0  0  0  0  0  0  0  0  0
    7.1377    0.0285   18.5525 C   0  0  0  0  0  0  0  0  0  0  0  0
    8.0894   -0.4493   18.3097 H   0  0  0  0  0  0  0  0  0  0  0  0
    4.9346    1.8340   16.9714 H   0  0  0  0  0  0  0  0  0  0  0  0
    3.8610    1.8552   19.2122 H   0  0  0  0  0  0  0  0  0  0  0  0
    5.0027    0.6589   21.1206 H   0  0  0  0  0  0  0  0  0  0  0  0
    6.7018   -1.1420   21.7388 H   0  0  0  0  0  0  0  0  0  0  0  0
    8.0911   -1.4432   20.6769 H   0  0  0  0  0  0  0  0  0  0  0  0
    9.5068    0.5458   21.4505 N   0  0  0  0  0  0  0  0  0  0  0  0
    9.8463    1.5303   22.2629 C   0  0  0  0  0  0  0  0  0  0  0  0
   11.1553    2.1717   22.3587 C   0  0  0  0  0  0  0  0  0  0  0  0
   11.2908    3.5272   22.2692 C   0  0  0  0  0  0  0  0  0  0  0  0
   12.5324    4.0915   22.2812 N   0  0  0  0  0  0  0  0  0  0  0  0
   13.7332    3.4270   22.5138 C   0  0  0  0  0  0  0  0  0  0  0  0
   14.7319    4.1205   22.5793 O   0  0  0  0  0  0  0  0  0  0  0  0
   13.5918    1.9654   22.5930 C   0  0  0  0  0  0  0  0  0  0  0  0
   12.3373    1.3740   22.5000 C   0  0  0  0  0  0  0  0  0  0  0  0
   12.4583   -0.3477   22.5513 S   0  0  0  0  0  0  0  0  0  0  0  0
   14.1821   -0.2643   22.5897 C   0  0  0  0  0  0  0  0  0  0  0  0
   14.6462    1.0092   22.5734 C   0  0  0  0  0  0  0  0  0  0  0  0
   15.6715    1.3198   22.4115 H   0  0  0  0  0  0  0  0  0  0  0  0
   14.7365   -1.1912   22.6180 H   0  0  0  0  0  0  0  0  0  0  0  0
   12.7419    5.0608   22.1018 H   0  0  0  0  0  0  0  0  0  0  0  0
   10.4270    4.1930   22.2100 H   0  0  0  0  0  0  0  0  0  0  0  0
    9.7381    3.2478   24.2563 H   0  0  0  0  0  0  0  0  0  0  0  0
    7.3388    1.7773   25.3885 H   0  0  0  0  0  0  0  0  0  0  0  0
    9.0382    1.3359   25.6198 H   0  0  0  0  0  0  0  0  0  0  0  0
    8.4409    2.8734   26.2647 H   0  0  0  0  0  0  0  0  0  0  0  0
  1  2  1  0
  2  3  1  0
  3  4  1  0
  4  5  1  0
  5  6  1  0
  5  7  1  0
  4  8  1  0
  4  9  1  0
  3 10  1  0
  2 11  1  0
 11 12  1  0
 12 13  2  0
 13 14  1  0
 14 15  1  0
 15 16  2  0
 16 17  1  0
 17 18  2  0
 18 19  1  0
 19 20  2  0
 20 21  1  0
 18 22  1  0
 17 23  1  0
 16 24  1  0
 14 25  1  0
 14 26  1  0
 13 27  1  0
 27 28  2  0
 28 29  1  0
 29 30  2  0
 30 31  1  0
 31 32  1  0
 32 33  2  0
 32 34  1  0
 34 35  2  0
 35 36  1  0
 36 37  1  0
 37 38  2  0
 38 39  1  0
 37 40  1  0
 31 41  1  0
 30 42  1  0
  2 43  1  0
  1 44  1  0
  1 45  1  0
  1 46  1  0
  5  3  1  0
 28 11  1  0
 35 29  1  0
 20 15  1  0
 38 34  1  0
M  END
>  <cnnaffinity>  (1) 
-6.83909

>  <filename>  (1) 
CC(C1CC1)n1nc(Cc2cccnc2)nc1-c1c[nH]c(=O)c2ccsc12

$$$$
