
     RDKit          3D

 47 48  0  0  0  0  0  0  0  0999 V2000
    6.7692   -1.6973   21.6364 C   0  0  0  0  0  0  0  0  0  0  0  0
    7.5930   -0.5088   21.1025 C   0  0  0  0  0  0  0  0  0  0  0  0
    8.9768   -1.0314   20.6767 C   0  0  0  0  0  0  0  0  0  0  0  0
    8.9246   -1.7131   19.8290 H   0  0  0  0  0  0  0  0  0  0  0  0
    9.6477   -0.2059   20.4140 H   0  0  0  0  0  0  0  0  0  0  0  0
    9.4352   -1.5884   21.4980 H   0  0  0  0  0  0  0  0  0  0  0  0
    7.7972    0.5677   22.2234 C   0  0  0  0  0  0  0  0  0  0  0  0
    8.5057    0.1150   23.4319 N   0  0  0  0  0  4  0  0  0  0  0  0
    9.8167   -0.1480   23.4742 C   0  0  0  0  0  0  0  0  0  0  0  0
   10.2393   -1.1349   24.2907 N   0  0  0  0  0  0  0  0  0  0  0  0
   11.2125   -1.0972   24.5562 H   0  0  0  0  0  0  0  0  0  0  0  0
    9.6489   -1.3124   25.0877 H   0  0  0  0  0  0  0  0  0  0  0  0
   10.7151    0.4563   22.6801 N   0  0  0  0  0  0  0  0  0  0  0  0
   10.8051    1.9188   22.5601 C   0  0  0  0  0  0  0  0  0  0  0  0
   11.8561    2.4126   23.5585 C   0  0  0  0  0  0  0  0  0  0  0  0
   12.0336    3.9065   23.6199 C   0  0  0  0  0  0  0  0  0  0  0  0
   11.1751    4.6943   24.4020 C   0  0  0  0  0  0  0  0  0  0  0  0
   11.3892    6.0692   24.5416 C   0  0  0  0  0  0  0  0  0  0  0  0
   12.4792    6.6689   23.8991 C   0  0  0  0  0  0  0  0  0  0  0  0
   13.3065    5.9053   23.0688 C   0  0  0  0  0  0  0  0  0  0  0  0
   13.0670    4.5365   22.9150 C   0  0  0  0  0  0  0  0  0  0  0  0
   13.6929    3.9491   22.2470 H   0  0  0  0  0  0  0  0  0  0  0  0
   14.1414    6.3700   22.5461 H   0  0  0  0  0  0  0  0  0  0  0  0
   12.6853    7.7264   24.0379 H   0  0  0  0  0  0  0  0  0  0  0  0
   10.7146    6.6667   25.1538 H   0  0  0  0  0  0  0  0  0  0  0  0
   10.3364    4.2235   24.9111 H   0  0  0  0  0  0  0  0  0  0  0  0
   11.5695    2.0500   24.5569 H   0  0  0  0  0  0  0  0  0  0  0  0
   12.8157    1.9338   23.3149 H   0  0  0  0  0  0  0  0  0  0  0  0
    9.8349    2.3876   22.7665 H   0  0  0  0  0  0  0  0  0  0  0  0
   11.0814    2.1917   21.5311 H   0  0  0  0  0  0  0  0  0  0  0  0
   11.6225    0.0318   22.7958 H   0  0  0  0  0  0  0  0  0  0  0  0
    7.9863   -0.5850   23.9439 H   0  0  0  0  0  0  0  0  0  0  0  0
    8.3156    1.4152   21.7643 H   0  0  0  0  0  0  0  0  0  0  0  0
    6.8148    0.9393   22.5352 H   0  0  0  0  0  0  0  0  0  0  0  0
    6.8137    0.1375   19.9379 C   0  0  0  0  0  0  0  0  0  0  0  0
    5.5578    0.7379   20.1441 C   0  0  0  0  0  0  0  0  0  0  0  0
    4.8880    1.3281   19.0698 C   0  0  0  0  0  0  0  0  0  0  0  0
    5.4824    1.2908   17.8042 C   0  0  0  0  0  0  0  0  0  0  0  0
    6.6596    0.7016   17.5694 N   0  0  0  0  0  0  0  0  0  0  0  0
    7.2881    0.1410   18.6124 C   0  0  0  0  0  0  0  0  0  0  0  0
    8.2378   -0.3383   18.3829 H   0  0  0  0  0  0  0  0  0  0  0  0
    5.0018    1.7559   16.9453 H   0  0  0  0  0  0  0  0  0  0  0  0
    3.9289    1.8174   19.1916 H   0  0  0  0  0  0  0  0  0  0  0  0
    5.0947    0.7552   21.1353 H   0  0  0  0  0  0  0  0  0  0  0  0
    5.8245   -1.3582   22.0638 H   0  0  0  0  0  0  0  0  0  0  0  0
    6.5272   -2.3980   20.8283 H   0  0  0  0  0  0  0  0  0  0  0  0
    7.3111   -2.2431   22.4154 H   0  0  0  0  0  0  0  0  0  0  0  0
  1  2  1  0
  2  3  1  0
  3  4  1  0
  3  5  1  0
  3  6  1  0
  2  7  1  0
  7  8  1  0
  8  9  2  3
  9 10  1  0
 10 11  1  0
 10 12  1  0
  9 13  1  0
 13 14  1  0
 14 15  1  0
 15 16  1  0
 16 17  2  0
 17 18  1  0
 18 19  2  0
 19 20  1  0
 20 21  2  0
 21 22  1  0
 20 23  1  0
 19 24  1  0
 18 25  1  0
 17 26  1  0
 15 27  1  0
 15 28  1  0
 14 29  1  0
 14 30  1  0
 13 31  1  0
  8 32  1  0
  7 33  1  0
  7 34  1  0
  2 35  1  0
 35 36  2  0
 36 37  1  0
 37 38  2  0
 38 39  1  0
 39 40  2  0
 40 41  1  0
 38 42  1  0
 37 43  1  0
 36 44  1  0
  1 45  1  0
  1 46  1  0
  1 47  1  0
 21 16  1  0
 40 35  1  0
M  CHG  1   8   1
M  END
>  <cnnaffinity>  (1) 
-5.00601

>  <filename>  (1) 
CC(C)(C[NH+]=C(N)NCCc1ccccc1)c1cccnc1

$$$$
