
     RDKit          3D

 37 38  0  0  0  0  0  0  0  0999 V2000
    7.7792    0.5564   24.0492 C   0  0  0  0  0  0  0  0  0  0  0  0
    7.2885   -0.8713   24.3030 C   0  0  0  0  0  0  0  0  0  0  0  0
    7.5837   -1.8435   23.0981 C   0  0  0  0  0  0  0  0  0  0  0  0
    6.8036   -1.6087   21.7786 C   0  0  0  0  0  0  0  0  0  0  0  0
    5.7750   -2.1988   21.5226 O   0  0  0  0  0  0  0  0  0  0  0  0
    7.4048   -0.7311   20.8928 N   0  0  0  0  0  0  0  0  0  0  0  0
    6.7106   -0.0244   19.8453 C   0  0  0  0  0  0  0  0  0  0  0  0
    5.4730    0.5965   20.0720 C   0  0  0  0  0  0  0  0  0  0  0  0
    4.8523    1.2818   19.0178 C   0  0  0  0  0  0  0  0  0  0  0  0
    5.4803    1.3097   17.7694 C   0  0  0  0  0  0  0  0  0  0  0  0
    6.6650    0.7206   17.5323 N   0  0  0  0  0  0  0  0  0  0  0  0
    7.2626    0.0850   18.5496 C   0  0  0  0  0  0  0  0  0  0  0  0
    8.2231   -0.3832   18.3353 H   0  0  0  0  0  0  0  0  0  0  0  0
    5.0280    1.8338   16.9294 H   0  0  0  0  0  0  0  0  0  0  0  0
    3.9106    1.8054   19.1573 H   0  0  0  0  0  0  0  0  0  0  0  0
    5.0180    0.5474   21.0605 H   0  0  0  0  0  0  0  0  0  0  0  0
    8.2524   -0.3108   21.2521 H   0  0  0  0  0  0  0  0  0  0  0  0
    7.3098   -2.8533   23.4161 H   0  0  0  0  0  0  0  0  0  0  0  0
    8.6683   -1.8526   22.9022 H   0  0  0  0  0  0  0  0  0  0  0  0
    7.9411   -1.6031   25.8889 S   0  0  0  0  0  0  0  0  0  0  0  0
    9.3988   -1.4987   25.8544 O   0  0  0  0  0  0  0  0  0  0  0  0
    7.2682   -2.8919   26.0366 O   0  0  0  0  0  0  0  0  0  0  0  0
    7.3414   -0.5691   27.2180 C   0  0  0  0  0  0  0  0  0  0  0  0
    6.0382   -0.7309   27.7122 C   0  0  0  0  0  0  0  0  0  0  0  0
    5.6129    0.0609   28.7805 C   0  0  0  0  0  0  0  0  0  0  0  0
    6.5013    0.9725   29.3478 C   0  0  0  0  0  0  0  0  0  0  0  0
    6.1005    1.7209   30.3901 F   0  0  0  0  0  0  0  0  0  0  0  0
    7.8014    1.1271   28.8754 C   0  0  0  0  0  0  0  0  0  0  0  0
    8.2173    0.3584   27.7893 C   0  0  0  0  0  0  0  0  0  0  0  0
    9.2186    0.4664   27.3770 H   0  0  0  0  0  0  0  0  0  0  0  0
    8.4639    1.8275   29.3717 H   0  0  0  0  0  0  0  0  0  0  0  0
    4.6093   -0.0085   29.1872 H   0  0  0  0  0  0  0  0  0  0  0  0
    5.3521   -1.4606   27.2802 H   0  0  0  0  0  0  0  0  0  0  0  0
    6.2107   -0.8849   24.5143 H   0  0  0  0  0  0  0  0  0  0  0  0
    7.2603    0.9676   23.1740 H   0  0  0  0  0  0  0  0  0  0  0  0
    8.8600    0.6017   23.8570 H   0  0  0  0  0  0  0  0  0  0  0  0
    7.5577    1.2114   24.8996 H   0  0  0  0  0  0  0  0  0  0  0  0
  1  2  1  0
  2  3  1  0
  3  4  1  0
  4  5  2  0
  4  6  1  0
  6  7  1  0
  7  8  2  0
  8  9  1  0
  9 10  2  0
 10 11  1  0
 11 12  2  0
 12 13  1  0
 10 14  1  0
  9 15  1  0
  8 16  1  0
  6 17  1  0
  3 18  1  0
  3 19  1  0
  2 20  1  0
 20 21  2  0
 20 22  2  0
 20 23  1  0
 23 24  2  0
 24 25  1  0
 25 26  2  0
 26 27  1  0
 26 28  1  0
 28 29  2  0
 29 30  1  0
 28 31  1  0
 25 32  1  0
 24 33  1  0
  2 34  1  0
  1 35  1  0
  1 36  1  0
  1 37  1  0
 12  7  1  0
 29 23  1  0
M  END
>  <cnnaffinity>  (1) 
-5.30926

>  <filename>  (1) 
CC(CC(=O)Nc1cccnc1)S(=O)(=O)c1ccc(F)cc1

$$$$
