
     RDKit          3D

 38 39  0  0  0  0  0  0  0  0999 V2000
    4.9122    1.8242   17.0199 H   0  0  0  0  0  0  0  0  0  0  0  0
    5.3908    1.2773   17.8291 C   0  0  0  0  0  0  0  0  0  0  0  0
    6.5354    0.6418   17.5317 N   0  0  0  0  0  0  0  0  0  0  0  0
    7.1653   -0.0053   18.5283 C   0  0  0  0  0  0  0  0  0  0  0  0
    8.1037   -0.4824   18.2482 H   0  0  0  0  0  0  0  0  0  0  0  0
    6.6967   -0.0574   19.8734 C   0  0  0  0  0  0  0  0  0  0  0  0
    7.3134   -0.6852   20.9660 N   0  0  0  0  0  0  0  0  0  0  0  0
    6.7707   -0.5697   21.8144 H   0  0  0  0  0  0  0  0  0  0  0  0
    8.6987   -0.5686   21.3648 C   0  0  0  0  0  0  0  0  0  0  0  0
    8.6707   -0.7319   22.7959 N   0  0  0  0  0  0  0  0  0  0  0  0
    9.3672   -1.3340   23.1955 H   0  0  0  0  0  0  0  0  0  0  0  0
    8.0123   -0.0343   23.7140 C   0  0  0  0  0  0  0  0  0  0  0  0
    7.0677    1.3099   23.5008 S   0  0  0  0  0  0  0  0  0  0  0  0
    8.1864   -0.5275   24.9832 N   0  0  0  0  0  0  0  0  0  0  0  0
    7.6731    0.0656   25.6192 H   0  0  0  0  0  0  0  0  0  0  0  0
    8.2063   -1.9081   25.3307 C   0  0  0  0  0  0  0  0  0  0  0  0
    7.7962   -2.9116   24.4391 C   0  0  0  0  0  0  0  0  0  0  0  0
    7.3612   -2.6421   23.4828 H   0  0  0  0  0  0  0  0  0  0  0  0
    7.9166   -4.2563   24.7845 C   0  0  0  0  0  0  0  0  0  0  0  0
    7.6288   -5.0172   24.0654 H   0  0  0  0  0  0  0  0  0  0  0  0
    8.4090   -4.6186   26.0409 C   0  0  0  0  0  0  0  0  0  0  0  0
    8.5143   -5.6668   26.3098 H   0  0  0  0  0  0  0  0  0  0  0  0
    8.7404   -3.6186   26.9589 C   0  0  0  0  0  0  0  0  0  0  0  0
    9.0633   -3.9157   27.9512 H   0  0  0  0  0  0  0  0  0  0  0  0
    8.6397   -2.2660   26.6151 C   0  0  0  0  0  0  0  0  0  0  0  0
    8.9030   -1.4846   27.3213 H   0  0  0  0  0  0  0  0  0  0  0  0
    9.3540    0.7577   21.0028 C   0  0  0  0  0  0  0  0  0  0  0  0
    9.4985    0.8138   19.9244 H   0  0  0  0  0  0  0  0  0  0  0  0
    8.7221    1.5847   21.3361 H   0  0  0  0  0  0  0  0  0  0  0  0
   10.3258    0.8327   21.4972 H   0  0  0  0  0  0  0  0  0  0  0  0
    9.4657   -1.7632   20.8239 C   0  0  0  0  0  0  0  0  0  0  0  0
    9.0331   -2.6808   21.2372 H   0  0  0  0  0  0  0  0  0  0  0  0
    9.3599   -1.7927   19.7425 H   0  0  0  0  0  0  0  0  0  0  0  0
   10.5307   -1.7029   21.0737 H   0  0  0  0  0  0  0  0  0  0  0  0
    5.4833    0.5950   20.1402 C   0  0  0  0  0  0  0  0  0  0  0  0
    5.1303    0.5996   21.1747 H   0  0  0  0  0  0  0  0  0  0  0  0
    4.8233    1.2654   19.1075 C   0  0  0  0  0  0  0  0  0  0  0  0
    3.8940    1.7927   19.2893 H   0  0  0  0  0  0  0  0  0  0  0  0
  1  2  1  0
  2  3  2  0
  3  4  1  0
  4  5  1  0
  4  6  2  0
  6  7  1  0
  7  8  1  0
  7  9  1  0
  9 10  1  0
 10 11  1  0
 10 12  1  0
 12 13  2  0
 12 14  1  0
 14 15  1  0
 14 16  1  0
 16 17  2  0
 17 18  1  0
 17 19  1  0
 19 20  1  0
 19 21  2  0
 21 22  1  0
 21 23  1  0
 23 24  1  0
 23 25  2  0
 25 26  1  0
  9 27  1  0
 27 28  1  0
 27 29  1  0
 27 30  1  0
  9 31  1  0
 31 32  1  0
 31 33  1  0
 31 34  1  0
  6 35  1  0
 35 36  1  0
 35 37  2  0
 37 38  1  0
 37  2  1  0
 25 16  1  0
M  END
>  <cnnaffinity>  (1) 
-4.74368

>  <filename>  (1) 
CC(C)(NC(=S)Nc1ccccc1)Nc1cccnc1

$$$$
