
     RDKit          3D

 49 52  0  0  0  0  0  0  0  0999 V2000
    9.0764    2.0045   25.4964 C   0  0  0  0  0  0  0  0  0  0  0  0
    8.8271    2.7697   24.1957 C   0  0  0  0  0  0  0  0  0  0  0  0
    7.5767    3.6435   24.1638 C   0  0  0  0  0  0  0  0  0  0  0  0
    7.6532    4.9171   25.0333 C   0  0  0  0  0  0  0  0  0  0  0  0
    7.4367    5.7974   23.7789 C   0  0  0  0  0  0  0  0  0  0  0  0
    7.3811    4.5280   22.8960 C   0  0  0  0  0  0  0  0  0  0  0  0
    8.1755    4.4598   22.1420 H   0  0  0  0  0  0  0  0  0  0  0  0
    6.4398    4.3544   22.3678 H   0  0  0  0  0  0  0  0  0  0  0  0
    8.2651    6.4764   23.5475 H   0  0  0  0  0  0  0  0  0  0  0  0
    6.5148    6.3846   23.7842 H   0  0  0  0  0  0  0  0  0  0  0  0
    6.8859    4.9787   25.8102 H   0  0  0  0  0  0  0  0  0  0  0  0
    8.6212    5.0709   25.5246 H   0  0  0  0  0  0  0  0  0  0  0  0
    6.6958    3.0238   24.3614 H   0  0  0  0  0  0  0  0  0  0  0  0
    8.8283    1.8661   23.0393 N   0  0  0  0  0  0  0  0  0  0  0  0
    7.7643    1.0865   22.7169 N   0  0  0  0  0  0  0  0  0  0  0  0
    8.2341    0.3477   21.7256 C   0  0  0  0  0  0  0  0  0  0  0  0
    7.3950   -0.6521   20.9754 C   0  0  0  0  0  0  0  0  0  0  0  0
    6.6338   -0.0266   19.8171 C   0  0  0  0  0  0  0  0  0  0  0  0
    5.4254    0.6345   20.0622 C   0  0  0  0  0  0  0  0  0  0  0  0
    4.8029    1.3131   19.0160 C   0  0  0  0  0  0  0  0  0  0  0  0
    5.4113    1.3009   17.7588 C   0  0  0  0  0  0  0  0  0  0  0  0
    6.5517    0.6455   17.4913 N   0  0  0  0  0  0  0  0  0  0  0  0
    7.1357   -0.0068   18.5046 C   0  0  0  0  0  0  0  0  0  0  0  0
    8.0585   -0.5437   18.2688 H   0  0  0  0  0  0  0  0  0  0  0  0
    4.9649    1.8384   16.9260 H   0  0  0  0  0  0  0  0  0  0  0  0
    3.8740    1.8490   19.1663 H   0  0  0  0  0  0  0  0  0  0  0  0
    5.0034    0.6170   21.0685 H   0  0  0  0  0  0  0  0  0  0  0  0
    6.6922   -1.1039   21.6861 H   0  0  0  0  0  0  0  0  0  0  0  0
    8.0706   -1.4390   20.6210 H   0  0  0  0  0  0  0  0  0  0  0  0
    9.5285    0.5889   21.4003 N   0  0  0  0  0  0  0  0  0  0  0  0
    9.8786    1.5386   22.2485 C   0  0  0  0  0  0  0  0  0  0  0  0
   11.1641    2.2054   22.3584 C   0  0  0  0  0  0  0  0  0  0  0  0
   11.3786    3.5718   22.3548 C   0  0  0  0  0  0  0  0  0  0  0  0
   12.6853    4.1002   22.4914 C   0  0  0  0  0  0  0  0  0  0  0  0
   13.7328    3.2410   22.6554 C   0  0  0  0  0  0  0  0  0  0  0  0
   13.5392    1.8816   22.6436 N   0  0  0  0  0  0  0  0  0  0  0  0
   14.6716    0.9565   22.6785 C   0  0  0  0  0  0  0  0  0  0  0  0
   14.5263    0.1723   21.9343 H   0  0  0  0  0  0  0  0  0  0  0  0
   14.7394    0.4623   23.6505 H   0  0  0  0  0  0  0  0  0  0  0  0
   15.5864    1.4995   22.4392 H   0  0  0  0  0  0  0  0  0  0  0  0
   12.2632    1.2810   22.5420 C   0  0  0  0  0  0  0  0  0  0  0  0
   12.1577    0.0685   22.6578 O   0  0  0  0  0  0  0  0  0  0  0  0
   14.7595    3.5872   22.7784 H   0  0  0  0  0  0  0  0  0  0  0  0
   12.8573    5.1722   22.4752 H   0  0  0  0  0  0  0  0  0  0  0  0
   10.5497    4.2724   22.2631 H   0  0  0  0  0  0  0  0  0  0  0  0
    9.6825    3.4355   24.0652 H   0  0  0  0  0  0  0  0  0  0  0  0
    9.1175    2.6813   26.3577 H   0  0  0  0  0  0  0  0  0  0  0  0
   10.0461    1.4976   25.4303 H   0  0  0  0  0  0  0  0  0  0  0  0
    8.3065    1.2479   25.6775 H   0  0  0  0  0  0  0  0  0  0  0  0
  1  2  1  0
  2  3  1  0
  3  4  1  0
  4  5  1  0
  5  6  1  0
  6  7  1  0
  6  8  1  0
  5  9  1  0
  5 10  1  0
  4 11  1  0
  4 12  1  0
  3 13  1  0
  2 14  1  0
 14 15  1  0
 15 16  2  0
 16 17  1  0
 17 18  1  0
 18 19  2  0
 19 20  1  0
 20 21  2  0
 21 22  1  0
 22 23  2  0
 23 24  1  0
 21 25  1  0
 20 26  1  0
 19 27  1  0
 17 28  1  0
 17 29  1  0
 16 30  1  0
 30 31  2  0
 31 32  1  0
 32 33  2  0
 33 34  1  0
 34 35  2  0
 35 36  1  0
 36 37  1  0
 37 38  1  0
 37 39  1  0
 37 40  1  0
 36 41  1  0
 41 42  2  0
 35 43  1  0
 34 44  1  0
 33 45  1  0
  2 46  1  0
  1 47  1  0
  1 48  1  0
  1 49  1  0
  6  3  1  0
 31 14  1  0
 41 32  1  0
 23 18  1  0
M  END
>  <cnnaffinity>  (1) 
-6.29722

>  <filename>  (1) 
CC(C1CCC1)n1nc(Cc2cccnc2)nc1-c1cccn(C)c1=O

$$$$
