
     RDKit          3D

 48 52  0  0  0  0  0  0  0  0999 V2000
    9.5096    2.2333   25.3530 C   0  0  0  0  0  0  0  0  0  0  0  0
    8.8836    2.8230   24.0819 C   0  0  0  0  0  0  0  0  0  0  0  0
    9.4936    4.1706   23.6438 C   0  0  0  0  0  0  0  0  0  0  0  0
   10.7182    4.6778   24.0981 C   0  0  0  0  0  0  0  0  0  0  0  0
   11.1910    5.8920   23.5915 C   0  0  0  0  0  0  0  0  0  0  0  0
   10.5243    6.6182   22.6858 N   0  0  0  0  0  0  0  0  0  0  0  0
    9.3712    6.1277   22.2303 C   0  0  0  0  0  0  0  0  0  0  0  0
    8.8150    4.9277   22.6771 C   0  0  0  0  0  0  0  0  0  0  0  0
    7.8872    4.5782   22.2377 H   0  0  0  0  0  0  0  0  0  0  0  0
    8.8731    6.7221   21.4646 H   0  0  0  0  0  0  0  0  0  0  0  0
   12.1355    6.3210   23.9352 H   0  0  0  0  0  0  0  0  0  0  0  0
   11.3270    4.1540   24.8230 H   0  0  0  0  0  0  0  0  0  0  0  0
    8.8958    1.8290   22.9813 N   0  0  0  0  0  0  0  0  0  0  0  0
    7.8423    1.0028   22.7619 N   0  0  0  0  0  0  0  0  0  0  0  0
    8.2371    0.2947   21.7227 C   0  0  0  0  0  0  0  0  0  0  0  0
    7.3809   -0.6964   21.0159 C   0  0  0  0  0  0  0  0  0  0  0  0
    6.6230   -0.0345   19.8764 C   0  0  0  0  0  0  0  0  0  0  0  0
    5.4270    0.6416   20.1347 C   0  0  0  0  0  0  0  0  0  0  0  0
    4.7936    1.3150   19.0885 C   0  0  0  0  0  0  0  0  0  0  0  0
    5.3893    1.3010   17.8237 C   0  0  0  0  0  0  0  0  0  0  0  0
    6.5513    0.6837   17.5604 N   0  0  0  0  0  0  0  0  0  0  0  0
    7.1492    0.0470   18.5751 C   0  0  0  0  0  0  0  0  0  0  0  0
    8.1115   -0.4175   18.3509 H   0  0  0  0  0  0  0  0  0  0  0  0
    4.9165    1.8032   16.9816 H   0  0  0  0  0  0  0  0  0  0  0  0
    3.8663    1.8532   19.2416 H   0  0  0  0  0  0  0  0  0  0  0  0
    5.0173    0.6409   21.1468 H   0  0  0  0  0  0  0  0  0  0  0  0
    8.0380   -1.4899   20.6451 H   0  0  0  0  0  0  0  0  0  0  0  0
    6.6987   -1.1200   21.7563 H   0  0  0  0  0  0  0  0  0  0  0  0
    9.4711    0.5879   21.2539 N   0  0  0  0  0  0  0  0  0  0  0  0
    9.8613    1.5423   22.0786 C   0  0  0  0  0  0  0  0  0  0  0  0
   11.1482    2.1881   22.0255 C   0  0  0  0  0  0  0  0  0  0  0  0
   11.4639    2.9867   20.9584 C   0  0  0  0  0  0  0  0  0  0  0  0
   12.6333    3.7645   21.0694 C   0  0  0  0  0  0  0  0  0  0  0  0
   13.5157    3.4958   22.1223 C   0  0  0  0  0  0  0  0  0  0  0  0
   14.8671    4.0827   22.0121 N   0  0  0  0  0  0  0  0  0  0  0  0
   14.8672    4.0825   22.0119 N   0  0  0  0  0  0  0  0  0  0  0  0
   13.4864    2.3377   23.1349 C   0  0  0  0  0  0  0  0  0  0  0  0
   13.5421    2.4555   23.1639 C   0  0  0  0  0  0  0  0  0  0  0  0
   12.2079    1.8521   23.1462 C   0  0  0  0  0  0  0  0  0  0  0  0
   12.2001    0.8093   23.2711 H   0  0  0  0  0  0  0  0  0  0  0  0
   14.4953    1.9072   23.6078 H   0  0  0  0  0  0  0  0  0  0  0  0
   14.5679    4.8035   21.2311 H   0  0  0  0  0  0  0  0  0  0  0  0
   12.8101    4.5666   20.3226 H   0  0  0  0  0  0  0  0  0  0  0  0
   10.8638    3.0191   20.0655 H   0  0  0  0  0  0  0  0  0  0  0  0
    7.8151    2.9888   24.2454 H   0  0  0  0  0  0  0  0  0  0  0  0
    8.9657    1.3355   25.6540 H   0  0  0  0  0  0  0  0  0  0  0  0
   10.5591    1.9569   25.1848 H   0  0  0  0  0  0  0  0  0  0  0  0
    9.4705    2.9703   26.1587 H   0  0  0  0  0  0  0  0  0  0  0  0
  1  2  1  0
  2  3  1  0
  3  4  2  0
  4  5  1  0
  5  6  2  0
  6  7  1  0
  7  8  2  0
  8  9  1  0
  7 10  1  0
  5 11  1  0
  4 12  1  0
  2 13  1  0
 13 14  1  0
 14 15  2  0
 15 16  1  0
 16 17  1  0
 17 18  2  0
 18 19  1  0
 19 20  2  0
 20 21  1  0
 21 22  2  0
 22 23  1  0
 20 24  1  0
 19 25  1  0
 18 26  1  0
 16 27  1  0
 16 28  1  0
 15 29  1  0
 29 30  2  0
 30 31  1  0
 31 32  2  0
 32 33  1  0
 33 34  2  0
 34 35  1  0
 35 36  1  0
 36 37  2  0
 37 38  1  0
 38 39  2  0
 39 40  1  0
 37 41  1  0
 35 42  1  0
 33 43  1  0
 32 44  1  0
  2 45  1  0
  1 46  1  0
  1 47  1  0
  1 48  1  0
  8  3  1  0
 30 13  1  0
 39 31  1  0
 22 17  1  0
 38 34  1  0
M  END
>  <cnnaffinity>  (1) 
-6.18593

>  <filename>  (1) 
CC(c1ccncc1)n1nc(Cc2cccnc2)nc1-c1ccc2[nH]ncc2c1

$$$$
