
     RDKit          3D

 43 46  0  0  0  0  0  0  0  0999 V2000
    7.5842   -0.3000   24.8806 C   0  0  0  0  0  0  0  0  0  0  0  0
    7.2724   -1.6066   24.1313 C   0  0  0  0  0  0  0  0  0  0  0  0
    5.9520   -2.2034   24.6319 C   0  0  0  0  0  0  0  0  0  0  0  0
    5.5861   -2.9966   23.9749 H   0  0  0  0  0  0  0  0  0  0  0  0
    6.1019   -2.6286   25.6314 H   0  0  0  0  0  0  0  0  0  0  0  0
    5.1813   -1.4356   24.7402 H   0  0  0  0  0  0  0  0  0  0  0  0
    7.3217   -1.4169   22.6589 N   0  0  0  0  0  0  0  0  0  0  0  0
    6.3668   -0.7248   21.9874 N   0  0  0  0  0  0  0  0  0  0  0  0
    6.8622   -0.6152   20.7702 C   0  0  0  0  0  0  0  0  0  0  0  0
    6.2315    0.1149   19.6717 C   0  0  0  0  0  0  0  0  0  0  0  0
    5.0498    0.8664   19.7967 C   0  0  0  0  0  0  0  0  0  0  0  0
    4.6058    1.5713   18.6800 C   0  0  0  0  0  0  0  0  0  0  0  0
    5.3398    1.4957   17.4908 C   0  0  0  0  0  0  0  0  0  0  0  0
    6.4552    0.7644   17.3554 N   0  0  0  0  0  0  0  0  0  0  0  0
    6.8858    0.0999   18.4305 C   0  0  0  0  0  0  0  0  0  0  0  0
    7.8005   -0.4747   18.3052 H   0  0  0  0  0  0  0  0  0  0  0  0
    5.0209    2.0392   16.6052 H   0  0  0  0  0  0  0  0  0  0  0  0
    3.7130    2.1849   18.7118 H   0  0  0  0  0  0  0  0  0  0  0  0
    4.5072    0.8984   20.7438 H   0  0  0  0  0  0  0  0  0  0  0  0
    8.0830   -1.1958   20.6104 N   0  0  0  0  0  0  0  0  0  0  0  0
    8.3482   -1.6724   21.8065 C   0  0  0  0  0  0  0  0  0  0  0  0
    9.6397   -2.3358   22.1994 C   0  0  0  0  0  0  0  0  0  0  0  0
   10.4200   -1.5647   23.1541 N   0  0  0  0  0  0  0  0  0  0  0  0
   10.4223   -1.8054   24.5218 C   0  0  0  0  0  0  0  0  0  0  0  0
    9.9690   -2.7667   25.1129 O   0  0  0  0  0  0  0  0  0  0  0  0
   11.0402   -0.7159   25.0834 N   0  0  0  0  0  0  0  0  0  0  0  0
   11.5137    0.1558   24.1182 C   0  0  0  0  0  0  0  0  0  0  0  0
   12.3088    1.2920   24.1802 C   0  0  0  0  0  0  0  0  0  0  0  0
   12.5780    1.9536   22.9781 C   0  0  0  0  0  0  0  0  0  0  0  0
   12.0783    1.4763   21.7470 C   0  0  0  0  0  0  0  0  0  0  0  0
   11.3144    0.3055   21.6933 C   0  0  0  0  0  0  0  0  0  0  0  0
   11.0609   -0.3549   22.8897 C   0  0  0  0  0  0  0  0  0  0  0  0
   10.9325   -0.1148   20.7673 H   0  0  0  0  0  0  0  0  0  0  0  0
   12.2988    2.0226   20.8322 H   0  0  0  0  0  0  0  0  0  0  0  0
   13.2063    2.8391   22.9849 H   0  0  0  0  0  0  0  0  0  0  0  0
   12.6899    1.6371   25.1377 H   0  0  0  0  0  0  0  0  0  0  0  0
   11.0503   -0.6502   26.0794 H   0  0  0  0  0  0  0  0  0  0  0  0
   10.2289   -2.4669   21.2844 H   0  0  0  0  0  0  0  0  0  0  0  0
    9.4445   -3.3181   22.6447 H   0  0  0  0  0  0  0  0  0  0  0  0
    8.0357   -2.3555   24.3443 H   0  0  0  0  0  0  0  0  0  0  0  0
    6.7082    0.3598   24.8667 H   0  0  0  0  0  0  0  0  0  0  0  0
    8.4270    0.2503   24.4437 H   0  0  0  0  0  0  0  0  0  0  0  0
    7.8046   -0.5148   25.9326 H   0  0  0  0  0  0  0  0  0  0  0  0
  1  2  1  0
  2  3  1  0
  3  4  1  0
  3  5  1  0
  3  6  1  0
  2  7  1  0
  7  8  1  0
  8  9  2  0
  9 10  1  0
 10 11  2  0
 11 12  1  0
 12 13  2  0
 13 14  1  0
 14 15  2  0
 15 16  1  0
 13 17  1  0
 12 18  1  0
 11 19  1  0
  9 20  1  0
 20 21  2  0
 21 22  1  0
 22 23  1  0
 23 24  1  0
 24 25  2  0
 24 26  1  0
 26 27  1  0
 27 28  2  0
 28 29  1  0
 29 30  2  0
 30 31  1  0
 31 32  2  0
 31 33  1  0
 30 34  1  0
 29 35  1  0
 28 36  1  0
 26 37  1  0
 22 38  1  0
 22 39  1  0
  2 40  1  0
  1 41  1  0
  1 42  1  0
  1 43  1  0
 21  7  1  0
 32 23  1  0
 15 10  1  0
 32 27  1  0
M  END
>  <cnnaffinity>  (1) 
-5.57732

>  <filename>  (1) 
CC(C)n1nc(-c2cccnc2)nc1Cn1c(=O)[nH]c2ccccc21

$$$$
