
     RDKit          3D

 43 45  0  0  0  0  0  0  0  0999 V2000
    6.0149   -3.6893   23.5788 C   0  0  0  0  0  0  0  0  0  0  0  0
    7.3123   -3.4302   24.3449 C   0  0  0  0  0  0  0  0  0  0  0  0
    7.2265   -3.9293   25.7902 C   0  0  0  0  0  0  0  0  0  0  0  0
    8.1895   -4.8135   26.3071 C   0  0  0  0  0  0  0  0  0  0  0  0
    8.0356   -5.4363   27.5502 C   0  0  0  0  0  0  0  0  0  0  0  0
    6.9231   -5.1473   28.3420 C   0  0  0  0  0  0  0  0  0  0  0  0
    5.9911   -4.2057   27.9032 C   0  0  0  0  0  0  0  0  0  0  0  0
    6.1752   -3.5977   26.6600 C   0  0  0  0  0  0  0  0  0  0  0  0
    5.2795   -2.6508   26.3004 F   0  0  0  0  0  0  0  0  0  0  0  0
    5.1298   -3.9297   28.5010 H   0  0  0  0  0  0  0  0  0  0  0  0
    6.7895   -5.6348   29.3057 H   0  0  0  0  0  0  0  0  0  0  0  0
    8.7735   -6.1480   27.9022 H   0  0  0  0  0  0  0  0  0  0  0  0
    9.0821   -5.0354   25.7257 H   0  0  0  0  0  0  0  0  0  0  0  0
    7.7712   -1.9326   24.2652 C   0  0  0  0  0  0  0  0  0  0  0  0
    9.0859   -1.8380   24.8074 O   0  0  0  0  0  0  0  0  0  0  0  0
    9.1229   -2.3413   25.6372 H   0  0  0  0  0  0  0  0  0  0  0  0
    7.7595   -1.3615   22.8478 C   0  0  0  0  0  0  0  0  0  0  0  0
    6.7866   -0.7115   22.2136 N   0  0  0  0  0  0  0  0  0  0  0  0
    7.2843   -0.5258   20.9667 C   0  0  0  0  0  0  0  0  0  0  0  0
    6.5576    0.1146   19.8689 C   0  0  0  0  0  0  0  0  0  0  0  0
    5.3255    0.7698   20.0227 C   0  0  0  0  0  0  0  0  0  0  0  0
    4.7671    1.3852   18.9048 C   0  0  0  0  0  0  0  0  0  0  0  0
    5.4419    1.3141   17.6792 C   0  0  0  0  0  0  0  0  0  0  0  0
    6.6026    0.6610   17.5161 N   0  0  0  0  0  0  0  0  0  0  0  0
    7.1395    0.0787   18.5894 C   0  0  0  0  0  0  0  0  0  0  0  0
    8.0793   -0.4465   18.4269 H   0  0  0  0  0  0  0  0  0  0  0  0
    5.0326    1.7975   16.7950 H   0  0  0  0  0  0  0  0  0  0  0  0
    3.8329    1.9320   18.9702 H   0  0  0  0  0  0  0  0  0  0  0  0
    4.8314    0.7975   20.9971 H   0  0  0  0  0  0  0  0  0  0  0  0
    8.5053   -1.0106   20.8000 N   0  0  0  0  0  0  0  0  0  0  0  0
    8.7973   -1.5476   21.9976 N   0  0  0  0  0  0  0  0  0  0  0  0
   10.0725   -2.2181   22.1239 C   0  0  0  0  0  0  0  0  0  0  0  0
   11.2543   -1.2715   22.1152 C   0  0  0  0  0  0  0  0  0  0  0  0
   11.3268   -0.5473   23.2620 F   0  0  0  0  0  0  0  0  0  0  0  0
   12.3743   -2.0510   22.0433 F   0  0  0  0  0  0  0  0  0  0  0  0
   11.2465   -0.5777   21.2681 H   0  0  0  0  0  0  0  0  0  0  0  0
   10.0944   -2.8145   23.0336 H   0  0  0  0  0  0  0  0  0  0  0  0
   10.1780   -2.8432   21.2400 H   0  0  0  0  0  0  0  0  0  0  0  0
    7.0656   -1.3071   24.8361 H   0  0  0  0  0  0  0  0  0  0  0  0
    8.1196   -4.0079   23.8629 H   0  0  0  0  0  0  0  0  0  0  0  0
    5.2042   -3.0847   23.9917 H   0  0  0  0  0  0  0  0  0  0  0  0
    5.7367   -4.7447   23.6483 H   0  0  0  0  0  0  0  0  0  0  0  0
    6.1332   -3.4279   22.5232 H   0  0  0  0  0  0  0  0  0  0  0  0
  1  2  1  0
  2  3  1  0
  3  4  2  0
  4  5  1  0
  5  6  2  0
  6  7  1  0
  7  8  2  0
  8  9  1  0
  7 10  1  0
  6 11  1  0
  5 12  1  0
  4 13  1  0
  2 14  1  0
 14 15  1  0
 15 16  1  0
 14 17  1  0
 17 18  2  0
 18 19  1  0
 19 20  1  0
 20 21  2  0
 21 22  1  0
 22 23  2  0
 23 24  1  0
 24 25  2  0
 25 26  1  0
 23 27  1  0
 22 28  1  0
 21 29  1  0
 19 30  2  0
 30 31  1  0
 31 32  1  0
 32 33  1  0
 33 34  1  0
 33 35  1  0
 33 36  1  0
 32 37  1  0
 32 38  1  0
 14 39  1  0
  2 40  1  0
  1 41  1  0
  1 42  1  0
  1 43  1  0
  8  3  1  0
 31 17  1  0
 25 20  1  0
M  END
>  <cnnaffinity>  (1) 
-5.80584

>  <filename>  (1) 
CC(c1ccccc1F)C(O)c1nc(-c2cccnc2)nn1CC(F)F

$$$$
