
     RDKit          3D

 45 48  0  0  0  0  0  0  0  0999 V2000
    8.6196   -2.7280   24.9756 C   0  0  0  0  0  0  0  0  0  0  0  0
    7.8014   -1.5714   24.3835 C   0  0  0  0  0  0  0  0  0  0  0  0
    8.1418   -0.2357   25.1246 C   0  0  0  0  0  0  0  0  0  0  0  0
    7.2857    0.8719   24.7683 N   0  0  0  0  0  0  0  0  0  0  0  0
    6.0445    0.9698   25.2994 N   0  0  0  0  0  0  0  0  0  0  0  0
    5.4201    1.9114   24.6253 C   0  0  0  0  0  0  0  0  0  0  0  0
    6.2621    2.4757   23.6084 C   0  0  0  0  0  0  0  0  0  0  0  0
    6.1573    3.4964   22.6310 C   0  0  0  0  0  0  0  0  0  0  0  0
    7.2576    3.7698   21.8490 C   0  0  0  0  0  0  0  0  0  0  0  0
    8.4449    3.0009   21.9428 C   0  0  0  0  0  0  0  0  0  0  0  0
    8.5753    2.0052   22.8953 C   0  0  0  0  0  0  0  0  0  0  0  0
    7.4723    1.7646   23.7462 C   0  0  0  0  0  0  0  0  0  0  0  0
    9.4972    1.4341   22.9673 H   0  0  0  0  0  0  0  0  0  0  0  0
    9.2600    3.1672   21.2505 H   0  0  0  0  0  0  0  0  0  0  0  0
    7.1965    4.6136   21.1721 H   0  0  0  0  0  0  0  0  0  0  0  0
    5.2472    4.0676   22.4912 H   0  0  0  0  0  0  0  0  0  0  0  0
    4.3936    2.1535   24.8679 H   0  0  0  0  0  0  0  0  0  0  0  0
    9.1651    0.0752   24.9041 H   0  0  0  0  0  0  0  0  0  0  0  0
    8.0250   -0.3791   26.2047 H   0  0  0  0  0  0  0  0  0  0  0  0
    7.8674   -1.4188   22.8827 C   0  0  0  0  0  0  0  0  0  0  0  0
    6.8815   -0.8796   22.1930 N   0  0  0  0  0  0  0  0  0  0  0  0
    7.3980   -0.7097   20.9568 C   0  0  0  0  0  0  0  0  0  0  0  0
    6.6667    0.0048   19.9167 C   0  0  0  0  0  0  0  0  0  0  0  0
    5.4597    0.6678   20.1766 C   0  0  0  0  0  0  0  0  0  0  0  0
    4.8174    1.3054   19.1196 C   0  0  0  0  0  0  0  0  0  0  0  0
    5.4202    1.2744   17.8551 C   0  0  0  0  0  0  0  0  0  0  0  0
    6.5808    0.6553   17.6021 N   0  0  0  0  0  0  0  0  0  0  0  0
    7.1942    0.0467   18.6206 C   0  0  0  0  0  0  0  0  0  0  0  0
    8.1463   -0.4315   18.3908 H   0  0  0  0  0  0  0  0  0  0  0  0
    4.9543    1.7767   17.0096 H   0  0  0  0  0  0  0  0  0  0  0  0
    3.8785    1.8315   19.2528 H   0  0  0  0  0  0  0  0  0  0  0  0
    5.0414    0.6708   21.1880 H   0  0  0  0  0  0  0  0  0  0  0  0
    8.6246   -1.1770   20.8108 N   0  0  0  0  0  0  0  0  0  0  0  0
    8.9229   -1.6428   22.0523 N   0  0  0  0  0  0  0  0  0  0  0  0
   10.2535   -2.1954   22.2197 C   0  0  0  0  0  0  0  0  0  0  0  0
   11.3323   -1.1781   22.5500 C   0  0  0  0  0  0  0  0  0  0  0  0
   11.3740   -0.1405   21.6772 F   0  0  0  0  0  0  0  0  0  0  0  0
   11.0877   -0.6504   23.7964 F   0  0  0  0  0  0  0  0  0  0  0  0
   12.3193   -1.6493   22.5694 H   0  0  0  0  0  0  0  0  0  0  0  0
   10.4831   -2.6545   21.2596 H   0  0  0  0  0  0  0  0  0  0  0  0
   10.2647   -2.9574   23.0024 H   0  0  0  0  0  0  0  0  0  0  0  0
    6.7324   -1.7578   24.5465 H   0  0  0  0  0  0  0  0  0  0  0  0
    9.6887   -2.4912   25.0404 H   0  0  0  0  0  0  0  0  0  0  0  0
    8.2739   -2.9433   25.9930 H   0  0  0  0  0  0  0  0  0  0  0  0
    8.5007   -3.6432   24.3850 H   0  0  0  0  0  0  0  0  0  0  0  0
  1  2  1  0
  2  3  1  0
  3  4  1  0
  4  5  1  0
  5  6  2  0
  6  7  1  0
  7  8  2  0
  8  9  1  0
  9 10  2  0
 10 11  1  0
 11 12  2  0
 11 13  1  0
 10 14  1  0
  9 15  1  0
  8 16  1  0
  6 17  1  0
  3 18  1  0
  3 19  1  0
  2 20  1  0
 20 21  2  0
 21 22  1  0
 22 23  1  0
 23 24  2  0
 24 25  1  0
 25 26  2  0
 26 27  1  0
 27 28  2  0
 28 29  1  0
 26 30  1  0
 25 31  1  0
 24 32  1  0
 22 33  2  0
 33 34  1  0
 34 35  1  0
 35 36  1  0
 36 37  1  0
 36 38  1  0
 36 39  1  0
 35 40  1  0
 35 41  1  0
  2 42  1  0
  1 43  1  0
  1 44  1  0
  1 45  1  0
 12  4  1  0
 34 20  1  0
 12  7  1  0
 28 23  1  0
M  END
>  <cnnaffinity>  (1) 
-6.24965

>  <filename>  (1) 
CC(Cn1ncc2ccccc21)c1nc(-c2cccnc2)nn1CC(F)F

$$$$
