
     RDKit          3D

 34 36  0  0  0  0  0  0  0  0999 V2000
    8.1017    0.3255   21.8389 C   0  0  0  0  0  0  0  0  0  0  0  0
    7.5497   -0.7827   20.9154 C   0  0  0  0  0  0  0  0  0  0  0  0
    6.8310   -1.8828   21.7430 C   0  0  0  0  0  0  0  0  0  0  0  0
    6.5302   -1.7178   22.9097 O   0  0  0  0  0  0  0  0  0  0  0  0
    6.6297   -3.0712   21.0797 N   0  0  0  0  0  0  0  0  0  0  0  0
    6.2004   -4.2919   21.6297 C   0  0  0  0  0  0  0  0  0  0  0  0
    5.8080   -5.3296   20.7446 C   0  0  0  0  0  0  0  0  0  0  0  0
    5.1996   -6.4821   21.2323 C   0  0  0  0  0  0  0  0  0  0  0  0
    5.0038   -6.6241   22.6258 C   0  0  0  0  0  0  0  0  0  0  0  0
    4.3391   -7.5601   23.5170 C   0  0  0  0  0  0  0  0  0  0  0  0
    4.4935   -7.0677   24.7628 C   0  0  0  0  0  0  0  0  0  0  0  0
    5.2165   -5.9031   24.7693 O   0  0  0  0  0  0  0  0  0  0  0  0
    5.5173   -5.6274   23.4689 C   0  0  0  0  0  0  0  0  0  0  0  0
    6.1318   -4.4648   23.0133 C   0  0  0  0  0  0  0  0  0  0  0  0
    6.5072   -3.7013   23.6737 H   0  0  0  0  0  0  0  0  0  0  0  0
    4.1469   -7.4015   25.7314 H   0  0  0  0  0  0  0  0  0  0  0  0
    3.7544   -8.4313   23.2607 H   0  0  0  0  0  0  0  0  0  0  0  0
    4.8817   -7.2661   20.5506 H   0  0  0  0  0  0  0  0  0  0  0  0
    6.0074   -5.2410   19.6797 H   0  0  0  0  0  0  0  0  0  0  0  0
    6.6333   -3.0150   20.0765 H   0  0  0  0  0  0  0  0  0  0  0  0
    6.7032   -0.1606   19.8002 C   0  0  0  0  0  0  0  0  0  0  0  0
    5.4665    0.4439   20.0739 C   0  0  0  0  0  0  0  0  0  0  0  0
    4.8380    1.1782   19.0618 C   0  0  0  0  0  0  0  0  0  0  0  0
    5.4540    1.2716   17.8083 C   0  0  0  0  0  0  0  0  0  0  0  0
    6.6134    0.6653   17.5111 N   0  0  0  0  0  0  0  0  0  0  0  0
    7.2108   -0.0224   18.4921 C   0  0  0  0  0  0  0  0  0  0  0  0
    8.1530   -0.5032   18.2274 H   0  0  0  0  0  0  0  0  0  0  0  0
    5.0021    1.8605   17.0088 H   0  0  0  0  0  0  0  0  0  0  0  0
    3.9054    1.7040   19.2360 H   0  0  0  0  0  0  0  0  0  0  0  0
    5.0200    0.3558   21.0691 H   0  0  0  0  0  0  0  0  0  0  0  0
    8.4055   -1.2860   20.4365 H   0  0  0  0  0  0  0  0  0  0  0  0
    7.2865    0.8568   22.3492 H   0  0  0  0  0  0  0  0  0  0  0  0
    8.7474   -0.0944   22.6155 H   0  0  0  0  0  0  0  0  0  0  0  0
    8.6833    1.0479   21.2601 H   0  0  0  0  0  0  0  0  0  0  0  0
  1  2  1  0
  2  3  1  0
  3  4  2  0
  3  5  1  0
  5  6  1  0
  6  7  2  0
  7  8  1  0
  8  9  2  0
  9 10  1  0
 10 11  2  0
 11 12  1  0
 12 13  1  0
 13 14  2  0
 14 15  1  0
 11 16  1  0
 10 17  1  0
  8 18  1  0
  7 19  1  0
  5 20  1  0
  2 21  1  0
 21 22  2  0
 22 23  1  0
 23 24  2  0
 24 25  1  0
 25 26  2  0
 26 27  1  0
 24 28  1  0
 23 29  1  0
 22 30  1  0
  2 31  1  0
  1 32  1  0
  1 33  1  0
  1 34  1  0
 14  6  1  0
 26 21  1  0
 13  9  1  0
M  END
>  <cnnaffinity>  (1) 
-5.15712

>  <filename>  (1) 
CC(C(=O)Nc1ccc2ccoc2c1)c1cccnc1

$$$$
