
     RDKit          3D

 48 52  0  0  0  0  0  0  0  0999 V2000
    8.0218    4.7455   22.6473 C   0  0  0  0  0  0  0  0  0  0  0  0
    7.8308    3.8836   23.8983 C   0  0  0  0  0  0  0  0  0  0  0  0
    8.8898    2.7857   24.0913 C   0  0  0  0  0  0  0  0  0  0  0  0
    8.9571    1.8272   22.9941 N   0  0  0  0  0  0  0  0  0  0  0  0
    7.8684    1.0803   22.7010 N   0  0  0  0  0  0  0  0  0  0  0  0
    8.2762    0.3230   21.7031 C   0  0  0  0  0  0  0  0  0  0  0  0
    7.3615   -0.6451   21.0028 C   0  0  0  0  0  0  0  0  0  0  0  0
    6.5899   -0.0238   19.8442 C   0  0  0  0  0  0  0  0  0  0  0  0
    5.3791    0.6434   20.0681 C   0  0  0  0  0  0  0  0  0  0  0  0
    4.7729    1.3247   19.0112 C   0  0  0  0  0  0  0  0  0  0  0  0
    5.3972    1.3054   17.7615 C   0  0  0  0  0  0  0  0  0  0  0  0
    6.5358    0.6395   17.5102 N   0  0  0  0  0  0  0  0  0  0  0  0
    7.1030   -0.0079   18.5350 C   0  0  0  0  0  0  0  0  0  0  0  0
    8.0236   -0.5505   18.3081 H   0  0  0  0  0  0  0  0  0  0  0  0
    4.9653    1.8440   16.9203 H   0  0  0  0  0  0  0  0  0  0  0  0
    3.8491    1.8765   19.1475 H   0  0  0  0  0  0  0  0  0  0  0  0
    4.9289    0.6301   21.0628 H   0  0  0  0  0  0  0  0  0  0  0  0
    6.6612   -1.0336   21.7527 H   0  0  0  0  0  0  0  0  0  0  0  0
    7.9718   -1.4817   20.6467 H   0  0  0  0  0  0  0  0  0  0  0  0
    9.5751    0.5106   21.3509 N   0  0  0  0  0  0  0  0  0  0  0  0
    9.9800    1.4654   22.1817 C   0  0  0  0  0  0  0  0  0  0  0  0
   11.3459    2.0428   22.3108 C   0  0  0  0  0  0  0  0  0  0  0  0
   11.6199    3.4223   22.3790 C   0  0  0  0  0  0  0  0  0  0  0  0
   12.9282    3.8890   22.6405 C   0  0  0  0  0  0  0  0  0  0  0  0
   13.9879    3.1023   22.8197 N   0  0  0  0  0  0  0  0  0  0  0  0
   13.7183    1.7957   22.7120 C   0  0  0  0  0  0  0  0  0  0  0  0
   12.4731    1.1943   22.4447 C   0  0  0  0  0  0  0  0  0  0  0  0
   12.7835   -0.1974   22.3753 C   0  0  0  0  0  0  0  0  0  0  0  0
   14.0605   -0.4304   22.5839 N   0  0  0  0  0  0  0  0  0  0  0  0
   14.6120    0.7860   22.8099 N   0  0  0  0  0  0  0  0  0  0  0  0
   15.6017    0.9368   22.8392 H   0  0  0  0  0  0  0  0  0  0  0  0
   12.1036   -1.0128   22.1691 H   0  0  0  0  0  0  0  0  0  0  0  0
   13.1173    4.9561   22.7174 H   0  0  0  0  0  0  0  0  0  0  0  0
   10.8421    4.1627   22.2411 H   0  0  0  0  0  0  0  0  0  0  0  0
    8.6531    2.2395   25.0083 H   0  0  0  0  0  0  0  0  0  0  0  0
    9.8737    3.2333   24.2343 H   0  0  0  0  0  0  0  0  0  0  0  0
    7.8031    4.7176   25.1660 C   0  0  0  0  0  0  0  0  0  0  0  0
    6.5263    5.3280   25.6630 C   0  0  0  0  0  0  0  0  0  0  0  0
    7.1590    4.1816   26.4120 C   0  0  0  0  0  0  0  0  0  0  0  0
    7.6297    4.3743   27.3715 H   0  0  0  0  0  0  0  0  0  0  0  0
    6.6772    3.2075   26.3475 H   0  0  0  0  0  0  0  0  0  0  0  0
    6.5495    6.3217   26.1004 H   0  0  0  0  0  0  0  0  0  0  0  0
    5.6227    5.1185   25.0952 H   0  0  0  0  0  0  0  0  0  0  0  0
    8.7129    5.2984   25.3213 H   0  0  0  0  0  0  0  0  0  0  0  0
    6.8648    3.3642   23.7993 H   0  0  0  0  0  0  0  0  0  0  0  0
    8.9490    5.3318   22.6804 H   0  0  0  0  0  0  0  0  0  0  0  0
    7.1951    5.4602   22.5616 H   0  0  0  0  0  0  0  0  0  0  0  0
    8.0346    4.1389   21.7361 H   0  0  0  0  0  0  0  0  0  0  0  0
  1  2  1  0
  2  3  1  0
  3  4  1  0
  4  5  1  0
  5  6  2  0
  6  7  1  0
  7  8  1  0
  8  9  2  0
  9 10  1  0
 10 11  2  0
 11 12  1  0
 12 13  2  0
 13 14  1  0
 11 15  1  0
 10 16  1  0
  9 17  1  0
  7 18  1  0
  7 19  1  0
  6 20  1  0
 20 21  2  0
 21 22  1  0
 22 23  2  0
 23 24  1  0
 24 25  2  0
 25 26  1  0
 26 27  2  0
 27 28  1  0
 28 29  2  0
 29 30  1  0
 30 31  1  0
 28 32  1  0
 24 33  1  0
 23 34  1  0
  3 35  1  0
  3 36  1  0
  2 37  1  0
 37 38  1  0
 38 39  1  0
 39 40  1  0
 39 41  1  0
 38 42  1  0
 38 43  1  0
 37 44  1  0
  2 45  1  0
  1 46  1  0
  1 47  1  0
  1 48  1  0
 21  4  1  0
 27 22  1  0
 39 37  1  0
 13  8  1  0
 30 26  1  0
M  END
>  <cnnaffinity>  (1) 
-6.92978

>  <filename>  (1) 
CC(Cn1nc(Cc2cccnc2)nc1-c1ccnc2[nH]ncc12)C1CC1

$$$$
