
     RDKit          3D

 42 44  0  0  0  0  0  0  0  0999 V2000
    4.9376    1.8184   16.9422 H   0  0  0  0  0  0  0  0  0  0  0  0
    5.3997    1.2931   17.7724 C   0  0  0  0  0  0  0  0  0  0  0  0
    6.5504    0.6590   17.5057 N   0  0  0  0  0  0  0  0  0  0  0  0
    7.1589    0.0458   18.5360 C   0  0  0  0  0  0  0  0  0  0  0  0
    8.0997   -0.4426   18.2865 H   0  0  0  0  0  0  0  0  0  0  0  0
    6.6713    0.0141   19.8588 C   0  0  0  0  0  0  0  0  0  0  0  0
    7.3678   -0.7288   21.0402 C   0  0  0  0  0  0  0  0  0  0  0  0
    7.5025    0.2540   22.2807 C   0  0  0  0  0  0  0  0  0  0  0  0
    8.0326    1.3295   22.1023 O   0  0  0  0  0  0  0  0  0  0  0  0
    7.0301   -0.1364   23.6714 C   0  0  0  0  0  0  0  0  0  0  0  0
    6.0351    0.6203   24.3169 C   0  0  0  0  0  0  0  0  0  0  0  0
    5.5850    1.4785   23.8197 H   0  0  0  0  0  0  0  0  0  0  0  0
    5.6146    0.2693   25.6008 C   0  0  0  0  0  0  0  0  0  0  0  0
    4.8191    0.8327   26.0757 H   0  0  0  0  0  0  0  0  0  0  0  0
    6.1901   -0.8183   26.2641 C   0  0  0  0  0  0  0  0  0  0  0  0
    5.8599   -1.0617   27.2712 H   0  0  0  0  0  0  0  0  0  0  0  0
    7.1895   -1.5858   25.6447 C   0  0  0  0  0  0  0  0  0  0  0  0
    7.7968   -2.7710   26.3093 C   0  0  0  0  0  0  0  0  0  0  0  0
    7.0354   -3.6351   27.1165 C   0  0  0  0  0  0  0  0  0  0  0  0
    5.9623   -3.4850   27.2120 H   0  0  0  0  0  0  0  0  0  0  0  0
    7.6359   -4.7164   27.7652 C   0  0  0  0  0  0  0  0  0  0  0  0
    7.0439   -5.3574   28.4088 H   0  0  0  0  0  0  0  0  0  0  0  0
    8.9994   -4.9723   27.5946 C   0  0  0  0  0  0  0  0  0  0  0  0
    9.4668   -5.7770   28.1486 H   0  0  0  0  0  0  0  0  0  0  0  0
    9.7531   -4.1597   26.7447 C   0  0  0  0  0  0  0  0  0  0  0  0
   10.7997   -4.3714   26.5517 H   0  0  0  0  0  0  0  0  0  0  0  0
    9.1607   -3.0603   26.1250 C   0  0  0  0  0  0  0  0  0  0  0  0
    9.7749   -2.3895   25.5309 H   0  0  0  0  0  0  0  0  0  0  0  0
    7.6006   -1.2242   24.3502 C   0  0  0  0  0  0  0  0  0  0  0  0
    8.3663   -1.8244   23.8615 H   0  0  0  0  0  0  0  0  0  0  0  0
    6.5323   -1.9947   21.3348 C   0  0  0  0  0  0  0  0  0  0  0  0
    6.9906   -2.6414   22.0889 H   0  0  0  0  0  0  0  0  0  0  0  0
    6.4247   -2.5818   20.4161 H   0  0  0  0  0  0  0  0  0  0  0  0
    5.5285   -1.7414   21.6836 H   0  0  0  0  0  0  0  0  0  0  0  0
    8.8220   -1.1394   20.7156 C   0  0  0  0  0  0  0  0  0  0  0  0
    8.8810   -1.8316   19.8801 H   0  0  0  0  0  0  0  0  0  0  0  0
    9.4403   -0.2716   20.4746 H   0  0  0  0  0  0  0  0  0  0  0  0
    9.2881   -1.6442   21.5681 H   0  0  0  0  0  0  0  0  0  0  0  0
    5.4400    0.6514   20.0833 C   0  0  0  0  0  0  0  0  0  0  0  0
    4.9920    0.6559   21.0793 H   0  0  0  0  0  0  0  0  0  0  0  0
    4.7993    1.3074   19.0339 C   0  0  0  0  0  0  0  0  0  0  0  0
    3.8643    1.8382   19.1842 H   0  0  0  0  0  0  0  0  0  0  0  0
  1  2  1  0
  2  3  2  0
  3  4  1  0
  4  5  1  0
  4  6  2  0
  6  7  1  0
  7  8  1  0
  8  9  2  0
  8 10  1  0
 10 11  2  0
 11 12  1  0
 11 13  1  0
 13 14  1  0
 13 15  2  0
 15 16  1  0
 15 17  1  0
 17 18  1  0
 18 19  2  0
 19 20  1  0
 19 21  1  0
 21 22  1  0
 21 23  2  0
 23 24  1  0
 23 25  1  0
 25 26  1  0
 25 27  2  0
 27 28  1  0
 17 29  2  0
 29 30  1  0
  7 31  1  0
 31 32  1  0
 31 33  1  0
 31 34  1  0
  7 35  1  0
 35 36  1  0
 35 37  1  0
 35 38  1  0
  6 39  1  0
 39 40  1  0
 39 41  2  0
 41 42  1  0
 41  2  1  0
 29 10  1  0
 27 18  1  0
M  END
>  <cnnaffinity>  (1) 
-4.65746

>  <filename>  (1) 
CC(C)(C(=O)c1cccc(-c2ccccc2)c1)c1cccnc1

$$$$
