
     RDKit          3D

 29 30  0  0  0  0  0  0  0  0999 V2000
    4.9675    1.7829   16.9860 H   0  0  0  0  0  0  0  0  0  0  0  0
    5.4297    1.2788   17.8305 C   0  0  0  0  0  0  0  0  0  0  0  0
    6.5922    0.6555   17.5841 N   0  0  0  0  0  0  0  0  0  0  0  0
    7.1982    0.0499   18.6101 C   0  0  0  0  0  0  0  0  0  0  0  0
    8.1477   -0.4325   18.3934 H   0  0  0  0  0  0  0  0  0  0  0  0
    6.6703    0.0081   19.9118 C   0  0  0  0  0  0  0  0  0  0  0  0
    7.3983   -0.7151   20.9599 C   0  0  0  0  0  0  0  0  0  0  0  0
    8.7450   -0.9665   20.8101 N   0  0  0  0  0  0  0  0  0  0  0  0
    9.2081   -1.6047   21.8421 C   0  0  0  0  0  0  0  0  0  0  0  0
   10.6539   -1.9133   22.0154 C   0  0  0  0  0  0  0  0  0  0  0  0
   10.9762   -2.3648   21.0754 H   0  0  0  0  0  0  0  0  0  0  0  0
   10.8098   -2.6346   22.8269 H   0  0  0  0  0  0  0  0  0  0  0  0
   11.5050   -0.6541   22.2776 C   0  0  0  0  0  0  0  0  0  0  0  0
   11.2181    0.0991   21.5338 H   0  0  0  0  0  0  0  0  0  0  0  0
   11.2010   -0.0468   23.6515 C   0  0  0  0  0  0  0  0  0  0  0  0
   10.1780    0.3403   23.6732 H   0  0  0  0  0  0  0  0  0  0  0  0
   11.8635    0.7923   23.8938 H   0  0  0  0  0  0  0  0  0  0  0  0
   11.2770   -0.7764   24.4643 H   0  0  0  0  0  0  0  0  0  0  0  0
   12.9720   -1.0036   22.0220 C   0  0  0  0  0  0  0  0  0  0  0  0
   13.6681   -0.2125   22.3100 H   0  0  0  0  0  0  0  0  0  0  0  0
   13.1481   -1.1994   20.9582 H   0  0  0  0  0  0  0  0  0  0  0  0
   13.2638   -1.9154   22.5472 H   0  0  0  0  0  0  0  0  0  0  0  0
    8.0244   -2.0061   23.0478 S   0  0  0  0  0  0  0  0  0  0  0  0
    6.8499   -1.2000   22.0992 C   0  0  0  0  0  0  0  0  0  0  0  0
    5.8221   -1.1283   22.3839 H   0  0  0  0  0  0  0  0  0  0  0  0
    5.4456    0.6619   20.1504 C   0  0  0  0  0  0  0  0  0  0  0  0
    4.9930    0.6871   21.1413 H   0  0  0  0  0  0  0  0  0  0  0  0
    4.8178    1.3060   19.0880 C   0  0  0  0  0  0  0  0  0  0  0  0
    3.8799    1.8346   19.2262 H   0  0  0  0  0  0  0  0  0  0  0  0
  1  2  1  0
  2  3  2  0
  3  4  1  0
  4  5  1  0
  4  6  2  0
  6  7  1  0
  7  8  1  0
  8  9  2  0
  9 10  1  0
 10 11  1  0
 10 12  1  0
 10 13  1  0
 13 14  1  0
 13 15  1  0
 15 16  1  0
 15 17  1  0
 15 18  1  0
 13 19  1  0
 19 20  1  0
 19 21  1  0
 19 22  1  0
  9 23  1  0
 23 24  1  0
 24 25  1  0
  6 26  1  0
 26 27  1  0
 26 28  2  0
 28 29  1  0
 28  2  1  0
 24  7  2  0
M  END
>  <cnnaffinity>  (1) 
-4.89082

>  <filename>  (1) 
CC(C)Cc1nc(-c2cccnc2)cs1

$$$$
