
     RDKit          3D

 29 30  0  0  0  0  0  0  0  0999 V2000
    5.0700    1.7164   17.0342 H   0  0  0  0  0  0  0  0  0  0  0  0
    5.4951    1.2284   17.9093 C   0  0  0  0  0  0  0  0  0  0  0  0
    6.6602    0.5986   17.7225 N   0  0  0  0  0  0  0  0  0  0  0  0
    7.2097    0.0062   18.7930 C   0  0  0  0  0  0  0  0  0  0  0  0
    8.1503   -0.5022   18.6038 H   0  0  0  0  0  0  0  0  0  0  0  0
    6.6615    0.0054   20.0911 C   0  0  0  0  0  0  0  0  0  0  0  0
    7.4226   -0.5456   21.3273 C   0  0  0  0  0  0  0  0  0  0  0  0
    6.5811   -1.5816   22.1249 C   0  0  0  0  0  0  0  0  0  0  0  0
    6.7321   -1.6368   23.4643 N   0  0  0  0  0  0  0  0  0  0  0  0
    6.0969   -2.5930   24.1530 C   0  0  0  0  0  0  0  0  0  0  0  0
    6.2685   -2.6404   25.2264 H   0  0  0  0  0  0  0  0  0  0  0  0
    5.2639   -3.5273   23.5350 C   0  0  0  0  0  0  0  0  0  0  0  0
    4.6417   -4.4630   24.2700 F   0  0  0  0  0  0  0  0  0  0  0  0
    5.0980   -3.5103   22.1562 C   0  0  0  0  0  0  0  0  0  0  0  0
    4.4731   -4.2796   21.7089 H   0  0  0  0  0  0  0  0  0  0  0  0
    5.7911   -2.5280   21.4373 C   0  0  0  0  0  0  0  0  0  0  0  0
    5.7596   -2.4588   20.3535 H   0  0  0  0  0  0  0  0  0  0  0  0
    7.8414    0.6738   22.1795 C   0  0  0  0  0  0  0  0  0  0  0  0
    8.3673    0.3332   23.0767 H   0  0  0  0  0  0  0  0  0  0  0  0
    8.5076    1.3089   21.5852 H   0  0  0  0  0  0  0  0  0  0  0  0
    6.9787    1.2752   22.4848 H   0  0  0  0  0  0  0  0  0  0  0  0
    8.7200   -1.2894   20.9339 C   0  0  0  0  0  0  0  0  0  0  0  0
    9.3728   -0.6607   20.3205 H   0  0  0  0  0  0  0  0  0  0  0  0
    9.2667   -1.5784   21.8389 H   0  0  0  0  0  0  0  0  0  0  0  0
    8.4913   -2.2069   20.3912 H   0  0  0  0  0  0  0  0  0  0  0  0
    5.4124    0.6365   20.2458 C   0  0  0  0  0  0  0  0  0  0  0  0
    4.9149    0.6394   21.2202 H   0  0  0  0  0  0  0  0  0  0  0  0
    4.8246    1.2627   19.1390 C   0  0  0  0  0  0  0  0  0  0  0  0
    3.8739    1.7818   19.2166 H   0  0  0  0  0  0  0  0  0  0  0  0
  1  2  1  0
  2  3  2  0
  3  4  1  0
  4  5  1  0
  4  6  2  0
  6  7  1  0
  7  8  1  0
  8  9  2  0
  9 10  1  0
 10 11  1  0
 10 12  2  0
 12 13  1  0
 12 14  1  0
 14 15  1  0
 14 16  2  0
 16 17  1  0
  7 18  1  0
 18 19  1  0
 18 20  1  0
 18 21  1  0
  7 22  1  0
 22 23  1  0
 22 24  1  0
 22 25  1  0
  6 26  1  0
 26 27  1  0
 26 28  2  0
 28 29  1  0
 28  2  1  0
 16  8  1  0
M  END
>  <cnnaffinity>  (1) 
-4.53133

>  <filename>  (1) 
CC(C)(c1cccnc1)c1ccc(F)cn1

$$$$
