
     RDKit          3D

 42 44  0  0  0  0  0  0  0  0999 V2000
    7.2629   -4.3074   23.7018 C   0  0  0  0  0  0  0  0  0  0  0  0
    6.7513   -3.0395   24.4132 C   0  0  0  0  0  0  0  0  0  0  0  0
    7.7304   -1.8474   24.2569 C   0  0  0  0  0  0  0  0  0  0  0  0
    7.8346   -1.3883   22.8379 C   0  0  0  0  0  0  0  0  0  0  0  0
    6.9049   -0.6950   22.2100 N   0  0  0  0  0  0  0  0  0  0  0  0
    7.3639   -0.6236   20.9407 C   0  0  0  0  0  0  0  0  0  0  0  0
    6.6225    0.0422   19.8816 C   0  0  0  0  0  0  0  0  0  0  0  0
    5.3983    0.6861   20.1128 C   0  0  0  0  0  0  0  0  0  0  0  0
    4.7945    1.3278   19.0347 C   0  0  0  0  0  0  0  0  0  0  0  0
    5.4265    1.2985   17.7847 C   0  0  0  0  0  0  0  0  0  0  0  0
    6.5839    0.6620   17.5543 N   0  0  0  0  0  0  0  0  0  0  0  0
    7.1624    0.0491   18.5896 C   0  0  0  0  0  0  0  0  0  0  0  0
    8.1011   -0.4628   18.3893 H   0  0  0  0  0  0  0  0  0  0  0  0
    4.9891    1.8037   16.9265 H   0  0  0  0  0  0  0  0  0  0  0  0
    3.8614    1.8667   19.1472 H   0  0  0  0  0  0  0  0  0  0  0  0
    4.9496    0.6867   21.1103 H   0  0  0  0  0  0  0  0  0  0  0  0
    8.5226   -1.2223   20.7426 N   0  0  0  0  0  0  0  0  0  0  0  0
    8.8139   -1.7144   21.9653 N   0  0  0  0  0  0  0  0  0  0  0  0
   10.0669   -2.4179   22.1285 C   0  0  0  0  0  0  0  0  0  0  0  0
   11.2260   -1.5196   22.5030 C   0  0  0  0  0  0  0  0  0  0  0  0
   10.9712   -0.9129   23.7252 F   0  0  0  0  0  0  0  0  0  0  0  0
   12.1391   -2.1191   22.5817 H   0  0  0  0  0  0  0  0  0  0  0  0
   11.3869   -0.7451   21.7473 H   0  0  0  0  0  0  0  0  0  0  0  0
   10.2486   -2.8301   21.1372 H   0  0  0  0  0  0  0  0  0  0  0  0
    9.9552   -3.2164   22.8715 H   0  0  0  0  0  0  0  0  0  0  0  0
    8.7196   -2.0965   24.6618 H   0  0  0  0  0  0  0  0  0  0  0  0
    7.3464   -1.0095   24.8453 H   0  0  0  0  0  0  0  0  0  0  0  0
    6.4356   -3.3175   25.8770 C   0  0  0  0  0  0  0  0  0  0  0  0
    5.1663   -3.0348   26.4176 C   0  0  0  0  0  0  0  0  0  0  0  0
    4.8072   -3.4873   27.6923 C   0  0  0  0  0  0  0  0  0  0  0  0
    5.7271   -4.2346   28.4225 C   0  0  0  0  0  0  0  0  0  0  0  0
    5.3719   -4.7497   29.6130 F   0  0  0  0  0  0  0  0  0  0  0  0
    7.0141   -4.4663   27.9519 C   0  0  0  0  0  0  0  0  0  0  0  0
    7.3724   -3.9710   26.6985 C   0  0  0  0  0  0  0  0  0  0  0  0
    8.3923   -4.1241   26.3501 H   0  0  0  0  0  0  0  0  0  0  0  0
    7.6942   -5.0629   28.5462 H   0  0  0  0  0  0  0  0  0  0  0  0
    3.8150   -3.3239   28.1038 H   0  0  0  0  0  0  0  0  0  0  0  0
    4.4153   -2.5338   25.8024 H   0  0  0  0  0  0  0  0  0  0  0  0
    5.8094   -2.7397   23.9285 H   0  0  0  0  0  0  0  0  0  0  0  0
    6.5555   -5.1348   23.8344 H   0  0  0  0  0  0  0  0  0  0  0  0
    8.2237   -4.6338   24.1234 H   0  0  0  0  0  0  0  0  0  0  0  0
    7.4052   -4.1499   22.6267 H   0  0  0  0  0  0  0  0  0  0  0  0
  1  2  1  0
  2  3  1  0
  3  4  1  0
  4  5  2  0
  5  6  1  0
  6  7  1  0
  7  8  2  0
  8  9  1  0
  9 10  2  0
 10 11  1  0
 11 12  2  0
 12 13  1  0
 10 14  1  0
  9 15  1  0
  8 16  1  0
  6 17  2  0
 17 18  1  0
 18 19  1  0
 19 20  1  0
 20 21  1  0
 20 22  1  0
 20 23  1  0
 19 24  1  0
 19 25  1  0
  3 26  1  0
  3 27  1  0
  2 28  1  0
 28 29  2  0
 29 30  1  0
 30 31  2  0
 31 32  1  0
 31 33  1  0
 33 34  2  0
 34 35  1  0
 33 36  1  0
 30 37  1  0
 29 38  1  0
  2 39  1  0
  1 40  1  0
  1 41  1  0
  1 42  1  0
 18  4  1  0
 34 28  1  0
 12  7  1  0
M  END
>  <cnnaffinity>  (1) 
-5.96279

>  <filename>  (1) 
CC(Cc1nc(-c2cccnc2)nn1CCF)c1ccc(F)cc1

$$$$
