
     RDKit          3D

 47 50  0  0  0  0  0  0  0  0999 V2000
   11.0253   -0.5384   23.6705 C   0  0  0  0  0  0  0  0  0  0  0  0
   11.1550   -1.2055   22.2948 C   0  0  0  0  0  0  0  0  0  0  0  0
   12.5020   -1.8764   22.0054 C   0  0  0  0  0  0  0  0  0  0  0  0
   13.6336   -1.1093   22.3454 O   0  0  0  0  0  0  0  0  0  0  0  0
   13.7794   -1.2461   23.2877 H   0  0  0  0  0  0  0  0  0  0  0  0
   12.5213   -2.8662   22.4887 H   0  0  0  0  0  0  0  0  0  0  0  0
   12.5749   -2.0334   20.9259 H   0  0  0  0  0  0  0  0  0  0  0  0
   10.0756   -2.2767   22.0896 C   0  0  0  0  0  0  0  0  0  0  0  0
    8.7385   -1.7396   21.9460 N   0  0  0  0  0  0  0  0  0  0  0  0
    8.4138   -1.2313   20.7362 N   0  0  0  0  0  0  0  0  0  0  0  0
    7.2583   -0.6322   20.9580 C   0  0  0  0  0  0  0  0  0  0  0  0
    6.5386    0.0617   19.8938 C   0  0  0  0  0  0  0  0  0  0  0  0
    5.3199    0.7332   20.0859 C   0  0  0  0  0  0  0  0  0  0  0  0
    4.7558    1.3743   18.9848 C   0  0  0  0  0  0  0  0  0  0  0  0
    5.4193    1.3227   17.7532 C   0  0  0  0  0  0  0  0  0  0  0  0
    6.5768    0.6729   17.5614 N   0  0  0  0  0  0  0  0  0  0  0  0
    7.1168    0.0588   18.6157 C   0  0  0  0  0  0  0  0  0  0  0  0
    8.0546   -0.4671   18.4398 H   0  0  0  0  0  0  0  0  0  0  0  0
    4.9997    1.8166   16.8806 H   0  0  0  0  0  0  0  0  0  0  0  0
    3.8237    1.9231   19.0640 H   0  0  0  0  0  0  0  0  0  0  0  0
    4.8380    0.7555   21.0672 H   0  0  0  0  0  0  0  0  0  0  0  0
    6.8371   -0.6995   22.2402 N   0  0  0  0  0  0  0  0  0  0  0  0
    7.7735   -1.4108   22.8393 C   0  0  0  0  0  0  0  0  0  0  0  0
    7.7577   -1.7593   24.3062 C   0  0  0  0  0  0  0  0  0  0  0  0
    6.5293   -2.4016   24.7391 N   0  0  0  0  0  0  0  0  0  0  0  0
    5.4571   -1.7726   25.3462 C   0  0  0  0  0  0  0  0  0  0  0  0
    4.3926   -2.6165   25.4395 C   0  0  0  0  0  0  0  0  0  0  0  0
    4.7985   -3.8584   24.8504 C   0  0  0  0  0  0  0  0  0  0  0  0
    4.1533   -5.0972   24.6540 C   0  0  0  0  0  0  0  0  0  0  0  0
    4.8550   -6.1003   24.0134 C   0  0  0  0  0  0  0  0  0  0  0  0
    4.2577   -7.2892   23.8098 F   0  0  0  0  0  0  0  0  0  0  0  0
    6.1797   -5.9299   23.5560 C   0  0  0  0  0  0  0  0  0  0  0  0
    6.8358   -4.7188   23.7627 C   0  0  0  0  0  0  0  0  0  0  0  0
    6.1355   -3.6852   24.4122 C   0  0  0  0  0  0  0  0  0  0  0  0
    7.8598   -4.5742   23.4340 H   0  0  0  0  0  0  0  0  0  0  0  0
    6.6636   -6.7538   23.0446 H   0  0  0  0  0  0  0  0  0  0  0  0
    3.1371   -5.2642   24.9919 H   0  0  0  0  0  0  0  0  0  0  0  0
    3.4139   -2.4078   25.8528 H   0  0  0  0  0  0  0  0  0  0  0  0
    5.5555   -0.7399   25.6609 H   0  0  0  0  0  0  0  0  0  0  0  0
    8.6109   -2.3894   24.5729 H   0  0  0  0  0  0  0  0  0  0  0  0
    7.8509   -0.8312   24.8779 H   0  0  0  0  0  0  0  0  0  0  0  0
   10.2546   -2.7997   21.1554 H   0  0  0  0  0  0  0  0  0  0  0  0
   10.1032   -3.0096   22.9010 H   0  0  0  0  0  0  0  0  0  0  0  0
   11.0036   -0.4328   21.5267 H   0  0  0  0  0  0  0  0  0  0  0  0
   10.8669   -1.2567   24.4876 H   0  0  0  0  0  0  0  0  0  0  0  0
   10.1723    0.1497   23.6769 H   0  0  0  0  0  0  0  0  0  0  0  0
   11.9197    0.0413   23.9215 H   0  0  0  0  0  0  0  0  0  0  0  0
  1  2  1  0
  2  3  1  0
  3  4  1  0
  4  5  1  0
  3  6  1  0
  3  7  1  0
  2  8  1  0
  8  9  1  0
  9 10  1  0
 10 11  2  0
 11 12  1  0
 12 13  2  0
 13 14  1  0
 14 15  2  0
 15 16  1  0
 16 17  2  0
 17 18  1  0
 15 19  1  0
 14 20  1  0
 13 21  1  0
 11 22  1  0
 22 23  2  0
 23 24  1  0
 24 25  1  0
 25 26  1  0
 26 27  2  0
 27 28  1  0
 28 29  2  0
 29 30  1  0
 30 31  1  0
 30 32  2  0
 32 33  1  0
 33 34  2  0
 33 35  1  0
 32 36  1  0
 29 37  1  0
 27 38  1  0
 26 39  1  0
 24 40  1  0
 24 41  1  0
  8 42  1  0
  8 43  1  0
  2 44  1  0
  1 45  1  0
  1 46  1  0
  1 47  1  0
 23  9  1  0
 34 25  1  0
 17 12  1  0
 34 28  1  0
M  END
>  <cnnaffinity>  (1) 
-6.28734

>  <filename>  (1) 
CC(CO)Cn1nc(-c2cccnc2)nc1Cn1ccc2cc(F)ccc21

$$$$
