
     RDKit          3D

 35 36  0  0  0  0  0  0  0  0999 V2000
    4.9434    1.8012   16.9471 H   0  0  0  0  0  0  0  0  0  0  0  0
    5.4012    1.3232   17.8135 C   0  0  0  0  0  0  0  0  0  0  0  0
    6.5638    0.6877   17.5940 N   0  0  0  0  0  0  0  0  0  0  0  0
    7.1359    0.0761   18.6422 C   0  0  0  0  0  0  0  0  0  0  0  0
    8.0833   -0.4166   18.4280 H   0  0  0  0  0  0  0  0  0  0  0  0
    6.6066    0.0644   19.9541 C   0  0  0  0  0  0  0  0  0  0  0  0
    7.2724   -0.6987   21.0385 C   0  0  0  0  0  0  0  0  0  0  0  0
    7.6395   -2.0222   21.0487 C   0  0  0  0  0  0  0  0  0  0  0  0
    7.3218   -2.7324   20.3003 H   0  0  0  0  0  0  0  0  0  0  0  0
    8.3733   -2.2753   22.2359 C   0  0  0  0  0  0  0  0  0  0  0  0
    8.8933   -3.1831   22.5080 H   0  0  0  0  0  0  0  0  0  0  0  0
    8.3778   -1.1085   22.9561 C   0  0  0  0  0  0  0  0  0  0  0  0
    8.7664   -0.8978   23.9447 H   0  0  0  0  0  0  0  0  0  0  0  0
    7.6942   -0.1473   22.2411 N   0  0  0  0  0  0  0  0  0  0  0  0
    7.4099    1.1788   22.7376 C   0  0  0  0  0  0  0  0  0  0  0  0
    7.3746    1.8960   21.9070 H   0  0  0  0  0  0  0  0  0  0  0  0
    8.2237    1.5057   23.3981 H   0  0  0  0  0  0  0  0  0  0  0  0
    6.1542    1.2120   23.4739 N   0  0  0  0  0  0  0  0  0  0  0  0
    5.6663    0.3447   23.6399 H   0  0  0  0  0  0  0  0  0  0  0  0
    5.6645    2.3853   23.9655 C   0  0  0  0  0  0  0  0  0  0  0  0
    6.2792    3.4315   23.8359 O   0  0  0  0  0  0  0  0  0  0  0  0
    4.2861    2.3070   24.6329 C   0  0  0  0  0  0  0  0  0  0  0  0
    4.0628    1.2477   24.8360 H   0  0  0  0  0  0  0  0  0  0  0  0
    4.2757    3.1011   25.9495 C   0  0  0  0  0  0  0  0  0  0  0  0
    4.4699    4.1604   25.7419 H   0  0  0  0  0  0  0  0  0  0  0  0
    3.2942    3.0246   26.4290 H   0  0  0  0  0  0  0  0  0  0  0  0
    5.0407    2.7549   26.6518 H   0  0  0  0  0  0  0  0  0  0  0  0
    3.2060    2.8733   23.6861 C   0  0  0  0  0  0  0  0  0  0  0  0
    3.2665    2.4449   22.6796 H   0  0  0  0  0  0  0  0  0  0  0  0
    3.3354    3.9554   23.5696 H   0  0  0  0  0  0  0  0  0  0  0  0
    2.2051    2.6932   24.0989 H   0  0  0  0  0  0  0  0  0  0  0  0
    5.3971    0.7524   20.1528 C   0  0  0  0  0  0  0  0  0  0  0  0
    4.9647    0.7944   21.1531 H   0  0  0  0  0  0  0  0  0  0  0  0
    4.7770    1.3711   19.0656 C   0  0  0  0  0  0  0  0  0  0  0  0
    3.8274    1.8833   19.1693 H   0  0  0  0  0  0  0  0  0  0  0  0
  1  2  1  0
  2  3  2  0
  3  4  1  0
  4  5  1  0
  4  6  2  0
  6  7  1  0
  7  8  2  0
  8  9  1  0
  8 10  1  0
 10 11  1  0
 10 12  2  0
 12 13  1  0
 12 14  1  0
 14 15  1  0
 15 16  1  0
 15 17  1  0
 15 18  1  0
 18 19  1  0
 18 20  1  0
 20 21  2  0
 20 22  1  0
 22 23  1  0
 22 24  1  0
 24 25  1  0
 24 26  1  0
 24 27  1  0
 22 28  1  0
 28 29  1  0
 28 30  1  0
 28 31  1  0
  6 32  1  0
 32 33  1  0
 32 34  2  0
 34 35  1  0
 34  2  1  0
 14  7  1  0
M  END
>  <cnnaffinity>  (1) 
-4.51037

>  <filename>  (1) 
CC(C)C(=O)NCn1cccc1-c1cccnc1

$$$$
