
     RDKit          3D

 30 31  0  0  0  0  0  0  0  0999 V2000
    4.9730    1.7844   16.9554 H   0  0  0  0  0  0  0  0  0  0  0  0
    5.4089    1.3180   17.8383 C   0  0  0  0  0  0  0  0  0  0  0  0
    6.5864    0.6980   17.6609 N   0  0  0  0  0  0  0  0  0  0  0  0
    7.1440    0.1093   18.7288 C   0  0  0  0  0  0  0  0  0  0  0  0
    8.0967   -0.3837   18.5409 H   0  0  0  0  0  0  0  0  0  0  0  0
    6.5873    0.1094   20.0264 C   0  0  0  0  0  0  0  0  0  0  0  0
    7.2376   -0.6497   21.1276 C   0  0  0  0  0  0  0  0  0  0  0  0
    7.6357   -1.9612   21.0955 C   0  0  0  0  0  0  0  0  0  0  0  0
    7.3915   -2.6203   20.2805 H   0  0  0  0  0  0  0  0  0  0  0  0
    8.3224   -2.2763   22.2926 C   0  0  0  0  0  0  0  0  0  0  0  0
    8.7991   -3.2279   22.5119 H   0  0  0  0  0  0  0  0  0  0  0  0
    8.3087   -1.1291   23.0518 C   0  0  0  0  0  0  0  0  0  0  0  0
    8.7030   -0.8981   24.0308 H   0  0  0  0  0  0  0  0  0  0  0  0
    7.6241   -0.1557   22.3704 N   0  0  0  0  0  0  0  0  0  0  0  0
    7.5091    1.1785   22.8230 N   0  0  0  0  0  0  0  0  0  0  0  0
    6.7742    1.5963   22.2572 H   0  0  0  0  0  0  0  0  0  0  0  0
    7.1292    1.3660   24.2371 C   0  0  0  0  0  0  0  0  0  0  0  0
    7.9644    1.0418   24.8798 H   0  0  0  0  0  0  0  0  0  0  0  0
    6.9382    2.8648   24.4110 C   0  0  0  0  0  0  0  0  0  0  0  0
    6.7965    3.1455   25.4583 H   0  0  0  0  0  0  0  0  0  0  0  0
    7.7984    3.4119   24.0181 H   0  0  0  0  0  0  0  0  0  0  0  0
    6.0558    3.2013   23.8558 H   0  0  0  0  0  0  0  0  0  0  0  0
    5.8942    0.5653   24.6301 C   0  0  0  0  0  0  0  0  0  0  0  0
    5.7038    0.6818   25.7001 H   0  0  0  0  0  0  0  0  0  0  0  0
    5.0031    0.8932   24.0841 H   0  0  0  0  0  0  0  0  0  0  0  0
    6.0366   -0.4951   24.4073 H   0  0  0  0  0  0  0  0  0  0  0  0
    5.3672    0.7872   20.1787 C   0  0  0  0  0  0  0  0  0  0  0  0
    4.9014    0.8171   21.1604 H   0  0  0  0  0  0  0  0  0  0  0  0
    4.7596    1.3845   19.0721 C   0  0  0  0  0  0  0  0  0  0  0  0
    3.8177    1.9142   19.1607 H   0  0  0  0  0  0  0  0  0  0  0  0
  1  2  1  0
  2  3  2  0
  3  4  1  0
  4  5  1  0
  4  6  2  0
  6  7  1  0
  7  8  2  0
  8  9  1  0
  8 10  1  0
 10 11  1  0
 10 12  2  0
 12 13  1  0
 12 14  1  0
 14 15  1  0
 15 16  1  0
 15 17  1  0
 17 18  1  0
 17 19  1  0
 19 20  1  0
 19 21  1  0
 19 22  1  0
 17 23  1  0
 23 24  1  0
 23 25  1  0
 23 26  1  0
  6 27  1  0
 27 28  1  0
 27 29  2  0
 29 30  1  0
 29  2  1  0
 14  7  1  0
M  END
>  <cnnaffinity>  (1) 
-4.14463

>  <filename>  (1) 
CC(C)Nn1cccc1-c1cccnc1

$$$$
