
     RDKit          3D

 34 35  0  0  0  0  0  0  0  0999 V2000
    4.9962    1.7562   17.0108 H   0  0  0  0  0  0  0  0  0  0  0  0
    5.4332    1.2649   17.8810 C   0  0  0  0  0  0  0  0  0  0  0  0
    6.5881    0.6203   17.6608 N   0  0  0  0  0  0  0  0  0  0  0  0
    7.1462   -0.0048   18.6990 C   0  0  0  0  0  0  0  0  0  0  0  0
    8.0943   -0.5107   18.5337 H   0  0  0  0  0  0  0  0  0  0  0  0
    6.5903   -0.0461   19.9791 C   0  0  0  0  0  0  0  0  0  0  0  0
    7.3804   -0.8352   20.9590 C   0  0  0  0  0  0  0  0  0  0  0  0
    8.5845   -0.9827   20.8230 O   0  0  0  0  0  0  0  0  0  0  0  0
    6.6743   -1.4290   21.9586 N   0  0  0  0  0  0  0  0  0  0  0  0
    5.7317   -1.1062   22.1074 H   0  0  0  0  0  0  0  0  0  0  0  0
    7.3340   -2.0433   23.1171 C   0  0  0  0  0  0  0  0  0  0  0  0
    8.3078   -1.0485   23.8099 C   0  0  0  0  0  0  0  0  0  0  0  0
    9.5846   -1.4570   24.2372 C   0  0  0  0  0  0  0  0  0  0  0  0
    9.8883   -2.4989   24.1718 H   0  0  0  0  0  0  0  0  0  0  0  0
   10.5257   -0.5557   24.7241 C   0  0  0  0  0  0  0  0  0  0  0  0
   11.4979   -0.8803   25.0564 H   0  0  0  0  0  0  0  0  0  0  0  0
   10.2085    0.7956   24.7990 C   0  0  0  0  0  0  0  0  0  0  0  0
   11.4721    1.9289   25.1232 Cl  0  0  0  0  0  0  0  0  0  0  0  0
    8.9148    1.2314   24.5387 C   0  0  0  0  0  0  0  0  0  0  0  0
    8.6219    2.2596   24.7199 H   0  0  0  0  0  0  0  0  0  0  0  0
    7.9780    0.3092   24.0596 C   0  0  0  0  0  0  0  0  0  0  0  0
    6.3809    0.9725   23.7971 Cl  0  0  0  0  0  0  0  0  0  0  0  0
    6.2272   -2.4061   24.1117 C   0  0  0  0  0  0  0  0  0  0  0  0
    5.4878   -3.0614   23.6346 H   0  0  0  0  0  0  0  0  0  0  0  0
    5.7276   -1.5008   24.4708 H   0  0  0  0  0  0  0  0  0  0  0  0
    6.6387   -2.9208   24.9865 H   0  0  0  0  0  0  0  0  0  0  0  0
    8.0310   -3.3305   22.6008 C   0  0  0  0  0  0  0  0  0  0  0  0
    8.4356   -3.9317   23.4255 H   0  0  0  0  0  0  0  0  0  0  0  0
    7.2904   -3.9380   22.0660 H   0  0  0  0  0  0  0  0  0  0  0  0
    8.8367   -3.0781   21.9028 H   0  0  0  0  0  0  0  0  0  0  0  0
    5.3897    0.6458   20.2098 C   0  0  0  0  0  0  0  0  0  0  0  0
    4.9264    0.6975   21.1996 H   0  0  0  0  0  0  0  0  0  0  0  0
    4.8030    1.3051   19.1284 C   0  0  0  0  0  0  0  0  0  0  0  0
    3.8685    1.8463   19.2259 H   0  0  0  0  0  0  0  0  0  0  0  0
  1  2  1  0
  2  3  2  0
  3  4  1  0
  4  5  1  0
  4  6  2  0
  6  7  1  0
  7  8  2  0
  7  9  1  0
  9 10  1  0
  9 11  1  0
 11 12  1  0
 12 13  2  0
 13 14  1  0
 13 15  1  0
 15 16  1  0
 15 17  2  0
 17 18  1  0
 17 19  1  0
 19 20  1  0
 19 21  2  0
 21 22  1  0
 11 23  1  0
 23 24  1  0
 23 25  1  0
 23 26  1  0
 11 27  1  0
 27 28  1  0
 27 29  1  0
 27 30  1  0
  6 31  1  0
 31 32  1  0
 31 33  2  0
 33 34  1  0
 33  2  1  0
 21 12  1  0
M  END
>  <cnnaffinity>  (1) 
-5.18149

>  <filename>  (1) 
CC(C)(NC(=O)c1cccnc1)c1ccc(Cl)cc1Cl

$$$$
