
     RDKit          3D

 39 41  0  0  0  0  0  0  0  0999 V2000
    7.9705   -0.0121   22.0591 C   0  0  0  0  0  0  0  0  0  0  0  0
    7.5094   -0.9580   20.9371 C   0  0  0  0  0  0  0  0  0  0  0  0
    6.8013   -0.1634   19.8322 C   0  0  0  0  0  0  0  0  0  0  0  0
    5.5602    0.4373   20.0849 C   0  0  0  0  0  0  0  0  0  0  0  0
    4.9345    1.1555   19.0651 C   0  0  0  0  0  0  0  0  0  0  0  0
    5.5709    1.2598   17.8241 C   0  0  0  0  0  0  0  0  0  0  0  0
    6.7627    0.7025   17.5627 N   0  0  0  0  0  0  0  0  0  0  0  0
    7.3569    0.0258   18.5569 C   0  0  0  0  0  0  0  0  0  0  0  0
    8.3363   -0.4002   18.3334 H   0  0  0  0  0  0  0  0  0  0  0  0
    5.1088    1.8176   17.0084 H   0  0  0  0  0  0  0  0  0  0  0  0
    3.9769    1.6361   19.2197 H   0  0  0  0  0  0  0  0  0  0  0  0
    5.0886    0.3314   21.0651 H   0  0  0  0  0  0  0  0  0  0  0  0
    6.6252   -2.0829   21.4593 C   0  0  0  0  0  0  0  0  0  0  0  0
    6.2159   -2.3570   22.6634 N   0  0  0  0  0  0  0  0  0  0  0  0
    5.3069   -3.3559   22.4316 C   0  0  0  0  0  0  0  0  0  0  0  0
    4.3698   -3.8207   23.4711 C   0  0  0  0  0  0  0  0  0  0  0  0
    5.1105   -3.8469   24.7656 C   0  0  0  0  0  0  0  0  0  0  0  0
    5.1789   -2.8702   25.4740 O   0  0  0  0  0  0  0  0  0  0  0  0
    5.6921   -5.0341   25.0680 N   0  0  0  0  0  0  0  0  0  0  0  0
    6.5423   -5.2132   26.1783 C   0  0  0  0  0  0  0  0  0  0  0  0
    7.5482   -4.2776   26.4523 C   0  0  0  0  0  0  0  0  0  0  0  0
    8.4821   -4.5689   27.4459 C   0  0  0  0  0  0  0  0  0  0  0  0
    8.3846   -5.7554   28.1767 C   0  0  0  0  0  0  0  0  0  0  0  0
    7.2976   -6.6099   27.9821 C   0  0  0  0  0  0  0  0  0  0  0  0
    6.3660   -6.3426   26.9790 C   0  0  0  0  0  0  0  0  0  0  0  0
    5.4928   -6.9746   26.8290 H   0  0  0  0  0  0  0  0  0  0  0  0
    7.2017   -7.5060   28.5861 H   0  0  0  0  0  0  0  0  0  0  0  0
    9.1551   -6.0107   28.8899 H   0  0  0  0  0  0  0  0  0  0  0  0
    9.2818   -3.8694   27.6508 H   0  0  0  0  0  0  0  0  0  0  0  0
    7.5700   -3.3434   25.8988 H   0  0  0  0  0  0  0  0  0  0  0  0
    5.4782   -5.8240   24.4954 H   0  0  0  0  0  0  0  0  0  0  0  0
    3.9073   -4.7625   23.1794 H   0  0  0  0  0  0  0  0  0  0  0  0
    3.6181   -3.0514   23.6319 H   0  0  0  0  0  0  0  0  0  0  0  0
    5.2248   -3.7521   21.1960 N   0  0  0  0  0  0  0  0  0  0  0  0
    6.1211   -2.9173   20.5432 O   0  0  0  0  0  0  0  0  0  0  0  0
    8.3819   -1.4683   20.5086 H   0  0  0  0  0  0  0  0  0  0  0  0
    7.1054    0.4720   22.5274 H   0  0  0  0  0  0  0  0  0  0  0  0
    8.5131   -0.5587   22.8335 H   0  0  0  0  0  0  0  0  0  0  0  0
    8.6210    0.7755   21.6671 H   0  0  0  0  0  0  0  0  0  0  0  0
  1  2  1  0
  2  3  1  0
  3  4  2  0
  4  5  1  0
  5  6  2  0
  6  7  1  0
  7  8  2  0
  8  9  1  0
  6 10  1  0
  5 11  1  0
  4 12  1  0
  2 13  1  0
 13 14  2  0
 14 15  1  0
 15 16  1  0
 16 17  1  0
 17 18  2  0
 17 19  1  0
 19 20  1  0
 20 21  2  0
 21 22  1  0
 22 23  2  0
 23 24  1  0
 24 25  2  0
 25 26  1  0
 24 27  1  0
 23 28  1  0
 22 29  1  0
 21 30  1  0
 19 31  1  0
 16 32  1  0
 16 33  1  0
 15 34  2  0
 34 35  1  0
  2 36  1  0
  1 37  1  0
  1 38  1  0
  1 39  1  0
  8  3  1  0
 35 13  1  0
 25 20  1  0
M  END
>  <cnnaffinity>  (1) 
-5.36822

>  <filename>  (1) 
CC(c1cccnc1)c1nc(CC(=O)Nc2ccccc2)no1

$$$$
