
     RDKit          3D

 36 38  0  0  0  0  0  0  0  0999 V2000
    6.8056    0.0406   22.4214 C   0  0  0  0  0  0  0  0  0  0  0  0
    7.0366   -0.6265   21.0257 C   0  0  0  0  0  0  0  0  0  0  0  0
    6.4218   -2.0484   21.0320 C   0  0  0  0  0  0  0  0  0  0  0  0
    6.9643   -2.6854   21.7398 H   0  0  0  0  0  0  0  0  0  0  0  0
    5.3703   -1.9977   21.3385 H   0  0  0  0  0  0  0  0  0  0  0  0
    6.4718   -2.5140   20.0363 H   0  0  0  0  0  0  0  0  0  0  0  0
    8.5953   -0.7191   20.8905 C   0  0  0  0  0  0  0  0  0  0  0  0
    9.2092   -1.7688   20.9519 O   0  0  0  0  0  0  0  0  0  0  0  0
    9.2515    0.4724   20.7249 N   0  0  0  0  0  0  0  0  0  0  0  0
   10.4362    0.8058   21.3450 C   0  0  0  0  0  0  0  0  0  0  0  0
   11.3824   -0.1055   21.7783 C   0  0  0  0  0  0  0  0  0  0  0  0
   12.5365    0.4525   22.3747 C   0  0  0  0  0  0  0  0  0  0  0  0
   12.6578    1.8619   22.4524 C   0  0  0  0  0  0  0  0  0  0  0  0
   11.6137    2.6888   21.9672 C   0  0  0  0  0  0  0  0  0  0  0  0
   10.5249    2.1532   21.4337 N   0  0  0  0  0  0  0  0  0  0  0  0
   11.6788    3.7739   22.0042 H   0  0  0  0  0  0  0  0  0  0  0  0
   13.8656    2.1033   23.0354 N   0  0  0  0  0  0  0  0  0  0  0  0
   14.5144    0.9616   23.3310 N   0  0  0  0  0  0  0  0  0  0  0  0
   13.7461   -0.0314   22.9614 C   0  0  0  0  0  0  0  0  0  0  0  0
   14.0992   -1.0443   23.0816 H   0  0  0  0  0  0  0  0  0  0  0  0
   14.3682    2.9760   23.1532 H   0  0  0  0  0  0  0  0  0  0  0  0
   11.2004   -1.1556   21.6010 H   0  0  0  0  0  0  0  0  0  0  0  0
    8.7165    1.3194   20.6594 H   0  0  0  0  0  0  0  0  0  0  0  0
    6.3915    0.1895   19.8793 C   0  0  0  0  0  0  0  0  0  0  0  0
    5.2400    0.9603   20.0934 C   0  0  0  0  0  0  0  0  0  0  0  0
    4.6755    1.6743   19.0372 C   0  0  0  0  0  0  0  0  0  0  0  0
    5.2728    1.5992   17.7782 C   0  0  0  0  0  0  0  0  0  0  0  0
    6.3426    0.8319   17.5194 N   0  0  0  0  0  0  0  0  0  0  0  0
    6.8668    0.1463   18.5463 C   0  0  0  0  0  0  0  0  0  0  0  0
    7.7363   -0.4602   18.2925 H   0  0  0  0  0  0  0  0  0  0  0  0
    4.8669    2.1693   16.9459 H   0  0  0  0  0  0  0  0  0  0  0  0
    3.8072    2.3040   19.1992 H   0  0  0  0  0  0  0  0  0  0  0  0
    4.7884    1.0242   21.0797 H   0  0  0  0  0  0  0  0  0  0  0  0
    5.7443    0.1571   22.6514 H   0  0  0  0  0  0  0  0  0  0  0  0
    7.2463   -0.5561   23.2280 H   0  0  0  0  0  0  0  0  0  0  0  0
    7.2636    1.0364   22.4613 H   0  0  0  0  0  0  0  0  0  0  0  0
  1  2  1  0
  2  3  1  0
  3  4  1  0
  3  5  1  0
  3  6  1  0
  2  7  1  0
  7  8  2  0
  7  9  1  0
  9 10  1  0
 10 11  2  0
 11 12  1  0
 12 13  2  0
 13 14  1  0
 14 15  2  0
 14 16  1  0
 13 17  1  0
 17 18  1  0
 18 19  2  0
 19 20  1  0
 17 21  1  0
 11 22  1  0
  9 23  1  0
  2 24  1  0
 24 25  2  0
 25 26  1  0
 26 27  2  0
 27 28  1  0
 28 29  2  0
 29 30  1  0
 27 31  1  0
 26 32  1  0
 25 33  1  0
  1 34  1  0
  1 35  1  0
  1 36  1  0
 15 10  1  0
 29 24  1  0
 19 12  1  0
M  END
>  <cnnaffinity>  (1) 
-5.8489

>  <filename>  (1) 
CC(C)(C(=O)Nc1cc2cn[nH]c2cn1)c1cccnc1

$$$$
