
     RDKit          3D

 39 41  0  0  0  0  0  0  0  0999 V2000
    5.1471    1.8109   16.8779 H   0  0  0  0  0  0  0  0  0  0  0  0
    5.5673    1.3271   17.7580 C   0  0  0  0  0  0  0  0  0  0  0  0
    6.7304    0.6815   17.5908 N   0  0  0  0  0  0  0  0  0  0  0  0
    7.2720    0.0896   18.6623 C   0  0  0  0  0  0  0  0  0  0  0  0
    8.2050   -0.4411   18.4694 H   0  0  0  0  0  0  0  0  0  0  0  0
    6.6751    0.0917   19.9227 C   0  0  0  0  0  0  0  0  0  0  0  0
    7.2607   -0.6945   21.0377 C   0  0  0  0  0  0  0  0  0  0  0  0
    6.5483   -1.3792   21.7575 O   0  0  0  0  0  0  0  0  0  0  0  0
    8.6023   -0.5723   21.2176 N   0  0  0  0  0  0  0  0  0  0  0  0
    9.1092   -0.0016   20.5668 H   0  0  0  0  0  0  0  0  0  0  0  0
    9.3924   -1.3674   22.1721 C   0  0  0  0  0  0  0  0  0  0  0  0
   10.8608   -0.9178   22.1178 C   0  0  0  0  0  0  0  0  0  0  0  0
   11.8634   -1.8659   22.0886 C   0  0  0  0  0  0  0  0  0  0  0  0
   11.6230   -2.9170   22.0338 H   0  0  0  0  0  0  0  0  0  0  0  0
   13.2020   -1.6269   22.1839 N   0  0  0  0  0  0  0  0  0  0  0  0
   13.5813   -0.3886   22.3808 C   0  0  0  0  0  0  0  0  0  0  0  0
   14.6439   -0.2144   22.5376 H   0  0  0  0  0  0  0  0  0  0  0  0
   12.6824    0.7190   22.4438 C   0  0  0  0  0  0  0  0  0  0  0  0
   13.1592    2.0380   22.7071 C   0  0  0  0  0  0  0  0  0  0  0  0
   14.2276    2.1936   22.8388 H   0  0  0  0  0  0  0  0  0  0  0  0
   12.2832    3.0905   22.7825 C   0  0  0  0  0  0  0  0  0  0  0  0
   12.6397    4.0932   23.0081 H   0  0  0  0  0  0  0  0  0  0  0  0
   10.9003    2.8718   22.5585 C   0  0  0  0  0  0  0  0  0  0  0  0
   10.2230    3.7202   22.5526 H   0  0  0  0  0  0  0  0  0  0  0  0
   10.4154    1.6028   22.3061 C   0  0  0  0  0  0  0  0  0  0  0  0
    9.3585    1.4743   22.1255 H   0  0  0  0  0  0  0  0  0  0  0  0
   11.2857    0.4632   22.2782 C   0  0  0  0  0  0  0  0  0  0  0  0
    8.8808   -1.1797   23.6163 C   0  0  0  0  0  0  0  0  0  0  0  0
    9.5064   -1.7704   24.2946 H   0  0  0  0  0  0  0  0  0  0  0  0
    7.8365   -1.4859   23.7107 H   0  0  0  0  0  0  0  0  0  0  0  0
    8.9645   -0.1336   23.9343 H   0  0  0  0  0  0  0  0  0  0  0  0
    9.2108   -2.8401   21.7272 C   0  0  0  0  0  0  0  0  0  0  0  0
    9.6797   -2.9632   20.7415 H   0  0  0  0  0  0  0  0  0  0  0  0
    9.6211   -3.5608   22.4413 H   0  0  0  0  0  0  0  0  0  0  0  0
    8.1443   -3.0503   21.6414 H   0  0  0  0  0  0  0  0  0  0  0  0
    5.4478    0.7553   20.0865 C   0  0  0  0  0  0  0  0  0  0  0  0
    4.9422    0.7438   21.0548 H   0  0  0  0  0  0  0  0  0  0  0  0
    4.8968    1.3991   18.9846 C   0  0  0  0  0  0  0  0  0  0  0  0
    3.9611    1.9405   19.0604 H   0  0  0  0  0  0  0  0  0  0  0  0
  1  2  1  0
  2  3  2  0
  3  4  1  0
  4  5  1  0
  4  6  2  0
  6  7  1  0
  7  8  2  0
  7  9  1  0
  9 10  1  0
  9 11  1  0
 11 12  1  0
 12 13  2  0
 13 14  1  0
 13 15  1  0
 15 16  2  0
 16 17  1  0
 16 18  1  0
 18 19  2  0
 19 20  1  0
 19 21  1  0
 21 22  1  0
 21 23  2  0
 23 24  1  0
 23 25  1  0
 25 26  1  0
 25 27  2  0
 11 28  1  0
 28 29  1  0
 28 30  1  0
 28 31  1  0
 11 32  1  0
 32 33  1  0
 32 34  1  0
 32 35  1  0
  6 36  1  0
 36 37  1  0
 36 38  2  0
 38 39  1  0
 38  2  1  0
 27 12  1  0
 27 18  1  0
M  END
>  <cnnaffinity>  (1) 
-5.94184

>  <filename>  (1) 
CC(C)(NC(=O)c1cccnc1)c1cncc2ccccc12

$$$$
