
     RDKit          3D

 43 44  0  0  0  0  0  0  0  0999 V2000
    6.6495   -1.9585   21.3987 C   0  0  0  0  0  0  0  0  0  0  0  0
    7.4766   -0.7830   20.8905 C   0  0  0  0  0  0  0  0  0  0  0  0
    6.7122    0.0240   19.8644 C   0  0  0  0  0  0  0  0  0  0  0  0
    5.4966    0.6746   20.1298 C   0  0  0  0  0  0  0  0  0  0  0  0
    4.8508    1.3402   19.0852 C   0  0  0  0  0  0  0  0  0  0  0  0
    5.4372    1.3383   17.8155 C   0  0  0  0  0  0  0  0  0  0  0  0
    6.5937    0.7189   17.5407 N   0  0  0  0  0  0  0  0  0  0  0  0
    7.2011    0.0874   18.5527 C   0  0  0  0  0  0  0  0  0  0  0  0
    8.1402   -0.4081   18.3038 H   0  0  0  0  0  0  0  0  0  0  0  0
    4.9574    1.8489   16.9818 H   0  0  0  0  0  0  0  0  0  0  0  0
    3.9182    1.8712   19.2406 H   0  0  0  0  0  0  0  0  0  0  0  0
    5.0540    0.6585   21.1299 H   0  0  0  0  0  0  0  0  0  0  0  0
    7.8823    0.1256   22.0642 N   0  0  0  0  0  4  0  0  0  0  0  0
    8.4725   -0.5814   23.2561 C   0  0  0  0  0  0  0  0  0  0  0  0
    9.3236   -1.2115   22.9613 H   0  0  0  0  0  0  0  0  0  0  0  0
    8.8352    0.1589   23.9745 H   0  0  0  0  0  0  0  0  0  0  0  0
    7.7304   -1.2136   23.7540 H   0  0  0  0  0  0  0  0  0  0  0  0
    8.7903    1.3114   21.6689 C   0  0  0  0  0  0  0  0  0  0  0  0
    8.7893    2.4849   22.6782 C   0  0  0  0  0  0  0  0  0  0  0  0
    7.7570    3.0835   22.9024 O   0  0  0  0  0  0  0  0  0  0  0  0
    9.9718    2.7377   23.3208 N   0  0  0  0  0  0  0  0  0  0  0  0
   10.1019    3.6639   24.3828 C   0  0  0  0  0  0  0  0  0  0  0  0
    9.1235    3.7394   25.3794 C   0  0  0  0  0  0  0  0  0  0  0  0
    9.1944    4.7226   26.3680 C   0  0  0  0  0  0  0  0  0  0  0  0
   10.2235    5.6634   26.3419 C   0  0  0  0  0  0  0  0  0  0  0  0
   11.2324    5.5670   25.3800 C   0  0  0  0  0  0  0  0  0  0  0  0
   11.2224    4.5140   24.4436 C   0  0  0  0  0  0  0  0  0  0  0  0
   12.3630    4.2919   23.4819 C   0  0  0  0  0  0  0  0  0  0  0  0
   12.7930    2.9971   23.4832 F   0  0  0  0  0  0  0  0  0  0  0  0
   13.4337    5.0540   23.7578 F   0  0  0  0  0  0  0  0  0  0  0  0
   12.0154    4.5608   22.2090 F   0  0  0  0  0  0  0  0  0  0  0  0
   12.0132    6.3232   25.3449 H   0  0  0  0  0  0  0  0  0  0  0  0
   10.2491    6.4577   27.0817 H   0  0  0  0  0  0  0  0  0  0  0  0
    8.4206    4.7675   27.1311 H   0  0  0  0  0  0  0  0  0  0  0  0
    8.3086    3.0293   25.3465 H   0  0  0  0  0  0  0  0  0  0  0  0
   10.8061    2.3587   22.9069 H   0  0  0  0  0  0  0  0  0  0  0  0
    8.3924    1.7113   20.7375 H   0  0  0  0  0  0  0  0  0  0  0  0
    9.8031    0.9543   21.4662 H   0  0  0  0  0  0  0  0  0  0  0  0
    6.9507    0.5270   22.3350 H   0  0  0  0  0  0  0  0  0  0  0  0
    8.4007   -1.1522   20.4276 H   0  0  0  0  0  0  0  0  0  0  0  0
    5.8215   -1.6006   22.0191 H   0  0  0  0  0  0  0  0  0  0  0  0
    7.2609   -2.6392   21.9979 H   0  0  0  0  0  0  0  0  0  0  0  0
    6.2262   -2.5152   20.5611 H   0  0  0  0  0  0  0  0  0  0  0  0
  1  2  1  0
  2  3  1  0
  3  4  2  0
  4  5  1  0
  5  6  2  0
  6  7  1  0
  7  8  2  0
  8  9  1  0
  6 10  1  0
  5 11  1  0
  4 12  1  0
  2 13  1  0
 13 14  1  0
 14 15  1  0
 14 16  1  0
 14 17  1  0
 13 18  1  0
 18 19  1  0
 19 20  2  0
 19 21  1  0
 21 22  1  0
 22 23  2  0
 23 24  1  0
 24 25  2  0
 25 26  1  0
 26 27  2  0
 27 28  1  0
 28 29  1  0
 28 30  1  0
 28 31  1  0
 26 32  1  0
 25 33  1  0
 24 34  1  0
 23 35  1  0
 21 36  1  0
 18 37  1  0
 18 38  1  0
 13 39  1  0
  2 40  1  0
  1 41  1  0
  1 42  1  0
  1 43  1  0
  8  3  1  0
 27 22  1  0
M  CHG  1  13   1
M  END
>  <cnnaffinity>  (1) 
-5.06284

>  <filename>  (1) 
CC(c1cccnc1)[NH+](C)CC(=O)Nc1ccccc1C(F)(F)F

$$$$
