
     RDKit          3D

 31 32  0  0  0  0  0  0  0  0999 V2000
    4.9378    1.8072   16.9766 H   0  0  0  0  0  0  0  0  0  0  0  0
    5.4000    1.2974   17.8193 C   0  0  0  0  0  0  0  0  0  0  0  0
    6.5637    0.6792   17.5611 N   0  0  0  0  0  0  0  0  0  0  0  0
    7.1760    0.0741   18.5861 C   0  0  0  0  0  0  0  0  0  0  0  0
    8.1211   -0.4126   18.3456 H   0  0  0  0  0  0  0  0  0  0  0  0
    6.6743    0.0181   19.8995 C   0  0  0  0  0  0  0  0  0  0  0  0
    7.4210   -0.6910   20.9851 C   0  0  0  0  0  0  0  0  0  0  0  0
    6.7571   -1.5455   21.8884 C   0  0  0  0  0  0  0  0  0  0  0  0
    5.6870   -1.7318   21.8094 H   0  0  0  0  0  0  0  0  0  0  0  0
    7.3818   -2.2221   22.8641 N   0  0  0  0  0  0  0  0  0  0  0  0
    8.7038   -2.0646   22.9969 C   0  0  0  0  0  0  0  0  0  0  0  0
    9.1568   -2.6225   23.8186 H   0  0  0  0  0  0  0  0  0  0  0  0
    9.4958   -1.2364   22.1524 C   0  0  0  0  0  0  0  0  0  0  0  0
   10.8678   -1.1426   22.3360 N   0  0  0  0  0  0  0  0  0  0  0  0
   11.2747   -1.6704   23.0911 H   0  0  0  0  0  0  0  0  0  0  0  0
   11.7632   -0.2144   21.6790 C   0  0  0  0  0  0  0  0  0  0  0  0
   11.5831   -0.2934   20.5985 H   0  0  0  0  0  0  0  0  0  0  0  0
   11.5420    1.2419   22.1154 C   0  0  0  0  0  0  0  0  0  0  0  0
   10.5013    1.5473   21.9691 H   0  0  0  0  0  0  0  0  0  0  0  0
   11.7757    1.3718   23.1799 H   0  0  0  0  0  0  0  0  0  0  0  0
   12.1757    1.9276   21.5401 H   0  0  0  0  0  0  0  0  0  0  0  0
   13.1803   -0.7059   21.9852 C   0  0  0  0  0  0  0  0  0  0  0  0
   13.3381   -0.7769   23.0646 H   0  0  0  0  0  0  0  0  0  0  0  0
   13.9576   -0.0418   21.5997 H   0  0  0  0  0  0  0  0  0  0  0  0
   13.3628   -1.6972   21.5607 H   0  0  0  0  0  0  0  0  0  0  0  0
    8.8143   -0.5514   21.1252 C   0  0  0  0  0  0  0  0  0  0  0  0
    9.3755    0.1013   20.4560 H   0  0  0  0  0  0  0  0  0  0  0  0
    5.4400    0.6537   20.1395 C   0  0  0  0  0  0  0  0  0  0  0  0
    5.0121    0.6529   21.1431 H   0  0  0  0  0  0  0  0  0  0  0  0
    4.8026    1.3096   19.0825 C   0  0  0  0  0  0  0  0  0  0  0  0
    3.8678    1.8416   19.2277 H   0  0  0  0  0  0  0  0  0  0  0  0
  1  2  1  0
  2  3  2  0
  3  4  1  0
  4  5  1  0
  4  6  2  0
  6  7  1  0
  7  8  2  0
  8  9  1  0
  8 10  1  0
 10 11  2  0
 11 12  1  0
 11 13  1  0
 13 14  1  0
 14 15  1  0
 14 16  1  0
 16 17  1  0
 16 18  1  0
 18 19  1  0
 18 20  1  0
 18 21  1  0
 16 22  1  0
 22 23  1  0
 22 24  1  0
 22 25  1  0
 13 26  2  0
 26 27  1  0
  6 28  1  0
 28 29  1  0
 28 30  2  0
 30 31  1  0
 30  2  1  0
 26  7  1  0
M  END
>  <cnnaffinity>  (1) 
-4.7857

>  <filename>  (1) 
CC(C)Nc1cncc(-c2cccnc2)c1

$$$$
