
     RDKit          3D

 48 51  0  0  0  0  0  0  0  0999 V2000
   11.9074   -1.2121   21.2501 C   0  0  0  0  0  0  0  0  0  0  0  0
   11.2553   -1.7141   22.5441 C   0  0  0  0  0  0  0  0  0  0  0  0
   11.1185   -0.5374   23.5240 C   0  0  0  0  0  0  0  0  0  0  0  0
   10.6462   -0.9349   24.8064 O   0  0  0  0  0  0  0  0  0  0  0  0
   11.2934   -0.7056   25.4826 H   0  0  0  0  0  0  0  0  0  0  0  0
   12.1033   -0.0585   23.6193 H   0  0  0  0  0  0  0  0  0  0  0  0
   10.4315    0.2235   23.1224 H   0  0  0  0  0  0  0  0  0  0  0  0
    9.9587   -2.5093   22.2860 C   0  0  0  0  0  0  0  0  0  0  0  0
    8.7578   -1.7298   22.0627 N   0  0  0  0  0  0  0  0  0  0  0  0
    8.5130   -1.2648   20.8170 N   0  0  0  0  0  0  0  0  0  0  0  0
    7.3534   -0.6503   20.9572 C   0  0  0  0  0  0  0  0  0  0  0  0
    6.6445    0.0235   19.8808 C   0  0  0  0  0  0  0  0  0  0  0  0
    5.4204    0.6693   20.1181 C   0  0  0  0  0  0  0  0  0  0  0  0
    4.8079    1.3156   19.0517 C   0  0  0  0  0  0  0  0  0  0  0  0
    5.4309    1.2909   17.7984 C   0  0  0  0  0  0  0  0  0  0  0  0
    6.5928    0.6606   17.5617 N   0  0  0  0  0  0  0  0  0  0  0  0
    7.1823    0.0442   18.5901 C   0  0  0  0  0  0  0  0  0  0  0  0
    8.1274   -0.4556   18.3766 H   0  0  0  0  0  0  0  0  0  0  0  0
    4.9804    1.7953   16.9465 H   0  0  0  0  0  0  0  0  0  0  0  0
    3.8745    1.8517   19.1818 H   0  0  0  0  0  0  0  0  0  0  0  0
    4.9876    0.6615   21.1221 H   0  0  0  0  0  0  0  0  0  0  0  0
    6.8436   -0.7009   22.2113 N   0  0  0  0  0  0  0  0  0  0  0  0
    7.7425   -1.3869   22.8826 C   0  0  0  0  0  0  0  0  0  0  0  0
    7.6916   -1.8681   24.3170 C   0  0  0  0  0  0  0  0  0  0  0  0
    6.7148   -1.1771   25.1428 N   0  0  0  0  0  0  0  0  0  0  0  0
    5.3817   -1.5859   25.1899 C   0  0  0  0  0  0  0  0  0  0  0  0
    4.9887   -2.6972   24.9192 O   0  0  0  0  0  0  0  0  0  0  0  0
    4.5509   -0.3875   25.6253 C   0  0  0  0  0  0  0  0  0  0  0  0
    5.5658    0.7111   25.7828 C   0  0  0  0  0  0  0  0  0  0  0  0
    5.4387    2.0546   26.1242 C   0  0  0  0  0  0  0  0  0  0  0  0
    6.6020    2.8301   26.1695 C   0  0  0  0  0  0  0  0  0  0  0  0
    6.5102    4.1271   26.5160 F   0  0  0  0  0  0  0  0  0  0  0  0
    7.8639    2.3072   25.8621 C   0  0  0  0  0  0  0  0  0  0  0  0
    7.9842    0.9601   25.4969 C   0  0  0  0  0  0  0  0  0  0  0  0
    6.8262    0.1798   25.4757 C   0  0  0  0  0  0  0  0  0  0  0  0
    8.9434    0.5123   25.2370 H   0  0  0  0  0  0  0  0  0  0  0  0
    8.7286    2.9620   25.9078 H   0  0  0  0  0  0  0  0  0  0  0  0
    4.4798    2.5158   26.3435 H   0  0  0  0  0  0  0  0  0  0  0  0
    4.0104   -0.6480   26.5359 H   0  0  0  0  0  0  0  0  0  0  0  0
    3.7979   -0.1834   24.8626 H   0  0  0  0  0  0  0  0  0  0  0  0
    7.4467   -2.9357   24.3270 H   0  0  0  0  0  0  0  0  0  0  0  0
    8.6817   -1.7582   24.7683 H   0  0  0  0  0  0  0  0  0  0  0  0
   10.0751   -3.0542   21.3533 H   0  0  0  0  0  0  0  0  0  0  0  0
    9.7619   -3.2248   23.0942 H   0  0  0  0  0  0  0  0  0  0  0  0
   11.9122   -2.4748   22.9719 H   0  0  0  0  0  0  0  0  0  0  0  0
   11.1894   -0.6313   20.6581 H   0  0  0  0  0  0  0  0  0  0  0  0
   12.2592   -2.0410   20.6271 H   0  0  0  0  0  0  0  0  0  0  0  0
   12.7794   -0.5828   21.4734 H   0  0  0  0  0  0  0  0  0  0  0  0
  1  2  1  0
  2  3  1  0
  3  4  1  0
  4  5  1  0
  3  6  1  0
  3  7  1  0
  2  8  1  0
  8  9  1  0
  9 10  1  0
 10 11  2  0
 11 12  1  0
 12 13  2  0
 13 14  1  0
 14 15  2  0
 15 16  1  0
 16 17  2  0
 17 18  1  0
 15 19  1  0
 14 20  1  0
 13 21  1  0
 11 22  1  0
 22 23  2  0
 23 24  1  0
 24 25  1  0
 25 26  1  0
 26 27  2  0
 26 28  1  0
 28 29  1  0
 29 30  2  0
 30 31  1  0
 31 32  1  0
 31 33  2  0
 33 34  1  0
 34 35  2  0
 34 36  1  0
 33 37  1  0
 30 38  1  0
 28 39  1  0
 28 40  1  0
 24 41  1  0
 24 42  1  0
  8 43  1  0
  8 44  1  0
  2 45  1  0
  1 46  1  0
  1 47  1  0
  1 48  1  0
 23  9  1  0
 35 25  1  0
 17 12  1  0
 35 29  1  0
M  END
>  <cnnaffinity>  (1) 
-5.91666

>  <filename>  (1) 
CC(CO)Cn1nc(-c2cccnc2)nc1CN1C(=O)Cc2cc(F)ccc21

$$$$
