
     RDKit          3D

 43 46  0  0  0  0  0  0  0  0999 V2000
   11.6269   -0.4411   21.3732 C   0  0  0  0  0  0  0  0  0  0  0  0
   11.2008   -1.3368   22.5357 C   0  0  0  0  0  0  0  0  0  0  0  0
   10.9103   -0.5105   23.7890 C   0  0  0  0  0  0  0  0  0  0  0  0
   10.6077   -1.3898   24.8412 O   0  0  0  0  0  0  0  0  0  0  0  0
   10.4000   -0.8720   25.6287 H   0  0  0  0  0  0  0  0  0  0  0  0
   10.0849    0.2024   23.5938 H   0  0  0  0  0  0  0  0  0  0  0  0
   11.8080    0.0857   24.0237 H   0  0  0  0  0  0  0  0  0  0  0  0
   10.0631   -2.3092   22.1952 C   0  0  0  0  0  0  0  0  0  0  0  0
    8.7395   -1.7260   22.0052 N   0  0  0  0  0  0  0  0  0  0  0  0
    8.4389   -1.2550   20.7688 N   0  0  0  0  0  0  0  0  0  0  0  0
    7.3134   -0.5942   20.9599 C   0  0  0  0  0  0  0  0  0  0  0  0
    6.5981    0.0722   19.8724 C   0  0  0  0  0  0  0  0  0  0  0  0
    5.3687    0.7245   20.0680 C   0  0  0  0  0  0  0  0  0  0  0  0
    4.7809    1.3573   18.9744 C   0  0  0  0  0  0  0  0  0  0  0  0
    5.4344    1.3118   17.7370 C   0  0  0  0  0  0  0  0  0  0  0  0
    6.5895    0.6616   17.5330 N   0  0  0  0  0  0  0  0  0  0  0  0
    7.1530    0.0549   18.5825 C   0  0  0  0  0  0  0  0  0  0  0  0
    8.0817   -0.4741   18.3716 H   0  0  0  0  0  0  0  0  0  0  0  0
    5.0065    1.8128   16.8719 H   0  0  0  0  0  0  0  0  0  0  0  0
    3.8433    1.8945   19.0700 H   0  0  0  0  0  0  0  0  0  0  0  0
    4.8963    0.7242   21.0534 H   0  0  0  0  0  0  0  0  0  0  0  0
    6.8898   -0.5798   22.2460 N   0  0  0  0  0  0  0  0  0  0  0  0
    7.7850   -1.3159   22.8836 C   0  0  0  0  0  0  0  0  0  0  0  0
    7.7122   -1.7291   24.2868 C   0  0  0  0  0  0  0  0  0  0  0  0
    7.5364   -0.9377   25.3754 C   0  0  0  0  0  0  0  0  0  0  0  0
    7.6017   -1.6355   26.5446 O   0  0  0  0  0  0  0  0  0  0  0  0
    7.7898   -2.9380   26.2093 C   0  0  0  0  0  0  0  0  0  0  0  0
    7.8600   -4.0112   27.1032 C   0  0  0  0  0  0  0  0  0  0  0  0
    7.9534   -5.2700   26.5281 C   0  0  0  0  0  0  0  0  0  0  0  0
    7.9723   -6.3399   27.3377 F   0  0  0  0  0  0  0  0  0  0  0  0
    8.0269   -5.4682   25.1378 C   0  0  0  0  0  0  0  0  0  0  0  0
    7.9895   -4.3729   24.2814 C   0  0  0  0  0  0  0  0  0  0  0  0
    7.8625   -3.0801   24.8184 C   0  0  0  0  0  0  0  0  0  0  0  0
    8.0375   -4.5075   23.2038 H   0  0  0  0  0  0  0  0  0  0  0  0
    8.1278   -6.4755   24.7585 H   0  0  0  0  0  0  0  0  0  0  0  0
    7.8608   -3.8939   28.1738 H   0  0  0  0  0  0  0  0  0  0  0  0
    7.3907    0.1336   25.4908 H   0  0  0  0  0  0  0  0  0  0  0  0
   10.2692   -2.7771   21.2380 H   0  0  0  0  0  0  0  0  0  0  0  0
   10.0074   -3.0779   22.9643 H   0  0  0  0  0  0  0  0  0  0  0  0
   12.0637   -1.9847   22.7391 H   0  0  0  0  0  0  0  0  0  0  0  0
   12.1107   -1.0268   20.5838 H   0  0  0  0  0  0  0  0  0  0  0  0
   12.3607    0.2920   21.7261 H   0  0  0  0  0  0  0  0  0  0  0  0
   10.7897    0.1037   20.9262 H   0  0  0  0  0  0  0  0  0  0  0  0
  1  2  1  0
  2  3  1  0
  3  4  1  0
  4  5  1  0
  3  6  1  0
  3  7  1  0
  2  8  1  0
  8  9  1  0
  9 10  1  0
 10 11  2  0
 11 12  1  0
 12 13  2  0
 13 14  1  0
 14 15  2  0
 15 16  1  0
 16 17  2  0
 17 18  1  0
 15 19  1  0
 14 20  1  0
 13 21  1  0
 11 22  1  0
 22 23  2  0
 23 24  1  0
 24 25  2  0
 25 26  1  0
 26 27  1  0
 27 28  2  0
 28 29  1  0
 29 30  1  0
 29 31  2  0
 31 32  1  0
 32 33  2  0
 32 34  1  0
 31 35  1  0
 28 36  1  0
 25 37  1  0
  8 38  1  0
  8 39  1  0
  2 40  1  0
  1 41  1  0
  1 42  1  0
  1 43  1  0
 23  9  1  0
 33 24  1  0
 17 12  1  0
 33 27  1  0
M  END
>  <cnnaffinity>  (1) 
-5.97722

>  <filename>  (1) 
CC(CO)Cn1nc(-c2cccnc2)nc1-c1coc2cc(F)ccc12

$$$$
