
     RDKit          3D

 35 37  0  0  0  0  0  0  0  0999 V2000
    8.5815    0.0107   23.6184 C   0  0  0  0  0  0  0  0  0  0  0  0
    8.7280   -1.4647   23.2189 C   0  0  0  0  0  0  0  0  0  0  0  0
    9.1533   -2.3164   24.3850 C   0  0  0  0  0  0  0  0  0  0  0  0
   10.2312   -3.2078   24.2596 C   0  0  0  0  0  0  0  0  0  0  0  0
   10.5583   -4.0573   25.3131 C   0  0  0  0  0  0  0  0  0  0  0  0
    9.8459   -3.9964   26.5091 C   0  0  0  0  0  0  0  0  0  0  0  0
   10.3631   -5.1049   27.9517 Br  0  0  0  0  0  0  0  0  0  0  0  0
    8.7993   -3.0874   26.6534 C   0  0  0  0  0  0  0  0  0  0  0  0
    8.4370   -2.2639   25.5924 C   0  0  0  0  0  0  0  0  0  0  0  0
    7.3905   -1.4217   25.7469 F   0  0  0  0  0  0  0  0  0  0  0  0
    8.2609   -3.0103   27.5902 H   0  0  0  0  0  0  0  0  0  0  0  0
   11.3797   -4.7584   25.2078 H   0  0  0  0  0  0  0  0  0  0  0  0
   10.8154   -3.2577   23.3454 H   0  0  0  0  0  0  0  0  0  0  0  0
    7.4553   -1.9805   22.6918 N   0  0  0  0  0  0  0  0  0  0  0  0
    6.5511   -2.8402   23.2867 C   0  0  0  0  0  0  0  0  0  0  0  0
    5.5609   -3.0904   22.4667 N   0  0  0  0  0  0  0  0  0  0  0  0
    5.7774   -2.3406   21.3337 N   0  0  0  0  0  0  0  0  0  0  0  0
    6.9057   -1.6930   21.4762 C   0  0  0  0  0  0  0  0  0  0  0  0
    7.5304   -0.8495   20.5661 N   0  0  0  0  0  0  0  0  0  0  0  0
    6.8110   -0.1677   19.5636 C   0  0  0  0  0  0  0  0  0  0  0  0
    5.5386    0.3156   19.8692 C   0  0  0  0  0  0  0  0  0  0  0  0
    4.8759    1.0968   18.9194 C   0  0  0  0  0  0  0  0  0  0  0  0
    5.4846    1.3549   17.6819 C   0  0  0  0  0  0  0  0  0  0  0  0
    6.6897    0.8523   17.3440 N   0  0  0  0  0  0  0  0  0  0  0  0
    7.3369    0.1117   18.2718 C   0  0  0  0  0  0  0  0  0  0  0  0
    8.3186   -0.2815   18.0209 H   0  0  0  0  0  0  0  0  0  0  0  0
    4.9830    2.0074   16.9776 H   0  0  0  0  0  0  0  0  0  0  0  0
    3.9092    1.5360   19.1447 H   0  0  0  0  0  0  0  0  0  0  0  0
    5.1040    0.1133   20.8472 H   0  0  0  0  0  0  0  0  0  0  0  0
    8.3348   -0.3674   20.9556 H   0  0  0  0  0  0  0  0  0  0  0  0
    6.6699   -3.2811   24.2742 H   0  0  0  0  0  0  0  0  0  0  0  0
    9.5000   -1.5355   22.4407 H   0  0  0  0  0  0  0  0  0  0  0  0
    7.8072    0.1451   24.3795 H   0  0  0  0  0  0  0  0  0  0  0  0
    9.5275    0.3787   24.0282 H   0  0  0  0  0  0  0  0  0  0  0  0
    8.3106    0.6219   22.7512 H   0  0  0  0  0  0  0  0  0  0  0  0
  1  2  1  0
  2  3  1  0
  3  4  2  0
  4  5  1  0
  5  6  2  0
  6  7  1  0
  6  8  1  0
  8  9  2  0
  9 10  1  0
  8 11  1  0
  5 12  1  0
  4 13  1  0
  2 14  1  0
 14 15  1  0
 15 16  2  0
 16 17  1  0
 17 18  2  0
 18 19  1  0
 19 20  1  0
 20 21  2  0
 21 22  1  0
 22 23  2  0
 23 24  1  0
 24 25  2  0
 25 26  1  0
 23 27  1  0
 22 28  1  0
 21 29  1  0
 19 30  1  0
 15 31  1  0
  2 32  1  0
  1 33  1  0
  1 34  1  0
  1 35  1  0
  9  3  1  0
 18 14  1  0
 25 20  1  0
M  END
>  <cnnaffinity>  (1) 
-5.8551

>  <filename>  (1) 
CC(c1ccc(Br)cc1F)n1cnnc1Nc1cccnc1

$$$$
