
     RDKit          3D

 41 43  0  0  0  0  0  0  0  0999 V2000
    5.1034    1.7908   16.8514 H   0  0  0  0  0  0  0  0  0  0  0  0
    5.5047    1.3169   17.7454 C   0  0  0  0  0  0  0  0  0  0  0  0
    6.6705    0.6745   17.6019 N   0  0  0  0  0  0  0  0  0  0  0  0
    7.1903    0.1015   18.6987 C   0  0  0  0  0  0  0  0  0  0  0  0
    8.1428   -0.4000   18.5405 H   0  0  0  0  0  0  0  0  0  0  0  0
    6.5973    0.1214   19.9790 C   0  0  0  0  0  0  0  0  0  0  0  0
    7.3142   -0.3830   21.2562 C   0  0  0  0  0  0  0  0  0  0  0  0
    6.3967   -1.3027   22.1548 C   0  0  0  0  0  0  0  0  0  0  0  0
    5.6365   -2.0899   21.6341 O   0  0  0  0  0  0  0  0  0  0  0  0
    6.6315   -1.3413   23.6727 C   0  0  0  0  0  0  0  0  0  0  0  0
    7.2452   -0.4999   24.0017 H   0  0  0  0  0  0  0  0  0  0  0  0
    5.6896   -1.2562   24.2169 H   0  0  0  0  0  0  0  0  0  0  0  0
    7.2612   -2.6572   24.0764 C   0  0  0  0  0  0  0  0  0  0  0  0
    6.4503   -3.8282   24.1712 C   0  0  0  0  0  0  0  0  0  0  0  0
    5.4103   -3.7503   23.8652 H   0  0  0  0  0  0  0  0  0  0  0  0
    6.9744   -5.0142   24.6182 C   0  0  0  0  0  0  0  0  0  0  0  0
    6.3439   -5.8968   24.7335 H   0  0  0  0  0  0  0  0  0  0  0  0
    8.3619   -5.1018   24.9448 C   0  0  0  0  0  0  0  0  0  0  0  0
    8.9414   -6.2673   25.5185 C   0  0  0  0  0  0  0  0  0  0  0  0
    8.2909   -7.0769   25.8282 H   0  0  0  0  0  0  0  0  0  0  0  0
   10.2964   -6.3493   25.7062 C   0  0  0  0  0  0  0  0  0  0  0  0
   10.7219   -7.2570   26.1231 H   0  0  0  0  0  0  0  0  0  0  0  0
   11.1486   -5.2682   25.3367 C   0  0  0  0  0  0  0  0  0  0  0  0
   12.2247   -5.3684   25.4106 H   0  0  0  0  0  0  0  0  0  0  0  0
   10.6112   -4.0908   24.8836 C   0  0  0  0  0  0  0  0  0  0  0  0
   11.2288   -3.2330   24.6304 H   0  0  0  0  0  0  0  0  0  0  0  0
    9.2054   -3.9670   24.7185 C   0  0  0  0  0  0  0  0  0  0  0  0
    8.6049   -2.7371   24.3392 C   0  0  0  0  0  0  0  0  0  0  0  0
    9.2295   -1.8504   24.2967 H   0  0  0  0  0  0  0  0  0  0  0  0
    8.5251   -1.2891   20.9357 C   0  0  0  0  0  0  0  0  0  0  0  0
    8.2004   -2.2051   20.4322 H   0  0  0  0  0  0  0  0  0  0  0  0
    9.0216   -1.5852   21.8637 H   0  0  0  0  0  0  0  0  0  0  0  0
    9.2693   -0.7720   20.3220 H   0  0  0  0  0  0  0  0  0  0  0  0
    7.8152    0.8759   22.0066 C   0  0  0  0  0  0  0  0  0  0  0  0
    8.3726    1.5109   21.3103 H   0  0  0  0  0  0  0  0  0  0  0  0
    8.4950    0.6169   22.8253 H   0  0  0  0  0  0  0  0  0  0  0  0
    6.9873    1.4713   22.4123 H   0  0  0  0  0  0  0  0  0  0  0  0
    5.3657    0.7851   20.0895 C   0  0  0  0  0  0  0  0  0  0  0  0
    4.8593    0.8358   21.0559 H   0  0  0  0  0  0  0  0  0  0  0  0
    4.8121    1.3913   18.9580 C   0  0  0  0  0  0  0  0  0  0  0  0
    3.8787    1.9391   19.0097 H   0  0  0  0  0  0  0  0  0  0  0  0
  1  2  1  0
  2  3  2  0
  3  4  1  0
  4  5  1  0
  4  6  2  0
  6  7  1  0
  7  8  1  0
  8  9  2  0
  8 10  1  0
 10 11  1  0
 10 12  1  0
 10 13  1  0
 13 14  2  0
 14 15  1  0
 14 16  1  0
 16 17  1  0
 16 18  2  0
 18 19  1  0
 19 20  1  0
 19 21  2  0
 21 22  1  0
 21 23  1  0
 23 24  1  0
 23 25  2  0
 25 26  1  0
 25 27  1  0
 27 28  2  0
 28 29  1  0
  7 30  1  0
 30 31  1  0
 30 32  1  0
 30 33  1  0
  7 34  1  0
 34 35  1  0
 34 36  1  0
 34 37  1  0
  6 38  1  0
 38 39  1  0
 38 40  2  0
 40 41  1  0
 40  2  1  0
 28 13  1  0
 27 18  1  0
M  END
>  <cnnaffinity>  (1) 
-5.45832

>  <filename>  (1) 
CC(C)(C(=O)Cc1ccc2ccccc2c1)c1cccnc1

$$$$
