
     RDKit          3D

 34 35  0  0  0  0  0  0  0  0999 V2000
    5.1843    1.8090   16.8492 H   0  0  0  0  0  0  0  0  0  0  0  0
    5.5804    1.3359   17.7436 C   0  0  0  0  0  0  0  0  0  0  0  0
    6.7361    0.6707   17.5993 N   0  0  0  0  0  0  0  0  0  0  0  0
    7.2476    0.0833   18.6856 C   0  0  0  0  0  0  0  0  0  0  0  0
    8.1796   -0.4564   18.5235 H   0  0  0  0  0  0  0  0  0  0  0  0
    6.6378    0.1120   19.9419 C   0  0  0  0  0  0  0  0  0  0  0  0
    7.2200   -0.6685   21.0648 C   0  0  0  0  0  0  0  0  0  0  0  0
    6.5184   -1.3935   21.7542 O   0  0  0  0  0  0  0  0  0  0  0  0
    8.5545   -0.5075   21.2540 N   0  0  0  0  0  0  0  0  0  0  0  0
    9.0204    0.1083   20.6165 H   0  0  0  0  0  0  0  0  0  0  0  0
    9.3648   -1.2840   22.1993 C   0  0  0  0  0  0  0  0  0  0  0  0
   10.8431   -0.8139   22.1551 C   0  0  0  0  0  0  0  0  0  0  0  0
   11.8904   -1.7562   22.0746 C   0  0  0  0  0  0  0  0  0  0  0  0
   11.6581   -2.8009   21.9471 H   0  0  0  0  0  0  0  0  0  0  0  0
   13.2331   -1.4126   22.1917 C   0  0  0  0  0  0  0  0  0  0  0  0
   13.9900   -2.1900   22.1344 H   0  0  0  0  0  0  0  0  0  0  0  0
   13.5816   -0.0903   22.4348 C   0  0  0  0  0  0  0  0  0  0  0  0
   14.6080    0.2119   22.5931 H   0  0  0  0  0  0  0  0  0  0  0  0
   12.5872    0.8865   22.5002 C   0  0  0  0  0  0  0  0  0  0  0  0
   13.0941    2.5104   22.8428 Cl  0  0  0  0  0  0  0  0  0  0  0  0
   11.2318    0.5374   22.3444 C   0  0  0  0  0  0  0  0  0  0  0  0
   10.0537    1.8169   22.3989 Cl  0  0  0  0  0  0  0  0  0  0  0  0
    9.2294   -2.7564   21.7662 C   0  0  0  0  0  0  0  0  0  0  0  0
    8.1724   -3.0073   21.6784 H   0  0  0  0  0  0  0  0  0  0  0  0
    9.6996   -3.4258   22.4938 H   0  0  0  0  0  0  0  0  0  0  0  0
    9.6990   -2.8704   20.7838 H   0  0  0  0  0  0  0  0  0  0  0  0
    8.8171   -1.1256   23.6294 C   0  0  0  0  0  0  0  0  0  0  0  0
    8.8563   -0.0852   23.9591 H   0  0  0  0  0  0  0  0  0  0  0  0
    9.4099   -1.7243   24.3278 H   0  0  0  0  0  0  0  0  0  0  0  0
    7.7783   -1.4553   23.6544 H   0  0  0  0  0  0  0  0  0  0  0  0
    5.4079    0.7770   20.0732 C   0  0  0  0  0  0  0  0  0  0  0  0
    4.8766    0.7785   21.0278 H   0  0  0  0  0  0  0  0  0  0  0  0
    4.8854    1.4182   18.9556 C   0  0  0  0  0  0  0  0  0  0  0  0
    3.9566    1.9778   19.0040 H   0  0  0  0  0  0  0  0  0  0  0  0
  1  2  1  0
  2  3  2  0
  3  4  1  0
  4  5  1  0
  4  6  2  0
  6  7  1  0
  7  8  2  0
  7  9  1  0
  9 10  1  0
  9 11  1  0
 11 12  1  0
 12 13  2  0
 13 14  1  0
 13 15  1  0
 15 16  1  0
 15 17  2  0
 17 18  1  0
 17 19  1  0
 19 20  1  0
 19 21  2  0
 21 22  1  0
 11 23  1  0
 23 24  1  0
 23 25  1  0
 23 26  1  0
 11 27  1  0
 27 28  1  0
 27 29  1  0
 27 30  1  0
  6 31  1  0
 31 32  1  0
 31 33  2  0
 33 34  1  0
 33  2  1  0
 21 12  1  0
M  END
>  <cnnaffinity>  (1) 
-5.68936

>  <filename>  (1) 
CC(C)(NC(=O)c1cccnc1)c1cccc(Cl)c1Cl

$$$$
