
     RDKit          3D

 35 36  0  0  0  0  0  0  0  0999 V2000
    9.3002    3.3808   22.6750 H   0  0  0  0  0  0  0  0  0  0  0  0
    8.9001    2.7914   23.3322 O   0  0  0  0  0  0  0  0  0  0  0  0
    9.6606    1.5933   23.3688 C   0  0  0  0  0  0  0  0  0  0  0  0
   10.7399    1.8215   23.3615 H   0  0  0  0  0  0  0  0  0  0  0  0
    9.4273    1.1277   24.3352 H   0  0  0  0  0  0  0  0  0  0  0  0
    9.3803    0.5942   22.2086 C   0  0  0  0  0  0  0  0  0  0  0  0
    9.7544    1.2752   20.8842 C   0  0  0  0  0  0  0  0  0  0  0  0
    9.0774    2.1140   20.6794 H   0  0  0  0  0  0  0  0  0  0  0  0
    9.6773    0.5755   20.0462 H   0  0  0  0  0  0  0  0  0  0  0  0
   10.7840    1.6557   20.9108 H   0  0  0  0  0  0  0  0  0  0  0  0
   10.2830   -0.6385   22.4074 C   0  0  0  0  0  0  0  0  0  0  0  0
   10.1675   -1.3598   21.5893 H   0  0  0  0  0  0  0  0  0  0  0  0
   10.0790   -1.1697   23.3456 H   0  0  0  0  0  0  0  0  0  0  0  0
   11.3389   -0.3370   22.4192 H   0  0  0  0  0  0  0  0  0  0  0  0
    7.8595    0.2309   22.1706 C   0  0  2  0  0  0  0  0  0  0  0  0
    7.3583    1.2051   22.0522 H   0  0  0  0  0  0  0  0  0  0  0  0
    7.3056   -0.4066   23.4743 C   0  0  0  0  0  0  0  0  0  0  0  0
    6.7050    0.3217   24.0391 H   0  0  0  0  0  0  0  0  0  0  0  0
    8.0916   -0.7486   24.1616 H   0  0  0  0  0  0  0  0  0  0  0  0
    6.5397   -1.5329   23.0120 N   0  0  0  0  0  0  0  0  0  0  0  0
    5.9136   -2.1077   23.5494 H   0  0  0  0  0  0  0  0  0  0  0  0
    6.5164   -1.7757   21.6866 C   0  0  0  0  0  0  0  0  0  0  0  0
    5.9152   -2.7064   21.1910 O   0  0  0  0  0  0  0  0  0  0  0  0
    7.4008   -0.7076   21.0094 C   0  0  1  0  0  0  0  0  0  0  0  0
    8.2447   -1.2663   20.5815 H   0  0  0  0  0  0  0  0  0  0  0  0
    6.6775    0.0208   19.8867 C   0  0  0  0  0  0  0  0  0  0  0  0
    7.1761    0.0747   18.5735 C   0  0  0  0  0  0  0  0  0  0  0  0
    8.1196   -0.4198   18.3287 H   0  0  0  0  0  0  0  0  0  0  0  0
    6.5596    0.6875   17.5532 N   0  0  0  0  0  0  0  0  0  0  0  0
    5.3977    1.2996   17.8238 C   0  0  0  0  0  0  0  0  0  0  0  0
    4.9180    1.7990   16.9848 H   0  0  0  0  0  0  0  0  0  0  0  0
    4.8094    1.3122   19.0911 C   0  0  0  0  0  0  0  0  0  0  0  0
    3.8784    1.8389   19.2471 H   0  0  0  0  0  0  0  0  0  0  0  0
    5.4538    0.6559   20.1394 C   0  0  0  0  0  0  0  0  0  0  0  0
    5.0171    0.6243   21.1415 H   0  0  0  0  0  0  0  0  0  0  0  0
  1  2  1  0
  2  3  1  0
  3  4  1  0
  3  5  1  0
  3  6  1  0
  6  7  1  0
  7  8  1  0
  7  9  1  0
  7 10  1  0
  6 11  1  0
 11 12  1  0
 11 13  1  0
 11 14  1  0
  6 15  1  0
 15 16  1  6
 15 17  1  0
 17 18  1  0
 17 19  1  0
 17 20  1  0
 20 21  1  0
 20 22  1  0
 22 23  2  0
 22 24  1  0
 24 25  1  6
 24 26  1  0
 26 27  2  0
 27 28  1  0
 27 29  1  0
 29 30  2  0
 30 31  1  0
 30 32  1  0
 32 33  1  0
 32 34  2  0
 34 35  1  0
 24 15  1  0
 34 26  1  0
M  END
>  <cnnaffinity>  (1) 
-4.89427

>  <filename>  (1) 
CC(C)(CO)[C@@H]1CNC(=O)[C@H]1c1cccnc1

$$$$
