
     RDKit          3D

 35 37  0  0  0  0  0  0  0  0999 V2000
    7.9864    0.2030   22.0234 C   0  0  0  0  0  0  0  0  0  0  0  0
    7.5587   -0.8017   20.9301 C   0  0  0  0  0  0  0  0  0  0  0  0
    6.7984   -0.0799   19.8169 C   0  0  0  0  0  0  0  0  0  0  0  0
    5.5572    0.4965   20.1088 C   0  0  0  0  0  0  0  0  0  0  0  0
    4.8875    1.2013   19.1105 C   0  0  0  0  0  0  0  0  0  0  0  0
    5.4710    1.2814   17.8403 C   0  0  0  0  0  0  0  0  0  0  0  0
    6.6299    0.6870   17.5216 N   0  0  0  0  0  0  0  0  0  0  0  0
    7.2672    0.0273   18.4999 C   0  0  0  0  0  0  0  0  0  0  0  0
    8.1997   -0.4659   18.2303 H   0  0  0  0  0  0  0  0  0  0  0  0
    4.9875    1.8457   17.0445 H   0  0  0  0  0  0  0  0  0  0  0  0
    3.9452    1.6953   19.3082 H   0  0  0  0  0  0  0  0  0  0  0  0
    5.1233    0.3563   21.1030 H   0  0  0  0  0  0  0  0  0  0  0  0
    6.7249   -1.9483   21.4765 C   0  0  0  0  0  0  0  0  0  0  0  0
    6.2713   -2.1477   22.6795 N   0  0  0  0  0  0  0  0  0  0  0  0
    5.4502   -3.2379   22.5023 C   0  0  0  0  0  0  0  0  0  0  0  0
    4.4712   -3.7444   23.5244 C   0  0  0  0  0  0  0  0  0  0  0  0
    5.0285   -4.1099   24.8826 C   0  0  0  0  0  0  0  0  0  0  0  0
    5.3199   -5.4524   25.1677 C   0  0  0  0  0  0  0  0  0  0  0  0
    5.9181   -5.8427   26.3682 C   0  0  0  0  0  0  0  0  0  0  0  0
    6.2156   -4.8655   27.3211 C   0  0  0  0  0  0  0  0  0  0  0  0
    7.0197   -5.3207   28.7938 Cl  0  0  0  0  0  0  0  0  0  0  0  0
    5.8819   -3.5273   27.1097 C   0  0  0  0  0  0  0  0  0  0  0  0
    5.2784   -3.1668   25.8996 C   0  0  0  0  0  0  0  0  0  0  0  0
    4.8305   -1.4961   25.7036 Cl  0  0  0  0  0  0  0  0  0  0  0  0
    6.0824   -2.7741   27.8648 H   0  0  0  0  0  0  0  0  0  0  0  0
    6.1595   -6.8822   26.5695 H   0  0  0  0  0  0  0  0  0  0  0  0
    5.0712   -6.2100   24.4271 H   0  0  0  0  0  0  0  0  0  0  0  0
    3.9695   -4.6081   23.0788 H   0  0  0  0  0  0  0  0  0  0  0  0
    3.7166   -2.9650   23.6660 H   0  0  0  0  0  0  0  0  0  0  0  0
    5.4508   -3.7210   21.2908 N   0  0  0  0  0  0  0  0  0  0  0  0
    6.3072   -2.8716   20.6072 O   0  0  0  0  0  0  0  0  0  0  0  0
    8.4523   -1.2951   20.5251 H   0  0  0  0  0  0  0  0  0  0  0  0
    8.5671    1.0284   21.5931 H   0  0  0  0  0  0  0  0  0  0  0  0
    8.5748   -0.3060   22.7921 H   0  0  0  0  0  0  0  0  0  0  0  0
    7.1241    0.6603   22.5256 H   0  0  0  0  0  0  0  0  0  0  0  0
  1  2  1  0
  2  3  1  0
  3  4  2  0
  4  5  1  0
  5  6  2  0
  6  7  1  0
  7  8  2  0
  8  9  1  0
  6 10  1  0
  5 11  1  0
  4 12  1  0
  2 13  1  0
 13 14  2  0
 14 15  1  0
 15 16  1  0
 16 17  1  0
 17 18  2  0
 18 19  1  0
 19 20  2  0
 20 21  1  0
 20 22  1  0
 22 23  2  0
 23 24  1  0
 22 25  1  0
 19 26  1  0
 18 27  1  0
 16 28  1  0
 16 29  1  0
 15 30  2  0
 30 31  1  0
  2 32  1  0
  1 33  1  0
  1 34  1  0
  1 35  1  0
  8  3  1  0
 31 13  1  0
 23 17  1  0
M  END
>  <cnnaffinity>  (1) 
-5.60197

>  <filename>  (1) 
CC(c1cccnc1)c1nc(Cc2ccc(Cl)cc2Cl)no1

$$$$
