
     RDKit          3D

 47 50  0  0  0  0  0  0  0  0999 V2000
    8.0713    0.5165   25.0579 C   0  0  0  0  0  0  0  0  0  0  0  0
    7.0717   -0.6405   25.1701 C   0  0  0  0  0  0  0  0  0  0  0  0
    5.6148   -0.1666   25.2149 C   0  0  0  0  0  0  0  0  0  0  0  0
    5.4436    0.5392   26.4352 O   0  0  0  0  0  0  0  0  0  0  0  0
    4.6025    1.0057   26.4071 H   0  0  0  0  0  0  0  0  0  0  0  0
    5.3901    0.4628   24.3396 H   0  0  0  0  0  0  0  0  0  0  0  0
    4.9384   -1.0392   25.1853 H   0  0  0  0  0  0  0  0  0  0  0  0
    7.3240   -1.7460   24.1309 C   0  0  0  0  0  0  0  0  0  0  0  0
    7.4430   -1.3308   22.7266 N   0  0  0  0  0  0  0  0  0  0  0  0
    6.5288   -0.5208   22.1317 N   0  0  0  0  0  0  0  0  0  0  0  0
    6.8960   -0.5400   20.8642 C   0  0  0  0  0  0  0  0  0  0  0  0
    6.2654    0.1953   19.7833 C   0  0  0  0  0  0  0  0  0  0  0  0
    5.0840    0.9410   19.8934 C   0  0  0  0  0  0  0  0  0  0  0  0
    4.6355    1.6016   18.7509 C   0  0  0  0  0  0  0  0  0  0  0  0
    5.3708    1.4910   17.5651 C   0  0  0  0  0  0  0  0  0  0  0  0
    6.4904    0.7659   17.4512 N   0  0  0  0  0  0  0  0  0  0  0  0
    6.9218    0.1413   18.5450 C   0  0  0  0  0  0  0  0  0  0  0  0
    7.8402   -0.4318   18.4526 H   0  0  0  0  0  0  0  0  0  0  0  0
    5.0504    2.0025   16.6619 H   0  0  0  0  0  0  0  0  0  0  0  0
    3.7445    2.2158   18.7630 H   0  0  0  0  0  0  0  0  0  0  0  0
    4.5433    1.0059   20.8390 H   0  0  0  0  0  0  0  0  0  0  0  0
    7.9636   -1.3347   20.6005 N   0  0  0  0  0  0  0  0  0  0  0  0
    8.2673   -1.8275   21.7726 C   0  0  0  0  0  0  0  0  0  0  0  0
    9.3710   -2.8057   22.0154 C   0  0  0  0  0  0  0  0  0  0  0  0
   10.5432   -2.2316   22.8801 C   0  0  0  0  0  0  0  0  0  0  0  0
   10.8422   -3.2807   23.9732 C   0  0  0  0  0  0  0  0  0  0  0  0
    9.6738   -4.2254   23.9149 C   0  0  0  0  0  0  0  0  0  0  0  0
    8.8955   -4.0315   22.7781 C   0  0  0  0  0  0  0  0  0  0  0  0
    7.7502   -4.8066   22.5446 C   0  0  0  0  0  0  0  0  0  0  0  0
    7.3381   -5.7143   23.5302 C   0  0  0  0  0  0  0  0  0  0  0  0
    8.0868   -5.8761   24.7020 C   0  0  0  0  0  0  0  0  0  0  0  0
    9.2681   -5.1534   24.8704 C   0  0  0  0  0  0  0  0  0  0  0  0
   10.2372   -5.4023   26.2953 Cl  0  0  0  0  0  0  0  0  0  0  0  0
    7.7630   -6.5419   25.4972 H   0  0  0  0  0  0  0  0  0  0  0  0
    6.4352   -6.3062   23.4020 H   0  0  0  0  0  0  0  0  0  0  0  0
    7.1768   -4.6764   21.6317 H   0  0  0  0  0  0  0  0  0  0  0  0
   10.8908   -2.8440   24.9711 H   0  0  0  0  0  0  0  0  0  0  0  0
   11.7830   -3.8135   23.8134 H   0  0  0  0  0  0  0  0  0  0  0  0
   11.4114   -2.0132   22.2515 H   0  0  0  0  0  0  0  0  0  0  0  0
   10.2629   -1.2705   23.3264 H   0  0  0  0  0  0  0  0  0  0  0  0
    9.7124   -3.0504   21.0060 H   0  0  0  0  0  0  0  0  0  0  0  0
    6.5452   -2.5160   24.1909 H   0  0  0  0  0  0  0  0  0  0  0  0
    8.2615   -2.2275   24.4134 H   0  0  0  0  0  0  0  0  0  0  0  0
    7.2303   -1.1345   26.1413 H   0  0  0  0  0  0  0  0  0  0  0  0
    9.1026    0.1614   25.1845 H   0  0  0  0  0  0  0  0  0  0  0  0
    7.9899    1.0069   24.0803 H   0  0  0  0  0  0  0  0  0  0  0  0
    7.8784    1.2601   25.8384 H   0  0  0  0  0  0  0  0  0  0  0  0
  1  2  1  0
  2  3  1  0
  3  4  1  0
  4  5  1  0
  3  6  1  0
  3  7  1  0
  2  8  1  0
  8  9  1  0
  9 10  1  0
 10 11  2  0
 11 12  1  0
 12 13  2  0
 13 14  1  0
 14 15  2  0
 15 16  1  0
 16 17  2  0
 17 18  1  0
 15 19  1  0
 14 20  1  0
 13 21  1  0
 11 22  1  0
 22 23  2  0
 23 24  1  0
 24 25  1  0
 25 26  1  0
 26 27  1  0
 27 28  2  0
 28 29  1  0
 29 30  2  0
 30 31  1  0
 31 32  2  0
 32 33  1  0
 31 34  1  0
 30 35  1  0
 29 36  1  0
 26 37  1  0
 26 38  1  0
 25 39  1  0
 25 40  1  0
 24 41  1  0
  8 42  1  0
  8 43  1  0
  2 44  1  0
  1 45  1  0
  1 46  1  0
  1 47  1  0
 23  9  1  0
 28 24  1  0
 17 12  1  0
 32 27  1  0
M  END
>  <cnnaffinity>  (1) 
-6.15035

>  <filename>  (1) 
CC(CO)Cn1nc(-c2cccnc2)nc1C1CCc2c(Cl)cccc21

$$$$
