
     RDKit          3D

 38 40  0  0  0  0  0  0  0  0999 V2000
    6.7063   -4.0692   23.6569 C   0  0  0  0  0  0  0  0  0  0  0  0
    7.0219   -2.6297   24.1004 C   0  0  0  0  0  0  0  0  0  0  0  0
    8.1776   -2.6395   25.1235 C   0  0  0  0  0  0  0  0  0  0  0  0
    8.4544   -1.6215   25.4303 H   0  0  0  0  0  0  0  0  0  0  0  0
    7.8962   -3.2066   26.0203 H   0  0  0  0  0  0  0  0  0  0  0  0
    9.0508   -3.1311   24.6740 H   0  0  0  0  0  0  0  0  0  0  0  0
    7.5568   -1.9315   22.9117 N   0  0  0  0  0  0  0  0  0  0  0  0
    6.7939   -1.6832   21.7941 C   0  0  0  0  0  0  0  0  0  0  0  0
    5.7435   -2.2274   21.5191 O   0  0  0  0  0  0  0  0  0  0  0  0
    7.4003   -0.7148   21.0197 N   0  0  0  0  0  0  0  0  0  0  0  0
    6.7478   -0.0425   19.9595 C   0  0  0  0  0  0  0  0  0  0  0  0
    5.5122    0.5671   20.2019 C   0  0  0  0  0  0  0  0  0  0  0  0
    4.8888    1.2378   19.1469 C   0  0  0  0  0  0  0  0  0  0  0  0
    5.5061    1.2551   17.8892 C   0  0  0  0  0  0  0  0  0  0  0  0
    6.6858    0.6623   17.6405 N   0  0  0  0  0  0  0  0  0  0  0  0
    7.2863    0.0339   18.6595 C   0  0  0  0  0  0  0  0  0  0  0  0
    8.2418   -0.4474   18.4601 H   0  0  0  0  0  0  0  0  0  0  0  0
    5.0254    1.7365   17.0403 H   0  0  0  0  0  0  0  0  0  0  0  0
    3.9407    1.7434   19.2870 H   0  0  0  0  0  0  0  0  0  0  0  0
    5.0861    0.5135   21.2050 H   0  0  0  0  0  0  0  0  0  0  0  0
    8.3947   -0.6407   21.1288 H   0  0  0  0  0  0  0  0  0  0  0  0
    8.2322   -1.2072   23.0846 H   0  0  0  0  0  0  0  0  0  0  0  0
    5.7741   -1.9826   24.7887 C   0  0  0  0  0  0  0  0  0  0  0  0
    4.8076   -2.6028   25.3885 N   0  0  0  0  0  0  0  0  0  0  0  0
    3.9795   -1.5878   25.8621 C   0  0  0  0  0  0  0  0  0  0  0  0
    2.7583   -1.6391   26.5537 C   0  0  0  0  0  0  0  0  0  0  0  0
    2.1217   -0.4318   26.8330 C   0  0  0  0  0  0  0  0  0  0  0  0
    2.6910    0.8003   26.4481 C   0  0  0  0  0  0  0  0  0  0  0  0
    3.9175    0.8633   25.7826 C   0  0  0  0  0  0  0  0  0  0  0  0
    4.5350   -0.3584   25.5125 C   0  0  0  0  0  0  0  0  0  0  0  0
    5.7053   -0.6120   24.8498 O   0  0  0  0  0  0  0  0  0  0  0  0
    4.3681    1.8004   25.4781 H   0  0  0  0  0  0  0  0  0  0  0  0
    2.1547    1.7189   26.6686 H   0  0  0  0  0  0  0  0  0  0  0  0
    1.1686   -0.4536   27.3512 H   0  0  0  0  0  0  0  0  0  0  0  0
    2.3375   -2.5943   26.8481 H   0  0  0  0  0  0  0  0  0  0  0  0
    5.9488   -4.0594   22.8679 H   0  0  0  0  0  0  0  0  0  0  0  0
    6.3600   -4.6750   24.4997 H   0  0  0  0  0  0  0  0  0  0  0  0
    7.6245   -4.5030   23.2472 H   0  0  0  0  0  0  0  0  0  0  0  0
  1  2  1  0
  2  3  1  0
  3  4  1  0
  3  5  1  0
  3  6  1  0
  2  7  1  0
  7  8  1  0
  8  9  2  0
  8 10  1  0
 10 11  1  0
 11 12  2  0
 12 13  1  0
 13 14  2  0
 14 15  1  0
 15 16  2  0
 16 17  1  0
 14 18  1  0
 13 19  1  0
 12 20  1  0
 10 21  1  0
  7 22  1  0
  2 23  1  0
 23 24  2  0
 24 25  1  0
 25 26  2  0
 26 27  1  0
 27 28  2  0
 28 29  1  0
 29 30  2  0
 30 31  1  0
 29 32  1  0
 28 33  1  0
 27 34  1  0
 26 35  1  0
  1 36  1  0
  1 37  1  0
  1 38  1  0
 16 11  1  0
 31 23  1  0
 30 25  1  0
M  END
>  <cnnaffinity>  (1) 
-5.37169

>  <filename>  (1) 
CC(C)(NC(=O)Nc1cccnc1)c1nc2ccccc2o1

$$$$
