
     RDKit          3D

 41 43  0  0  0  0  0  0  0  0999 V2000
    6.1792   -2.8698   20.4754 C   0  0  0  0  0  0  0  0  0  0  0  0
    7.4506   -2.1537   20.9245 C   0  0  0  0  0  0  0  0  0  0  0  0
    8.1437   -2.8871   22.0908 C   0  0  0  0  0  0  0  0  0  0  0  0
    9.1485   -2.4894   22.2838 H   0  0  0  0  0  0  0  0  0  0  0  0
    7.5743   -2.8438   23.0267 H   0  0  0  0  0  0  0  0  0  0  0  0
    8.2616   -3.9479   21.8337 H   0  0  0  0  0  0  0  0  0  0  0  0
    7.1989   -0.6385   21.1582 C   0  0  0  0  0  0  0  0  0  0  0  0
    6.5229    0.0870   19.9660 C   0  0  0  0  0  0  0  0  0  0  0  0
    5.3144    0.7834   20.1259 C   0  0  0  0  0  0  0  0  0  0  0  0
    4.7318    1.4061   19.0151 C   0  0  0  0  0  0  0  0  0  0  0  0
    5.3886    1.3263   17.7853 C   0  0  0  0  0  0  0  0  0  0  0  0
    6.5499    0.6802   17.6019 N   0  0  0  0  0  0  0  0  0  0  0  0
    7.0876    0.0819   18.6767 C   0  0  0  0  0  0  0  0  0  0  0  0
    8.0334   -0.4348   18.5003 H   0  0  0  0  0  0  0  0  0  0  0  0
    4.9660    1.7926   16.8988 H   0  0  0  0  0  0  0  0  0  0  0  0
    3.7944    1.9522   19.0885 H   0  0  0  0  0  0  0  0  0  0  0  0
    4.8360    0.8421   21.1068 H   0  0  0  0  0  0  0  0  0  0  0  0
    8.5019    0.0216   21.5056 C   0  0  0  0  0  0  0  0  0  0  0  0
    8.7264    0.9952   22.3216 N   0  0  0  0  0  0  0  0  0  0  0  0
   10.0784    1.2169   22.1350 C   0  0  0  0  0  0  0  0  0  0  0  0
   10.8204    2.3259   22.7847 C   0  0  0  0  0  0  0  0  0  0  0  0
   12.2164    2.1944   22.8915 C   0  0  0  0  0  0  0  0  0  0  0  0
   12.9887    3.2130   23.4329 C   0  0  0  0  0  0  0  0  0  0  0  0
   12.3769    4.3629   23.9238 C   0  0  0  0  0  0  0  0  0  0  0  0
   10.9978    4.5214   23.8169 C   0  0  0  0  0  0  0  0  0  0  0  0
   10.1981    3.5195   23.2392 C   0  0  0  0  0  0  0  0  0  0  0  0
    8.6905    3.7756   23.0876 C   0  0  0  0  0  0  0  0  0  0  0  0
    8.2764    3.6127   21.8162 F   0  0  0  0  0  0  0  0  0  0  0  0
    8.3460    5.0334   23.4352 F   0  0  0  0  0  0  0  0  0  0  0  0
    7.9620    2.9614   23.8685 F   0  0  0  0  0  0  0  0  0  0  0  0
   10.5520    5.4540   24.1511 H   0  0  0  0  0  0  0  0  0  0  0  0
   12.9710    5.1364   24.3995 H   0  0  0  0  0  0  0  0  0  0  0  0
   14.0689    3.1240   23.4277 H   0  0  0  0  0  0  0  0  0  0  0  0
   12.6894    1.2898   22.5240 H   0  0  0  0  0  0  0  0  0  0  0  0
   10.6412    0.4093   21.2746 N   0  0  0  0  0  0  0  0  0  0  0  0
    9.5951   -0.3702   20.8372 O   0  0  0  0  0  0  0  0  0  0  0  0
    6.5529   -0.5109   22.0347 H   0  0  0  0  0  0  0  0  0  0  0  0
    8.1890   -2.1435   20.1291 H   0  0  0  0  0  0  0  0  0  0  0  0
    5.4293   -2.8596   21.2759 H   0  0  0  0  0  0  0  0  0  0  0  0
    5.7433   -2.3854   19.5926 H   0  0  0  0  0  0  0  0  0  0  0  0
    6.3883   -3.9184   20.2323 H   0  0  0  0  0  0  0  0  0  0  0  0
  1  2  1  0
  2  3  1  0
  3  4  1  0
  3  5  1  0
  3  6  1  0
  2  7  1  0
  7  8  1  0
  8  9  2  0
  9 10  1  0
 10 11  2  0
 11 12  1  0
 12 13  2  0
 13 14  1  0
 11 15  1  0
 10 16  1  0
  9 17  1  0
  7 18  1  0
 18 19  2  0
 19 20  1  0
 20 21  1  0
 21 22  2  0
 22 23  1  0
 23 24  2  0
 24 25  1  0
 25 26  2  0
 26 27  1  0
 27 28  1  0
 27 29  1  0
 27 30  1  0
 25 31  1  0
 24 32  1  0
 23 33  1  0
 22 34  1  0
 20 35  2  0
 35 36  1  0
  7 37  1  0
  2 38  1  0
  1 39  1  0
  1 40  1  0
  1 41  1  0
 13  8  1  0
 36 18  1  0
 26 21  1  0
M  END
>  <cnnaffinity>  (1) 
-5.86604

>  <filename>  (1) 
CC(C)C(c1cccnc1)c1nc(-c2ccccc2C(F)(F)F)no1

$$$$
