
     RDKit          3D

 40 42  0  0  0  0  0  0  0  0999 V2000
    4.9158    1.8085   17.0013 H   0  0  0  0  0  0  0  0  0  0  0  0
    5.3864    1.2929   17.8340 C   0  0  0  0  0  0  0  0  0  0  0  0
    6.5438    0.6701   17.5576 N   0  0  0  0  0  0  0  0  0  0  0  0
    7.1662    0.0488   18.5653 C   0  0  0  0  0  0  0  0  0  0  0  0
    8.1199   -0.4177   18.3311 H   0  0  0  0  0  0  0  0  0  0  0  0
    6.6661   -0.0152   19.8892 C   0  0  0  0  0  0  0  0  0  0  0  0
    7.3805   -0.6787   20.9200 N   0  0  0  0  0  0  0  0  0  0  0  0
    6.8651   -1.0728   21.6924 H   0  0  0  0  0  0  0  0  0  0  0  0
    8.7516   -0.6068   21.0976 C   0  0  0  0  0  0  0  0  0  0  0  0
    9.4417    0.1436   20.4292 O   0  0  0  0  0  0  0  0  0  0  0  0
    9.3358   -1.5894   22.1620 C   0  0  0  0  0  0  0  0  0  0  0  0
    8.7161   -1.3393   23.5488 C   0  0  0  0  0  0  0  0  0  0  0  0
    8.3159   -2.3998   24.4219 C   0  0  0  0  0  0  0  0  0  0  0  0
    8.4230   -3.4299   24.0969 H   0  0  0  0  0  0  0  0  0  0  0  0
    7.7896   -2.1382   25.6669 C   0  0  0  0  0  0  0  0  0  0  0  0
    7.4779   -2.9552   26.3152 H   0  0  0  0  0  0  0  0  0  0  0  0
    7.6417   -0.7938   26.1257 C   0  0  0  0  0  0  0  0  0  0  0  0
    7.0869   -0.4768   27.4003 C   0  0  0  0  0  0  0  0  0  0  0  0
    6.7583   -1.2952   28.0345 H   0  0  0  0  0  0  0  0  0  0  0  0
    6.9661    0.8310   27.8110 C   0  0  0  0  0  0  0  0  0  0  0  0
    6.5468    1.0616   28.7849 H   0  0  0  0  0  0  0  0  0  0  0  0
    7.3904    1.8946   26.9648 C   0  0  0  0  0  0  0  0  0  0  0  0
    7.2880    2.9213   27.3039 H   0  0  0  0  0  0  0  0  0  0  0  0
    7.9258    1.6237   25.7275 C   0  0  0  0  0  0  0  0  0  0  0  0
    8.2497    2.4309   25.0719 H   0  0  0  0  0  0  0  0  0  0  0  0
    8.0659    0.2782   25.2747 C   0  0  0  0  0  0  0  0  0  0  0  0
    8.6106   -0.0381   23.9956 C   0  0  0  0  0  0  0  0  0  0  0  0
    8.9449    0.7668   23.3461 H   0  0  0  0  0  0  0  0  0  0  0  0
    9.0825   -3.0332   21.6868 C   0  0  0  0  0  0  0  0  0  0  0  0
    9.5042   -3.1610   20.6889 H   0  0  0  0  0  0  0  0  0  0  0  0
    9.5830   -3.7124   22.3838 H   0  0  0  0  0  0  0  0  0  0  0  0
    8.0216   -3.3086   21.6560 H   0  0  0  0  0  0  0  0  0  0  0  0
   10.8695   -1.3817   22.2704 C   0  0  0  0  0  0  0  0  0  0  0  0
   11.2870   -2.0726   23.0103 H   0  0  0  0  0  0  0  0  0  0  0  0
   11.1148   -0.3578   22.5768 H   0  0  0  0  0  0  0  0  0  0  0  0
   11.3598   -1.5726   21.3098 H   0  0  0  0  0  0  0  0  0  0  0  0
    5.4494    0.6227   20.1556 C   0  0  0  0  0  0  0  0  0  0  0  0
    5.0397    0.6119   21.1655 H   0  0  0  0  0  0  0  0  0  0  0  0
    4.8064    1.2965   19.1078 C   0  0  0  0  0  0  0  0  0  0  0  0
    3.8766    1.8352   19.2672 H   0  0  0  0  0  0  0  0  0  0  0  0
  1  2  1  0
  2  3  2  0
  3  4  1  0
  4  5  1  0
  4  6  2  0
  6  7  1  0
  7  8  1  0
  7  9  1  0
  9 10  2  0
  9 11  1  0
 11 12  1  0
 12 13  2  0
 13 14  1  0
 13 15  1  0
 15 16  1  0
 15 17  2  0
 17 18  1  0
 18 19  1  0
 18 20  2  0
 20 21  1  0
 20 22  1  0
 22 23  1  0
 22 24  2  0
 24 25  1  0
 24 26  1  0
 26 27  2  0
 27 28  1  0
 11 29  1  0
 29 30  1  0
 29 31  1  0
 29 32  1  0
 11 33  1  0
 33 34  1  0
 33 35  1  0
 33 36  1  0
  6 37  1  0
 37 38  1  0
 37 39  2  0
 39 40  1  0
 39  2  1  0
 27 12  1  0
 26 17  1  0
M  END
>  <cnnaffinity>  (1) 
-5.4745

>  <filename>  (1) 
CC(C)(C(=O)Nc1cccnc1)c1ccc2ccccc2c1

$$$$
