
     RDKit          3D

 42 45  0  0  0  0  0  0  0  0999 V2000
    8.9595    2.0627   25.5038 C   0  0  0  0  0  0  0  0  0  0  0  0
    9.0516    2.7700   24.1348 C   0  0  0  0  0  0  0  0  0  0  0  0
    8.9299    1.8330   22.9773 C   0  0  0  0  0  0  0  0  0  0  0  0
    7.8690    1.1150   22.6829 N   0  0  0  0  0  0  0  0  0  0  0  0
    8.3202    0.2859   21.7026 C   0  0  0  0  0  0  0  0  0  0  0  0
    7.4144   -0.6760   20.9842 C   0  0  0  0  0  0  0  0  0  0  0  0
    6.6446   -0.0290   19.8400 C   0  0  0  0  0  0  0  0  0  0  0  0
    5.4398    0.6367   20.0939 C   0  0  0  0  0  0  0  0  0  0  0  0
    4.8048    1.3117   19.0506 C   0  0  0  0  0  0  0  0  0  0  0  0
    5.4009    1.3011   17.7871 C   0  0  0  0  0  0  0  0  0  0  0  0
    6.5446    0.6536   17.5142 N   0  0  0  0  0  0  0  0  0  0  0  0
    7.1397    0.0086   18.5249 C   0  0  0  0  0  0  0  0  0  0  0  0
    8.0717   -0.5050   18.2814 H   0  0  0  0  0  0  0  0  0  0  0  0
    4.9393    1.8294   16.9550 H   0  0  0  0  0  0  0  0  0  0  0  0
    3.8794    1.8534   19.2079 H   0  0  0  0  0  0  0  0  0  0  0  0
    5.0259    0.6364   21.1042 H   0  0  0  0  0  0  0  0  0  0  0  0
    6.7111   -1.0763   21.7226 H   0  0  0  0  0  0  0  0  0  0  0  0
    8.0226   -1.5091   20.6207 H   0  0  0  0  0  0  0  0  0  0  0  0
    9.5977    0.4375   21.3888 N   0  0  0  0  0  0  0  0  0  0  0  0
    9.9725    1.4766   22.1848 N   0  0  0  0  0  0  0  0  0  0  0  0
   11.2699    2.0471   22.2285 C   0  0  0  0  0  0  0  0  0  0  0  0
   11.4910    3.4255   22.2168 C   0  0  0  0  0  0  0  0  0  0  0  0
   12.7860    3.9490   22.4144 C   0  0  0  0  0  0  0  0  0  0  0  0
   13.8691    3.1144   22.6610 C   0  0  0  0  0  0  0  0  0  0  0  0
   13.6664    1.7178   22.6513 C   0  0  0  0  0  0  0  0  0  0  0  0
   12.3867    1.2088   22.3741 C   0  0  0  0  0  0  0  0  0  0  0  0
   12.5451   -0.1526   22.2935 N   0  0  0  0  0  0  0  0  0  0  0  0
   13.8706   -0.4016   22.5065 C   0  0  0  0  0  0  0  0  0  0  0  0
   14.5716    0.6683   22.7463 N   0  0  0  0  0  0  0  0  0  0  0  0
   14.2651   -1.4144   22.4820 H   0  0  0  0  0  0  0  0  0  0  0  0
   11.8475   -0.7525   21.8703 H   0  0  0  0  0  0  0  0  0  0  0  0
   14.8584    3.5299   22.7654 H   0  0  0  0  0  0  0  0  0  0  0  0
   12.9502    5.0182   22.3722 H   0  0  0  0  0  0  0  0  0  0  0  0
   10.6602    4.1146   22.1077 H   0  0  0  0  0  0  0  0  0  0  0  0
    8.0816    3.9207   23.9143 C   0  0  0  0  0  0  0  0  0  0  0  0
    6.7974    3.5603   23.9652 F   0  0  0  0  0  0  0  0  0  0  0  0
    8.3066    4.4949   22.7129 F   0  0  0  0  0  0  0  0  0  0  0  0
    8.2679    4.8786   24.8450 F   0  0  0  0  0  0  0  0  0  0  0  0
   10.0311    3.2497   24.1097 H   0  0  0  0  0  0  0  0  0  0  0  0
    9.7773    1.3365   25.5751 H   0  0  0  0  0  0  0  0  0  0  0  0
    9.0790    2.7802   26.3220 H   0  0  0  0  0  0  0  0  0  0  0  0
    8.0136    1.5257   25.6289 H   0  0  0  0  0  0  0  0  0  0  0  0
  1  2  1  0
  2  3  1  0
  3  4  2  0
  4  5  1  0
  5  6  1  0
  6  7  1  0
  7  8  2  0
  8  9  1  0
  9 10  2  0
 10 11  1  0
 11 12  2  0
 12 13  1  0
 10 14  1  0
  9 15  1  0
  8 16  1  0
  6 17  1  0
  6 18  1  0
  5 19  2  0
 19 20  1  0
 20 21  1  0
 21 22  2  0
 22 23  1  0
 23 24  2  0
 24 25  1  0
 25 26  2  0
 26 27  1  0
 27 28  1  0
 28 29  2  0
 28 30  1  0
 27 31  1  0
 24 32  1  0
 23 33  1  0
 22 34  1  0
  2 35  1  0
 35 36  1  0
 35 37  1  0
 35 38  1  0
  2 39  1  0
  1 40  1  0
  1 41  1  0
  1 42  1  0
 20  3  1  0
 26 21  1  0
 12  7  1  0
 29 25  1  0
M  END
>  <cnnaffinity>  (1) 
-6.72304

>  <filename>  (1) 
CC(c1nc(Cc2cccnc2)nn1-c1cccc2nc[nH]c12)C(F)(F)F

$$$$
