
     RDKit          3D

 47 50  0  0  0  0  0  0  0  0999 V2000
   11.7185   -0.6343   21.4458 C   0  0  0  0  0  0  0  0  0  0  0  0
   11.2291   -1.5337   22.5915 C   0  0  0  0  0  0  0  0  0  0  0  0
   10.9381   -0.7086   23.8617 C   0  0  0  0  0  0  0  0  0  0  0  0
   12.0667    0.0400   24.2825 O   0  0  0  0  0  0  0  0  0  0  0  0
   12.8317   -0.5527   24.2725 H   0  0  0  0  0  0  0  0  0  0  0  0
   10.1459    0.0269   23.6686 H   0  0  0  0  0  0  0  0  0  0  0  0
   10.5827   -1.3573   24.6842 H   0  0  0  0  0  0  0  0  0  0  0  0
   10.0455   -2.4303   22.1763 C   0  0  0  0  0  0  0  0  0  0  0  0
    8.7727   -1.7520   21.9962 N   0  0  0  0  0  0  0  0  0  0  0  0
    8.4773   -1.2674   20.7705 N   0  0  0  0  0  0  0  0  0  0  0  0
    7.3307   -0.6450   20.9641 C   0  0  0  0  0  0  0  0  0  0  0  0
    6.6149    0.0325   19.8960 C   0  0  0  0  0  0  0  0  0  0  0  0
    5.3959    0.6861   20.1214 C   0  0  0  0  0  0  0  0  0  0  0  0
    4.7941    1.3298   19.0445 C   0  0  0  0  0  0  0  0  0  0  0  0
    5.4288    1.2993   17.7953 C   0  0  0  0  0  0  0  0  0  0  0  0
    6.5901    0.6646   17.5713 N   0  0  0  0  0  0  0  0  0  0  0  0
    7.1638    0.0473   18.6074 C   0  0  0  0  0  0  0  0  0  0  0  0
    8.1058   -0.4621   18.4137 H   0  0  0  0  0  0  0  0  0  0  0  0
    4.9888    1.8003   16.9350 H   0  0  0  0  0  0  0  0  0  0  0  0
    3.8582    1.8657   19.1574 H   0  0  0  0  0  0  0  0  0  0  0  0
    4.9534    0.6885   21.1207 H   0  0  0  0  0  0  0  0  0  0  0  0
    6.8752   -0.6954   22.2400 N   0  0  0  0  0  0  0  0  0  0  0  0
    7.7821   -1.4218   22.8571 C   0  0  0  0  0  0  0  0  0  0  0  0
    7.7666   -1.8091   24.3139 C   0  0  0  0  0  0  0  0  0  0  0  0
    6.4937   -2.3452   24.7413 N   0  0  0  0  0  0  0  0  0  0  0  0
    5.4972   -1.6289   25.3747 C   0  0  0  0  0  0  0  0  0  0  0  0
    4.3637   -2.3777   25.4767 C   0  0  0  0  0  0  0  0  0  0  0  0
    4.6465   -3.6464   24.8578 C   0  0  0  0  0  0  0  0  0  0  0  0
    3.9096   -4.8299   24.6229 C   0  0  0  0  0  0  0  0  0  0  0  0
    4.4996   -5.8856   23.9410 C   0  0  0  0  0  0  0  0  0  0  0  0
    5.8296   -5.7606   23.4838 C   0  0  0  0  0  0  0  0  0  0  0  0
    6.3635   -6.7826   22.7976 F   0  0  0  0  0  0  0  0  0  0  0  0
    6.6056   -4.6328   23.6988 C   0  0  0  0  0  0  0  0  0  0  0  0
    5.9868   -3.5795   24.3956 C   0  0  0  0  0  0  0  0  0  0  0  0
    7.6278   -4.5786   23.3420 H   0  0  0  0  0  0  0  0  0  0  0  0
    3.9568   -6.8046   23.7401 H   0  0  0  0  0  0  0  0  0  0  0  0
    2.8802   -4.9009   24.9676 H   0  0  0  0  0  0  0  0  0  0  0  0
    3.4232   -2.0565   25.9035 H   0  0  0  0  0  0  0  0  0  0  0  0
    5.6900   -0.6096   25.6952 H   0  0  0  0  0  0  0  0  0  0  0  0
    7.9610   -0.9173   24.9186 H   0  0  0  0  0  0  0  0  0  0  0  0
    8.5601   -2.5290   24.5456 H   0  0  0  0  0  0  0  0  0  0  0  0
   10.2495   -2.8338   21.1865 H   0  0  0  0  0  0  0  0  0  0  0  0
    9.8996   -3.2693   22.8707 H   0  0  0  0  0  0  0  0  0  0  0  0
   12.0359   -2.2476   22.8156 H   0  0  0  0  0  0  0  0  0  0  0  0
   10.9087    0.0031   21.0656 H   0  0  0  0  0  0  0  0  0  0  0  0
   12.5323    0.0054   21.8093 H   0  0  0  0  0  0  0  0  0  0  0  0
   12.1067   -1.2245   20.6082 H   0  0  0  0  0  0  0  0  0  0  0  0
  1  2  1  0
  2  3  1  0
  3  4  1  0
  4  5  1  0
  3  6  1  0
  3  7  1  0
  2  8  1  0
  8  9  1  0
  9 10  1  0
 10 11  2  0
 11 12  1  0
 12 13  2  0
 13 14  1  0
 14 15  2  0
 15 16  1  0
 16 17  2  0
 17 18  1  0
 15 19  1  0
 14 20  1  0
 13 21  1  0
 11 22  1  0
 22 23  2  0
 23 24  1  0
 24 25  1  0
 25 26  1  0
 26 27  2  0
 27 28  1  0
 28 29  2  0
 29 30  1  0
 30 31  2  0
 31 32  1  0
 31 33  1  0
 33 34  2  0
 33 35  1  0
 30 36  1  0
 29 37  1  0
 27 38  1  0
 26 39  1  0
 24 40  1  0
 24 41  1  0
  8 42  1  0
  8 43  1  0
  2 44  1  0
  1 45  1  0
  1 46  1  0
  1 47  1  0
 23  9  1  0
 34 25  1  0
 17 12  1  0
 34 28  1  0
M  END
>  <cnnaffinity>  (1) 
-6.21409

>  <filename>  (1) 
CC(CO)Cn1nc(-c2cccnc2)nc1Cn1ccc2ccc(F)cc21

$$$$
