
     RDKit          3D

 46 47  0  0  0  0  0  0  0  0999 V2000
    8.6374   -1.3050   20.9664 C   0  0  0  0  0  0  0  0  0  0  0  0
    7.2346   -0.7322   21.3215 C   0  0  0  0  0  0  0  0  0  0  0  0
    7.4914    0.3830   22.3776 C   0  0  0  0  0  0  0  0  0  0  0  0
    8.0936    0.0078   23.2145 H   0  0  0  0  0  0  0  0  0  0  0  0
    8.0730    1.1789   21.8971 H   0  0  0  0  0  0  0  0  0  0  0  0
    6.5667    0.8223   22.7720 H   0  0  0  0  0  0  0  0  0  0  0  0
    6.3627   -1.9168   21.8928 C   0  0  0  0  0  0  0  0  0  0  0  0
    5.5956   -2.5941   21.2446 O   0  0  0  0  0  0  0  0  0  0  0  0
    6.6751   -2.2991   23.1882 N   0  0  0  0  0  0  0  0  0  0  0  0
    5.6975   -3.4043   23.9265 S   0  0  0  0  0  0  0  0  0  0  0  0
    6.3181   -3.4240   25.2375 O   0  0  0  0  0  0  0  0  0  0  0  0
    4.2920   -3.1204   23.7525 O   0  0  0  0  0  0  0  0  0  0  0  0
    5.9867   -4.9217   23.0715 C   0  0  0  0  0  0  0  0  0  0  0  0
    4.8172   -5.9109   23.2878 C   0  0  0  0  0  0  0  0  0  0  0  0
    4.3546   -6.0171   24.7585 C   0  0  0  0  0  0  0  0  0  0  0  0
    3.2187   -6.9983   24.9482 C   0  0  0  0  0  0  0  0  0  0  0  0
    1.8943   -6.6129   25.2266 C   0  0  0  0  0  0  0  0  0  0  0  0
    0.8967   -7.5849   25.3920 C   0  0  0  0  0  0  0  0  0  0  0  0
    1.2102   -8.9453   25.2890 C   0  0  0  0  0  0  0  0  0  0  0  0
    2.5243   -9.3363   25.0071 C   0  0  0  0  0  0  0  0  0  0  0  0
    3.5072   -8.3614   24.8240 C   0  0  0  0  0  0  0  0  0  0  0  0
    4.5381   -8.6096   24.5805 H   0  0  0  0  0  0  0  0  0  0  0  0
    2.7678  -10.3942   24.9383 H   0  0  0  0  0  0  0  0  0  0  0  0
    0.4360   -9.6984   25.4199 H   0  0  0  0  0  0  0  0  0  0  0  0
   -0.1280   -7.2829   25.6002 H   0  0  0  0  0  0  0  0  0  0  0  0
    1.6413   -5.5557   25.3101 H   0  0  0  0  0  0  0  0  0  0  0  0
    4.0683   -5.0262   25.1342 H   0  0  0  0  0  0  0  0  0  0  0  0
    5.2144   -6.3427   25.3678 H   0  0  0  0  0  0  0  0  0  0  0  0
    3.9619   -5.5959   22.6727 H   0  0  0  0  0  0  0  0  0  0  0  0
    5.1296   -6.8964   22.9129 H   0  0  0  0  0  0  0  0  0  0  0  0
    6.0659   -4.6215   22.0276 H   0  0  0  0  0  0  0  0  0  0  0  0
    6.9530   -5.2727   23.4417 H   0  0  0  0  0  0  0  0  0  0  0  0
    6.8328   -1.6332   23.9262 H   0  0  0  0  0  0  0  0  0  0  0  0
    6.5549   -0.0805   20.0865 C   0  0  0  0  0  0  0  0  0  0  0  0
    5.3064    0.5553   20.2120 C   0  0  0  0  0  0  0  0  0  0  0  0
    4.7767    1.2481   19.1169 C   0  0  0  0  0  0  0  0  0  0  0  0
    5.4939    1.2701   17.9173 C   0  0  0  0  0  0  0  0  0  0  0  0
    6.6646    0.6414   17.7570 N   0  0  0  0  0  0  0  0  0  0  0  0
    7.1638   -0.0076   18.8176 C   0  0  0  0  0  0  0  0  0  0  0  0
    8.1198   -0.4965   18.6433 H   0  0  0  0  0  0  0  0  0  0  0  0
    5.1100    1.8013   17.0453 H   0  0  0  0  0  0  0  0  0  0  0  0
    3.8371    1.7866   19.1801 H   0  0  0  0  0  0  0  0  0  0  0  0
    4.7593    0.5218   21.1559 H   0  0  0  0  0  0  0  0  0  0  0  0
    9.2835   -0.5130   20.5701 H   0  0  0  0  0  0  0  0  0  0  0  0
    8.5960   -2.1031   20.2282 H   0  0  0  0  0  0  0  0  0  0  0  0
    9.1299   -1.7062   21.8562 H   0  0  0  0  0  0  0  0  0  0  0  0
  1  2  1  0
  2  3  1  0
  3  4  1  0
  3  5  1  0
  3  6  1  0
  2  7  1  0
  7  8  2  0
  7  9  1  0
  9 10  1  0
 10 11  2  0
 10 12  2  0
 10 13  1  0
 13 14  1  0
 14 15  1  0
 15 16  1  0
 16 17  2  0
 17 18  1  0
 18 19  2  0
 19 20  1  0
 20 21  2  0
 21 22  1  0
 20 23  1  0
 19 24  1  0
 18 25  1  0
 17 26  1  0
 15 27  1  0
 15 28  1  0
 14 29  1  0
 14 30  1  0
 13 31  1  0
 13 32  1  0
  9 33  1  0
  2 34  1  0
 34 35  2  0
 35 36  1  0
 36 37  2  0
 37 38  1  0
 38 39  2  0
 39 40  1  0
 37 41  1  0
 36 42  1  0
 35 43  1  0
  1 44  1  0
  1 45  1  0
  1 46  1  0
 21 16  1  0
 39 34  1  0
M  END
>  <cnnaffinity>  (1) 
-5.40643

>  <filename>  (1) 
CC(C)(C(=O)NS(=O)(=O)CCCc1ccccc1)c1cccnc1

$$$$
