
     RDKit          3D

 40 42  0  0  0  0  0  0  0  0999 V2000
    4.9562    1.7999   16.9844 H   0  0  0  0  0  0  0  0  0  0  0  0
    5.4466    1.3021   17.8187 C   0  0  0  0  0  0  0  0  0  0  0  0
    6.6170    0.7006   17.5473 N   0  0  0  0  0  0  0  0  0  0  0  0
    7.2452    0.0759   18.5533 C   0  0  0  0  0  0  0  0  0  0  0  0
    8.1886   -0.4072   18.3117 H   0  0  0  0  0  0  0  0  0  0  0  0
    6.7437    0.0087   19.8746 C   0  0  0  0  0  0  0  0  0  0  0  0
    7.4436   -0.6491   20.9293 N   0  0  0  0  0  0  0  0  0  0  0  0
    8.3090   -0.2376   21.2415 H   0  0  0  0  0  0  0  0  0  0  0  0
    6.8391   -1.4751   21.8582 C   0  0  0  0  0  0  0  0  0  0  0  0
    5.7840   -2.0442   21.6315 O   0  0  0  0  0  0  0  0  0  0  0  0
    7.6641   -1.7793   23.1546 C   0  0  0  0  0  0  0  0  0  0  0  0
    8.6455   -0.6479   23.5400 C   0  0  0  0  0  0  0  0  0  0  0  0
    9.9753   -0.9298   23.8000 C   0  0  0  0  0  0  0  0  0  0  0  0
   10.3379   -1.9514   23.7326 H   0  0  0  0  0  0  0  0  0  0  0  0
   10.9123    0.0734   24.1465 C   0  0  0  0  0  0  0  0  0  0  0  0
   11.9447   -0.2131   24.3283 H   0  0  0  0  0  0  0  0  0  0  0  0
   10.5229    1.3832   24.2589 C   0  0  0  0  0  0  0  0  0  0  0  0
   11.2408    2.1570   24.5243 H   0  0  0  0  0  0  0  0  0  0  0  0
    9.1581    1.7471   24.0488 C   0  0  0  0  0  0  0  0  0  0  0  0
    8.7556    3.1106   24.1963 C   0  0  0  0  0  0  0  0  0  0  0  0
    9.5204    3.8491   24.4349 H   0  0  0  0  0  0  0  0  0  0  0  0
    7.4395    3.4753   24.0541 C   0  0  0  0  0  0  0  0  0  0  0  0
    7.1438    4.5152   24.1768 H   0  0  0  0  0  0  0  0  0  0  0  0
    6.4700    2.4887   23.7439 C   0  0  0  0  0  0  0  0  0  0  0  0
    5.4279    2.7885   23.6606 H   0  0  0  0  0  0  0  0  0  0  0  0
    6.8265    1.1698   23.5600 C   0  0  0  0  0  0  0  0  0  0  0  0
    6.0489    0.4498   23.3095 H   0  0  0  0  0  0  0  0  0  0  0  0
    8.1902    0.7325   23.7040 C   0  0  0  0  0  0  0  0  0  0  0  0
    8.3791   -3.1262   22.8106 C   0  0  0  0  0  0  0  0  0  0  0  0
    9.1070   -2.9935   22.0008 H   0  0  0  0  0  0  0  0  0  0  0  0
    7.6392   -3.8674   22.4881 H   0  0  0  0  0  0  0  0  0  0  0  0
    8.8946   -3.5365   23.6875 H   0  0  0  0  0  0  0  0  0  0  0  0
    6.7403   -2.0615   24.3696 C   0  0  0  0  0  0  0  0  0  0  0  0
    6.0135   -2.8431   24.1287 H   0  0  0  0  0  0  0  0  0  0  0  0
    6.1901   -1.1790   24.7128 H   0  0  0  0  0  0  0  0  0  0  0  0
    7.3544   -2.4043   25.2113 H   0  0  0  0  0  0  0  0  0  0  0  0
    5.5141    0.6216   20.1320 C   0  0  0  0  0  0  0  0  0  0  0  0
    5.0952    0.5704   21.1363 H   0  0  0  0  0  0  0  0  0  0  0  0
    4.8621    1.2912   19.0902 C   0  0  0  0  0  0  0  0  0  0  0  0
    3.9168    1.7956   19.2508 H   0  0  0  0  0  0  0  0  0  0  0  0
  1  2  1  0
  2  3  2  0
  3  4  1  0
  4  5  1  0
  4  6  2  0
  6  7  1  0
  7  8  1  0
  7  9  1  0
  9 10  2  0
  9 11  1  0
 11 12  1  0
 12 13  2  0
 13 14  1  0
 13 15  1  0
 15 16  1  0
 15 17  2  0
 17 18  1  0
 17 19  1  0
 19 20  2  0
 20 21  1  0
 20 22  1  0
 22 23  1  0
 22 24  2  0
 24 25  1  0
 24 26  1  0
 26 27  1  0
 26 28  2  0
 11 29  1  0
 29 30  1  0
 29 31  1  0
 29 32  1  0
 11 33  1  0
 33 34  1  0
 33 35  1  0
 33 36  1  0
  6 37  1  0
 37 38  1  0
 37 39  2  0
 39 40  1  0
 39  2  1  0
 28 12  1  0
 28 19  1  0
M  END
>  <cnnaffinity>  (1) 
-5.29544

>  <filename>  (1) 
CC(C)(C(=O)Nc1cccnc1)c1cccc2ccccc12

$$$$
