
     RDKit          3D

 35 36  0  0  0  0  0  0  0  0999 V2000
    6.5385   -0.8523   22.3606 C   0  0  0  0  0  0  0  0  0  0  0  0
    7.4336   -0.6186   21.1479 C   0  0  0  0  0  0  0  0  0  0  0  0
    7.9280   -1.9832   20.6630 C   0  0  0  0  0  0  0  0  0  0  0  0
    8.2466   -2.6135   21.4974 H   0  0  0  0  0  0  0  0  0  0  0  0
    8.7891   -1.8592   19.9985 H   0  0  0  0  0  0  0  0  0  0  0  0
    7.1102   -2.4863   20.1431 H   0  0  0  0  0  0  0  0  0  0  0  0
    8.6240    0.2205   21.5407 N   0  0  0  0  0  4  0  0  0  0  0  0
    9.4450   -0.2695   22.6444 C   0  0  0  0  0  0  0  0  0  0  0  0
   10.6965    0.5406   22.6429 C   0  0  0  0  0  0  0  0  0  0  0  0
   10.6181    1.8812   23.0272 C   0  0  0  0  0  0  0  0  0  0  0  0
   11.6753    2.6515   23.2815 N   0  0  0  0  0  0  0  0  0  0  0  0
   12.8856    2.1245   23.0855 C   0  0  0  0  0  0  0  0  0  0  0  0
   13.0852    0.8231   22.6148 C   0  0  0  0  0  0  0  0  0  0  0  0
   14.6628    0.2351   22.3108 Cl  0  0  0  0  0  0  0  0  0  0  0  0
   11.9661    0.0209   22.3698 C   0  0  0  0  0  0  0  0  0  0  0  0
   12.1590   -1.5887   21.7508 Cl  0  0  0  0  0  0  0  0  0  0  0  0
   13.7376    2.7418   23.3616 H   0  0  0  0  0  0  0  0  0  0  0  0
    9.6467    2.3457   23.1934 H   0  0  0  0  0  0  0  0  0  0  0  0
    9.6911   -1.3331   22.5458 H   0  0  0  0  0  0  0  0  0  0  0  0
    8.9448   -0.1613   23.6174 H   0  0  0  0  0  0  0  0  0  0  0  0
    9.2357    0.2940   20.6898 H   0  0  0  0  0  0  0  0  0  0  0  0
    8.2503    1.1859   21.7331 H   0  0  0  0  0  0  0  0  0  0  0  0
    6.7408    0.1481   20.0325 C   0  0  0  0  0  0  0  0  0  0  0  0
    5.4988    0.7999   20.1777 C   0  0  0  0  0  0  0  0  0  0  0  0
    4.9035    1.4060   19.0712 C   0  0  0  0  0  0  0  0  0  0  0  0
    5.5609    1.3541   17.8422 C   0  0  0  0  0  0  0  0  0  0  0  0
    6.7466    0.7544   17.6752 N   0  0  0  0  0  0  0  0  0  0  0  0
    7.3115    0.1837   18.7473 C   0  0  0  0  0  0  0  0  0  0  0  0
    8.2659   -0.2990   18.5377 H   0  0  0  0  0  0  0  0  0  0  0  0
    5.1164    1.8065   16.9562 H   0  0  0  0  0  0  0  0  0  0  0  0
    3.9466    1.9127   19.1540 H   0  0  0  0  0  0  0  0  0  0  0  0
    4.9971    0.8219   21.1439 H   0  0  0  0  0  0  0  0  0  0  0  0
    6.1509    0.0917   22.7559 H   0  0  0  0  0  0  0  0  0  0  0  0
    5.7280   -1.5073   22.0445 H   0  0  0  0  0  0  0  0  0  0  0  0
    7.0941   -1.3474   23.1606 H   0  0  0  0  0  0  0  0  0  0  0  0
  1  2  1  0
  2  3  1  0
  3  4  1  0
  3  5  1  0
  3  6  1  0
  2  7  1  0
  7  8  1  0
  8  9  1  0
  9 10  2  0
 10 11  1  0
 11 12  2  0
 12 13  1  0
 13 14  1  0
 13 15  2  0
 15 16  1  0
 12 17  1  0
 10 18  1  0
  8 19  1  0
  8 20  1  0
  7 21  1  0
  7 22  1  0
  2 23  1  0
 23 24  2  0
 24 25  1  0
 25 26  2  0
 26 27  1  0
 27 28  2  0
 28 29  1  0
 26 30  1  0
 25 31  1  0
 24 32  1  0
  1 33  1  0
  1 34  1  0
  1 35  1  0
 15  9  1  0
 28 23  1  0
M  CHG  1   7   1
M  END
>  <cnnaffinity>  (1) 
-4.88033

>  <filename>  (1) 
CC(C)([NH2+]Cc1cncc(Cl)c1Cl)c1cccnc1

$$$$
