
     RDKit          3D

 35 37  0  0  0  0  0  0  0  0999 V2000
    8.0258    0.2177   21.9967 C   0  0  0  0  0  0  0  0  0  0  0  0
    7.5662   -0.7812   20.9138 C   0  0  0  0  0  0  0  0  0  0  0  0
    6.8100   -0.0660   19.7921 C   0  0  0  0  0  0  0  0  0  0  0  0
    5.5707    0.5138   20.0875 C   0  0  0  0  0  0  0  0  0  0  0  0
    4.8965    1.2191   19.0943 C   0  0  0  0  0  0  0  0  0  0  0  0
    5.4797    1.3008   17.8262 C   0  0  0  0  0  0  0  0  0  0  0  0
    6.6425    0.7133   17.5053 N   0  0  0  0  0  0  0  0  0  0  0  0
    7.2858    0.0492   18.4770 C   0  0  0  0  0  0  0  0  0  0  0  0
    8.2223   -0.4375   18.1917 H   0  0  0  0  0  0  0  0  0  0  0  0
    4.9792    1.8441   17.0285 H   0  0  0  0  0  0  0  0  0  0  0  0
    3.9418    1.6900   19.2900 H   0  0  0  0  0  0  0  0  0  0  0  0
    5.1489    0.3684   21.0856 H   0  0  0  0  0  0  0  0  0  0  0  0
    6.7055   -1.9061   21.4790 C   0  0  0  0  0  0  0  0  0  0  0  0
    6.3317   -2.1471   22.7026 N   0  0  0  0  0  0  0  0  0  0  0  0
    5.4680   -3.2024   22.5408 C   0  0  0  0  0  0  0  0  0  0  0  0
    4.5454   -3.7619   23.5999 C   0  0  0  0  0  0  0  0  0  0  0  0
    5.0541   -3.9177   24.9660 N   0  0  0  0  0  0  0  0  0  0  0  0
    5.0252   -2.8278   25.8141 C   0  0  0  0  0  0  0  0  0  0  0  0
    5.5330   -2.8908   27.0726 C   0  0  0  0  0  0  0  0  0  0  0  0
    6.1019   -4.1190   27.5380 C   0  0  0  0  0  0  0  0  0  0  0  0
    6.1088   -5.2125   26.7294 C   0  0  0  0  0  0  0  0  0  0  0  0
    5.5178   -5.2025   25.4010 C   0  0  0  0  0  0  0  0  0  0  0  0
    5.4126   -6.1807   24.6788 O   0  0  0  0  0  0  0  0  0  0  0  0
    6.5321   -6.1626   27.0168 H   0  0  0  0  0  0  0  0  0  0  0  0
    6.5336   -4.1889   28.5342 H   0  0  0  0  0  0  0  0  0  0  0  0
    5.5130   -2.0112   27.7060 H   0  0  0  0  0  0  0  0  0  0  0  0
    4.5708   -1.9272   25.3930 H   0  0  0  0  0  0  0  0  0  0  0  0
    4.1953   -4.7288   23.2355 H   0  0  0  0  0  0  0  0  0  0  0  0
    3.6925   -3.0729   23.6404 H   0  0  0  0  0  0  0  0  0  0  0  0
    5.3372   -3.6130   21.3085 N   0  0  0  0  0  0  0  0  0  0  0  0
    6.1762   -2.7675   20.6031 O   0  0  0  0  0  0  0  0  0  0  0  0
    8.4590   -1.2737   20.5085 H   0  0  0  0  0  0  0  0  0  0  0  0
    8.6168    1.0266   21.5529 H   0  0  0  0  0  0  0  0  0  0  0  0
    8.6226   -0.2832   22.7664 H   0  0  0  0  0  0  0  0  0  0  0  0
    7.1708    0.6894   22.4938 H   0  0  0  0  0  0  0  0  0  0  0  0
  1  2  1  0
  2  3  1  0
  3  4  2  0
  4  5  1  0
  5  6  2  0
  6  7  1  0
  7  8  2  0
  8  9  1  0
  6 10  1  0
  5 11  1  0
  4 12  1  0
  2 13  1  0
 13 14  2  0
 14 15  1  0
 15 16  1  0
 16 17  1  0
 17 18  1  0
 18 19  2  0
 19 20  1  0
 20 21  2  0
 21 22  1  0
 22 23  2  0
 21 24  1  0
 20 25  1  0
 19 26  1  0
 18 27  1  0
 16 28  1  0
 16 29  1  0
 15 30  2  0
 30 31  1  0
  2 32  1  0
  1 33  1  0
  1 34  1  0
  1 35  1  0
  8  3  1  0
 31 13  1  0
 22 17  1  0
M  END
>  <cnnaffinity>  (1) 
-5.17371

>  <filename>  (1) 
CC(c1cccnc1)c1nc(Cn2ccccc2=O)no1

$$$$
