
     RDKit          3D

 41 42  0  0  0  0  0  0  0  0999 V2000
    9.5020    0.1219   20.9798 C   0  0  0  0  0  0  0  0  0  0  0  0
    8.2278   -0.1815   21.7628 C   0  0  0  0  0  0  0  0  0  0  0  0
    7.5875    1.0732   22.3462 C   0  0  0  0  0  0  0  0  0  0  0  0
    8.2879    1.5594   23.0341 H   0  0  0  0  0  0  0  0  0  0  0  0
    7.3231    1.7925   21.5622 H   0  0  0  0  0  0  0  0  0  0  0  0
    6.6839    0.8239   22.9121 H   0  0  0  0  0  0  0  0  0  0  0  0
    7.2711   -0.9683   20.9317 N   0  0  0  0  0  0  0  0  0  0  0  0
    7.3699   -2.3585   21.0576 C   0  0  0  0  0  0  0  0  0  0  0  0
    8.3276   -2.8969   21.5824 O   0  0  0  0  0  0  0  0  0  0  0  0
    6.1735   -3.1889   20.5501 C   0  0  0  0  0  0  0  0  0  0  0  0
    6.0107   -4.4224   21.2401 O   0  0  0  0  0  0  0  0  0  0  0  0
    5.4426   -4.4495   22.4821 C   0  0  0  0  0  0  0  0  0  0  0  0
    5.1984   -3.3251   23.2735 C   0  0  0  0  0  0  0  0  0  0  0  0
    4.3648   -3.4189   24.3916 C   0  0  0  0  0  0  0  0  0  0  0  0
    3.8575   -4.6597   24.7789 C   0  0  0  0  0  0  0  0  0  0  0  0
    4.2318   -5.8148   24.0886 C   0  0  0  0  0  0  0  0  0  0  0  0
    5.0940   -5.7155   22.9872 C   0  0  0  0  0  0  0  0  0  0  0  0
    5.7132   -6.9181   22.3352 C   0  0  0  0  0  0  0  0  0  0  0  0
    5.4388   -8.0421   23.0304 F   0  0  0  0  0  0  0  0  0  0  0  0
    7.0578   -6.8509   22.2695 F   0  0  0  0  0  0  0  0  0  0  0  0
    5.2641   -7.0709   21.0792 F   0  0  0  0  0  0  0  0  0  0  0  0
    3.8602   -6.7923   24.4055 H   0  0  0  0  0  0  0  0  0  0  0  0
    3.1919   -4.7253   25.6309 H   0  0  0  0  0  0  0  0  0  0  0  0
    4.0759   -2.5167   24.9359 H   0  0  0  0  0  0  0  0  0  0  0  0
    5.6832   -2.3940   23.0178 H   0  0  0  0  0  0  0  0  0  0  0  0
    5.2744   -2.5701   20.6123 H   0  0  0  0  0  0  0  0  0  0  0  0
    6.3293   -3.4695   19.5079 H   0  0  0  0  0  0  0  0  0  0  0  0
    6.5855   -0.2734   19.8636 C   0  0  0  0  0  0  0  0  0  0  0  0
    5.3940    0.4228   20.1080 C   0  0  0  0  0  0  0  0  0  0  0  0
    4.8330    1.1978   19.0837 C   0  0  0  0  0  0  0  0  0  0  0  0
    5.4656    1.2449   17.8407 C   0  0  0  0  0  0  0  0  0  0  0  0
    6.5931    0.5690   17.5739 N   0  0  0  0  0  0  0  0  0  0  0  0
    7.1341   -0.1583   18.5625 C   0  0  0  0  0  0  0  0  0  0  0  0
    8.0700   -0.6681   18.3280 H   0  0  0  0  0  0  0  0  0  0  0  0
    5.0607    1.8531   17.0329 H   0  0  0  0  0  0  0  0  0  0  0  0
    3.9403    1.7852   19.2508 H   0  0  0  0  0  0  0  0  0  0  0  0
    4.9530    0.3849   21.1037 H   0  0  0  0  0  0  0  0  0  0  0  0
    8.4987   -0.8340   22.6018 H   0  0  0  0  0  0  0  0  0  0  0  0
   10.2229    0.6317   21.6284 H   0  0  0  0  0  0  0  0  0  0  0  0
    9.9552   -0.8103   20.6260 H   0  0  0  0  0  0  0  0  0  0  0  0
    9.3010    0.7685   20.1178 H   0  0  0  0  0  0  0  0  0  0  0  0
  1  2  1  0
  2  3  1  0
  3  4  1  0
  3  5  1  0
  3  6  1  0
  2  7  1  0
  7  8  1  0
  8  9  2  0
  8 10  1  0
 10 11  1  0
 11 12  1  0
 12 13  2  0
 13 14  1  0
 14 15  2  0
 15 16  1  0
 16 17  2  0
 17 18  1  0
 18 19  1  0
 18 20  1  0
 18 21  1  0
 16 22  1  0
 15 23  1  0
 14 24  1  0
 13 25  1  0
 10 26  1  0
 10 27  1  0
  7 28  1  0
 28 29  2  0
 29 30  1  0
 30 31  2  0
 31 32  1  0
 32 33  2  0
 33 34  1  0
 31 35  1  0
 30 36  1  0
 29 37  1  0
  2 38  1  0
  1 39  1  0
  1 40  1  0
  1 41  1  0
 17 12  1  0
 33 28  1  0
M  END
>  <cnnaffinity>  (1) 
-5.2817

>  <filename>  (1) 
CC(C)N(C(=O)COc1ccccc1C(F)(F)F)c1cccnc1

$$$$
