
     RDKit          3D

 34 35  0  0  0  0  0  0  0  0999 V2000
   10.6750   -1.9417   22.0175 C   0  0  0  0  0  0  0  0  0  0  0  0
    9.3155   -1.3274   22.3768 C   0  0  0  0  0  0  0  0  0  0  0  0
    9.4551   -0.3665   23.5847 C   0  0  0  0  0  0  0  0  0  0  0  0
    8.1200    0.1655   24.0401 C   0  0  0  0  0  0  0  0  0  0  0  0
    7.6542    1.4073   23.5727 C   0  0  0  0  0  0  0  0  0  0  0  0
    6.3903    1.8876   23.9139 C   0  0  0  0  0  0  0  0  0  0  0  0
    5.5575    1.1248   24.7396 C   0  0  0  0  0  0  0  0  0  0  0  0
    5.9844   -0.1175   25.2135 C   0  0  0  0  0  0  0  0  0  0  0  0
    7.2515   -0.5828   24.8548 C   0  0  0  0  0  0  0  0  0  0  0  0
    7.7326   -2.1496   25.4543 Cl  0  0  0  0  0  0  0  0  0  0  0  0
    5.3573   -0.7313   25.8547 H   0  0  0  0  0  0  0  0  0  0  0  0
    4.5755    1.4938   25.0164 H   0  0  0  0  0  0  0  0  0  0  0  0
    6.0595    2.8535   23.5371 H   0  0  0  0  0  0  0  0  0  0  0  0
    8.2958    1.9809   22.9070 H   0  0  0  0  0  0  0  0  0  0  0  0
   10.1139    0.4636   23.2991 H   0  0  0  0  0  0  0  0  0  0  0  0
    9.9552   -0.8945   24.4057 H   0  0  0  0  0  0  0  0  0  0  0  0
    8.7297   -0.5651   21.1772 C   0  0  0  0  0  0  0  0  0  0  0  0
    9.4180    0.1459   20.4692 O   0  0  0  0  0  0  0  0  0  0  0  0
    7.3714   -0.6961   20.9364 N   0  0  0  0  0  0  0  0  0  0  0  0
    6.6719   -0.0060   19.9045 C   0  0  0  0  0  0  0  0  0  0  0  0
    5.4494    0.6241   20.1673 C   0  0  0  0  0  0  0  0  0  0  0  0
    4.8140    1.3004   19.1138 C   0  0  0  0  0  0  0  0  0  0  0  0
    5.3940    1.2961   17.8399 C   0  0  0  0  0  0  0  0  0  0  0  0
    6.5527    0.6740   17.5672 N   0  0  0  0  0  0  0  0  0  0  0  0
    7.1730    0.0594   18.5807 C   0  0  0  0  0  0  0  0  0  0  0  0
    8.1205   -0.4201   18.3700 H   0  0  0  0  0  0  0  0  0  0  0  0
    4.9157    1.7889   16.9967 H   0  0  0  0  0  0  0  0  0  0  0  0
    3.8831    1.8349   19.2660 H   0  0  0  0  0  0  0  0  0  0  0  0
    5.0232    0.6128   21.1720 H   0  0  0  0  0  0  0  0  0  0  0  0
    6.8204   -1.0784   21.6898 H   0  0  0  0  0  0  0  0  0  0  0  0
    8.6189   -2.1346   22.6377 H   0  0  0  0  0  0  0  0  0  0  0  0
   11.4078   -1.1682   21.7633 H   0  0  0  0  0  0  0  0  0  0  0  0
   10.5829   -2.5848   21.1432 H   0  0  0  0  0  0  0  0  0  0  0  0
   11.0740   -2.5350   22.8487 H   0  0  0  0  0  0  0  0  0  0  0  0
  1  2  1  0
  2  3  1  0
  3  4  1  0
  4  5  2  0
  5  6  1  0
  6  7  2  0
  7  8  1  0
  8  9  2  0
  9 10  1  0
  8 11  1  0
  7 12  1  0
  6 13  1  0
  5 14  1  0
  3 15  1  0
  3 16  1  0
  2 17  1  0
 17 18  2  0
 17 19  1  0
 19 20  1  0
 20 21  2  0
 21 22  1  0
 22 23  2  0
 23 24  1  0
 24 25  2  0
 25 26  1  0
 23 27  1  0
 22 28  1  0
 21 29  1  0
 19 30  1  0
  2 31  1  0
  1 32  1  0
  1 33  1  0
  1 34  1  0
  9  4  1  0
 25 20  1  0
M  END
>  <cnnaffinity>  (1) 
-5.05917

>  <filename>  (1) 
CC(Cc1ccccc1Cl)C(=O)Nc1cccnc1

$$$$
