
     RDKit          3D

 43 44  0  0  0  0  0  0  0  0999 V2000
    4.9133    1.7870   16.9958 H   0  0  0  0  0  0  0  0  0  0  0  0
    5.3928    1.2976   17.8375 C   0  0  0  0  0  0  0  0  0  0  0  0
    6.5526    0.6762   17.5674 N   0  0  0  0  0  0  0  0  0  0  0  0
    7.1728    0.0607   18.5772 C   0  0  0  0  0  0  0  0  0  0  0  0
    8.1196   -0.4223   18.3615 H   0  0  0  0  0  0  0  0  0  0  0  0
    6.6678    0.0021   19.8986 C   0  0  0  0  0  0  0  0  0  0  0  0
    7.3635   -0.6749   20.9338 N   0  0  0  0  0  0  0  0  0  0  0  0
    6.8052   -1.1324   21.6423 H   0  0  0  0  0  0  0  0  0  0  0  0
    8.7278   -0.5753   21.1410 C   0  0  0  0  0  0  0  0  0  0  0  0
    9.4151    0.1282   20.4217 O   0  0  0  0  0  0  0  0  0  0  0  0
    9.3367   -1.4089   22.3278 C   0  0  0  0  0  0  0  0  0  0  0  0
    8.6463   -1.1468   23.5559 O   0  0  0  0  0  0  0  0  0  0  0  0
    8.7843    0.1848   24.0542 C   0  0  0  0  0  0  0  0  0  0  0  0
    9.7798    0.2999   24.5093 H   0  0  0  0  0  0  0  0  0  0  0  0
    8.7086    0.9187   23.2355 H   0  0  0  0  0  0  0  0  0  0  0  0
    7.7171    0.4739   25.0977 C   0  0  0  0  0  0  0  0  0  0  0  0
    7.9441    1.4821   25.4736 H   0  0  0  0  0  0  0  0  0  0  0  0
    7.7812   -0.4874   26.2921 C   0  0  0  0  0  0  0  0  0  0  0  0
    7.5725   -1.5007   25.9281 H   0  0  0  0  0  0  0  0  0  0  0  0
    8.7963   -0.5206   26.7047 H   0  0  0  0  0  0  0  0  0  0  0  0
    6.7655   -0.1005   27.3939 C   0  0  0  0  0  0  0  0  0  0  0  0
    7.2623    0.4819   28.1791 H   0  0  0  0  0  0  0  0  0  0  0  0
    6.3927   -1.0108   27.8755 H   0  0  0  0  0  0  0  0  0  0  0  0
    5.6058    0.6815   26.9310 N   0  0  0  0  0  0  0  0  0  0  0  0
    5.9035    1.6513   26.8718 H   0  0  0  0  0  0  0  0  0  0  0  0
    5.1955    0.2885   25.5818 C   0  0  0  0  0  0  0  0  0  0  0  0
    4.2757    0.8177   25.3149 H   0  0  0  0  0  0  0  0  0  0  0  0
    4.9323   -0.7738   25.6184 H   0  0  0  0  0  0  0  0  0  0  0  0
    6.2858    0.5207   24.5096 C   0  0  0  0  0  0  0  0  0  0  0  0
    6.1301    1.4899   24.0190 H   0  0  0  0  0  0  0  0  0  0  0  0
    6.1790   -0.2423   23.7285 H   0  0  0  0  0  0  0  0  0  0  0  0
   10.8371   -1.1193   22.4835 C   0  0  0  0  0  0  0  0  0  0  0  0
   11.1863   -1.6265   23.3821 H   0  0  0  0  0  0  0  0  0  0  0  0
   11.0488   -0.0498   22.5764 H   0  0  0  0  0  0  0  0  0  0  0  0
   11.4002   -1.4948   21.6260 H   0  0  0  0  0  0  0  0  0  0  0  0
    9.1462   -2.9009   22.0494 C   0  0  0  0  0  0  0  0  0  0  0  0
    9.6106   -3.5063   22.8379 H   0  0  0  0  0  0  0  0  0  0  0  0
    8.0909   -3.1795   21.9754 H   0  0  0  0  0  0  0  0  0  0  0  0
    9.6159   -3.1253   21.0887 H   0  0  0  0  0  0  0  0  0  0  0  0
    5.4444    0.6320   20.1596 C   0  0  0  0  0  0  0  0  0  0  0  0
    5.0199    0.6193   21.1653 H   0  0  0  0  0  0  0  0  0  0  0  0
    4.8103    1.3048   19.1104 C   0  0  0  0  0  0  0  0  0  0  0  0
    3.8790    1.8393   19.2623 H   0  0  0  0  0  0  0  0  0  0  0  0
  1  2  1  0
  2  3  2  0
  3  4  1  0
  4  5  1  0
  4  6  2  0
  6  7  1  0
  7  8  1  0
  7  9  1  0
  9 10  2  0
  9 11  1  0
 11 12  1  0
 12 13  1  0
 13 14  1  0
 13 15  1  0
 13 16  1  0
 16 17  1  0
 16 18  1  0
 18 19  1  0
 18 20  1  0
 18 21  1  0
 21 22  1  0
 21 23  1  0
 21 24  1  0
 24 25  1  0
 24 26  1  0
 26 27  1  0
 26 28  1  0
 26 29  1  0
 29 30  1  0
 29 31  1  0
 11 32  1  0
 32 33  1  0
 32 34  1  0
 32 35  1  0
 11 36  1  0
 36 37  1  0
 36 38  1  0
 36 39  1  0
  6 40  1  0
 40 41  1  0
 40 42  2  0
 42 43  1  0
 42  2  1  0
 29 16  1  0
M  END
>  <cnnaffinity>  (1) 
-4.86156

>  <filename>  (1) 
CC(C)(OCC1CCNCC1)C(=O)Nc1cccnc1

$$$$
