
     RDKit          3D

 38 39  0  0  0  0  0  0  0  0999 V2000
    7.3700   -3.6469   24.4302 C   0  0  0  0  0  0  0  0  0  0  0  0
    7.0848   -2.1536   24.3192 C   0  0  0  0  0  0  0  0  0  0  0  0
    7.6643   -1.3984   25.5249 C   0  0  0  0  0  0  0  0  0  0  0  0
    7.1652    0.0431   25.7750 C   0  0  0  0  0  0  0  0  0  0  0  0
    7.5880    1.0208   24.7024 C   0  0  0  0  0  0  0  0  0  0  0  0
    8.9422    1.3741   24.5588 C   0  0  0  0  0  0  0  0  0  0  0  0
    9.3318    2.2026   23.5108 C   0  0  0  0  0  0  0  0  0  0  0  0
    8.3372    2.6701   22.6486 C   0  0  0  0  0  0  0  0  0  0  0  0
    7.0179    2.2838   22.8771 C   0  0  0  0  0  0  0  0  0  0  0  0
    6.6380    1.4750   23.8723 N   0  0  0  0  0  0  0  0  0  0  0  0
    6.2180    2.6396   22.2294 H   0  0  0  0  0  0  0  0  0  0  0  0
    8.5733    3.3248   21.8203 H   0  0  0  0  0  0  0  0  0  0  0  0
   10.3786    2.4718   23.3672 H   0  0  0  0  0  0  0  0  0  0  0  0
    9.6733    0.9758   25.2539 H   0  0  0  0  0  0  0  0  0  0  0  0
    7.5702    0.3794   26.7397 H   0  0  0  0  0  0  0  0  0  0  0  0
    6.0737    0.0701   25.8591 H   0  0  0  0  0  0  0  0  0  0  0  0
    8.7634   -1.4009   25.4480 H   0  0  0  0  0  0  0  0  0  0  0  0
    7.4187   -1.9800   26.4215 H   0  0  0  0  0  0  0  0  0  0  0  0
    7.6234   -1.6636   23.0437 N   0  0  0  0  0  0  0  0  0  0  0  0
    6.9127   -1.6496   21.8924 C   0  0  0  0  0  0  0  0  0  0  0  0
    5.6270   -2.6438   21.5385 S   0  0  0  0  0  0  0  0  0  0  0  0
    7.4185   -0.7147   21.0310 N   0  0  0  0  0  0  0  0  0  0  0  0
    6.7201   -0.0373   19.9875 C   0  0  0  0  0  0  0  0  0  0  0  0
    5.5030    0.6080   20.2317 C   0  0  0  0  0  0  0  0  0  0  0  0
    4.8729    1.2678   19.1653 C   0  0  0  0  0  0  0  0  0  0  0  0
    5.4763    1.2553   17.9026 C   0  0  0  0  0  0  0  0  0  0  0  0
    6.6494    0.6471   17.6619 N   0  0  0  0  0  0  0  0  0  0  0  0
    7.2494    0.0240   18.6866 C   0  0  0  0  0  0  0  0  0  0  0  0
    8.2003   -0.4631   18.4813 H   0  0  0  0  0  0  0  0  0  0  0  0
    4.9955    1.7392   17.0514 H   0  0  0  0  0  0  0  0  0  0  0  0
    3.9276    1.7760   19.3001 H   0  0  0  0  0  0  0  0  0  0  0  0
    5.0933    0.5957   21.2451 H   0  0  0  0  0  0  0  0  0  0  0  0
    8.3484   -0.3998   21.2460 H   0  0  0  0  0  0  0  0  0  0  0  0
    8.3197   -0.9340   23.0989 H   0  0  0  0  0  0  0  0  0  0  0  0
    5.9906   -2.0081   24.3056 H   0  0  0  0  0  0  0  0  0  0  0  0
    8.4518   -3.8241   24.4361 H   0  0  0  0  0  0  0  0  0  0  0  0
    6.9345   -4.1787   23.5823 H   0  0  0  0  0  0  0  0  0  0  0  0
    6.9363   -4.0502   25.3521 H   0  0  0  0  0  0  0  0  0  0  0  0
  1  2  1  0
  2  3  1  0
  3  4  1  0
  4  5  1  0
  5  6  2  0
  6  7  1  0
  7  8  2  0
  8  9  1  0
  9 10  2  0
  9 11  1  0
  8 12  1  0
  7 13  1  0
  6 14  1  0
  4 15  1  0
  4 16  1  0
  3 17  1  0
  3 18  1  0
  2 19  1  0
 19 20  1  0
 20 21  2  0
 20 22  1  0
 22 23  1  0
 23 24  2  0
 24 25  1  0
 25 26  2  0
 26 27  1  0
 27 28  2  0
 28 29  1  0
 26 30  1  0
 25 31  1  0
 24 32  1  0
 22 33  1  0
 19 34  1  0
  2 35  1  0
  1 36  1  0
  1 37  1  0
  1 38  1  0
 10  5  1  0
 28 23  1  0
M  END
>  <cnnaffinity>  (1) 
-5.31883

>  <filename>  (1) 
CC(CCc1ccccn1)NC(=S)Nc1cccnc1

$$$$
