
     RDKit          3D

 48 50  0  0  0  0  0  0  0  0999 V2000
    8.9380   -2.9402   27.1121 C   0  0  0  0  0  0  0  0  0  0  0  0
    7.9916   -2.6232   25.9691 C   0  0  0  0  0  0  0  0  0  0  0  0
    7.3670   -3.9218   25.3935 C   0  0  0  0  0  0  0  0  0  0  0  0
    6.4563   -4.6347   26.3785 C   0  0  0  0  0  0  0  0  0  0  0  0
    6.8676   -5.7522   27.1228 C   0  0  0  0  0  0  0  0  0  0  0  0
    5.9796   -6.3449   28.0271 C   0  0  0  0  0  0  0  0  0  0  0  0
    4.7364   -5.8964   28.2414 N   0  0  0  0  0  0  0  0  0  0  0  0
    4.3432   -4.8240   27.5431 C   0  0  0  0  0  0  0  0  0  0  0  0
    5.1558   -4.1632   26.6175 C   0  0  0  0  0  0  0  0  0  0  0  0
    4.7759   -3.2941   26.0904 H   0  0  0  0  0  0  0  0  0  0  0  0
    3.3261   -4.4795   27.7371 H   0  0  0  0  0  0  0  0  0  0  0  0
    6.2744   -7.2173   28.6120 H   0  0  0  0  0  0  0  0  0  0  0  0
    7.8642   -6.1654   27.0160 H   0  0  0  0  0  0  0  0  0  0  0  0
    8.1738   -4.5980   25.0773 H   0  0  0  0  0  0  0  0  0  0  0  0
    6.7999   -3.6375   24.4997 H   0  0  0  0  0  0  0  0  0  0  0  0
    8.6815   -1.8080   24.9655 N   0  0  0  0  0  0  0  0  0  0  0  0
    7.9940   -1.0609   24.0403 C   0  0  0  0  0  0  0  0  0  0  0  0
    6.7697   -0.9887   24.0566 O   0  0  0  0  0  0  0  0  0  0  0  0
    8.7667   -0.4133   23.0963 N   0  0  0  0  0  0  0  0  0  0  0  0
   10.1937   -0.1006   23.2088 C   0  0  0  0  0  0  0  0  0  0  0  0
   10.4114    1.0767   22.2387 C   0  0  0  0  0  0  0  0  0  0  0  0
    9.2387    1.0217   21.2515 C   0  0  0  0  0  0  0  0  0  0  0  0
    8.1044    0.2667   21.9681 C   0  0  0  0  0  0  0  0  0  0  0  0
    7.3734   -0.7201   21.0276 C   0  0  0  0  0  0  0  0  0  0  0  0
    6.6422   -0.0236   19.8964 C   0  0  0  0  0  0  0  0  0  0  0  0
    5.4331    0.6472   20.1375 C   0  0  0  0  0  0  0  0  0  0  0  0
    4.7966    1.3142   19.0870 C   0  0  0  0  0  0  0  0  0  0  0  0
    5.3937    1.3030   17.8221 C   0  0  0  0  0  0  0  0  0  0  0  0
    6.5541    0.6837   17.5670 N   0  0  0  0  0  0  0  0  0  0  0  0
    7.1568    0.0547   18.5863 C   0  0  0  0  0  0  0  0  0  0  0  0
    8.1085   -0.4196   18.3401 H   0  0  0  0  0  0  0  0  0  0  0  0
    4.9224    1.8079   16.9780 H   0  0  0  0  0  0  0  0  0  0  0  0
    3.8666    1.8516   19.2350 H   0  0  0  0  0  0  0  0  0  0  0  0
    5.0118    0.6426   21.1439 H   0  0  0  0  0  0  0  0  0  0  0  0
    8.1199   -1.4231   20.6364 H   0  0  0  0  0  0  0  0  0  0  0  0
    6.6745   -1.2948   21.6430 H   0  0  0  0  0  0  0  0  0  0  0  0
    7.3568    0.9721   22.3679 H   0  0  0  0  0  0  0  0  0  0  0  0
    9.5133    0.4867   20.3310 H   0  0  0  0  0  0  0  0  0  0  0  0
    8.9110    2.0175   20.9338 H   0  0  0  0  0  0  0  0  0  0  0  0
   11.3779    0.9990   21.7274 H   0  0  0  0  0  0  0  0  0  0  0  0
   10.4103    2.0282   22.7834 H   0  0  0  0  0  0  0  0  0  0  0  0
   10.4803    0.1783   24.2351 H   0  0  0  0  0  0  0  0  0  0  0  0
   10.8141   -0.9623   22.9208 H   0  0  0  0  0  0  0  0  0  0  0  0
    9.6505   -1.9670   24.7611 H   0  0  0  0  0  0  0  0  0  0  0  0
    7.1568   -2.0153   26.3536 H   0  0  0  0  0  0  0  0  0  0  0  0
    8.3685   -3.4327   27.9103 H   0  0  0  0  0  0  0  0  0  0  0  0
    9.7343   -3.6386   26.8117 H   0  0  0  0  0  0  0  0  0  0  0  0
    9.3886   -2.0201   27.5012 H   0  0  0  0  0  0  0  0  0  0  0  0
  1  2  1  0
  2  3  1  0
  3  4  1  0
  4  5  2  0
  5  6  1  0
  6  7  2  0
  7  8  1  0
  8  9  2  0
  9 10  1  0
  8 11  1  0
  6 12  1  0
  5 13  1  0
  3 14  1  0
  3 15  1  0
  2 16  1  0
 16 17  1  0
 17 18  2  0
 17 19  1  0
 19 20  1  0
 20 21  1  0
 21 22  1  0
 22 23  1  0
 23 24  1  0
 24 25  1  0
 25 26  2  0
 26 27  1  0
 27 28  2  0
 28 29  1  0
 29 30  2  0
 30 31  1  0
 28 32  1  0
 27 33  1  0
 26 34  1  0
 24 35  1  0
 24 36  1  0
 23 37  1  0
 22 38  1  0
 22 39  1  0
 21 40  1  0
 21 41  1  0
 20 42  1  0
 20 43  1  0
 16 44  1  0
  2 45  1  0
  1 46  1  0
  1 47  1  0
  1 48  1  0
  9  4  1  0
 23 19  1  0
 30 25  1  0
M  END
>  <cnnaffinity>  (1) 
-5.88425

>  <filename>  (1) 
CC(Cc1ccncc1)NC(=O)N1CCCC1Cc1cccnc1

$$$$
