
     RDKit          3D

 49 52  0  0  0  0  0  0  0  0999 V2000
   12.5020   -1.7863   21.9979 C   0  0  0  0  0  0  0  0  0  0  0  0
   11.1235   -1.1652   22.2609 C   0  0  0  0  0  0  0  0  0  0  0  0
   10.9890   -0.4751   23.6283 C   0  0  0  0  0  0  0  0  0  0  0  0
   12.1240    0.3340   23.8892 O   0  0  0  0  0  0  0  0  0  0  0  0
   12.0146    0.7279   24.7630 H   0  0  0  0  0  0  0  0  0  0  0  0
   10.0782    0.1453   23.6217 H   0  0  0  0  0  0  0  0  0  0  0  0
   10.8734   -1.2373   24.4199 H   0  0  0  0  0  0  0  0  0  0  0  0
   10.0300   -2.2383   22.0782 C   0  0  0  0  0  0  0  0  0  0  0  0
    8.6854   -1.6909   21.9637 N   0  0  0  0  0  0  0  0  0  0  0  0
    8.3548   -1.1694   20.7657 N   0  0  0  0  0  0  0  0  0  0  0  0
    7.1827   -0.5992   20.9830 C   0  0  0  0  0  0  0  0  0  0  0  0
    6.4917    0.1035   19.8987 C   0  0  0  0  0  0  0  0  0  0  0  0
    5.2756    0.7883   20.0536 C   0  0  0  0  0  0  0  0  0  0  0  0
    4.7306    1.4116   18.9284 C   0  0  0  0  0  0  0  0  0  0  0  0
    5.4187    1.3388   17.7122 C   0  0  0  0  0  0  0  0  0  0  0  0
    6.5768    0.6829   17.5539 N   0  0  0  0  0  0  0  0  0  0  0  0
    7.0945    0.0825   18.6286 C   0  0  0  0  0  0  0  0  0  0  0  0
    8.0305   -0.4502   18.4666 H   0  0  0  0  0  0  0  0  0  0  0  0
    5.0176    1.8215   16.8231 H   0  0  0  0  0  0  0  0  0  0  0  0
    3.7923    1.9535   18.9792 H   0  0  0  0  0  0  0  0  0  0  0  0
    4.7719    0.8317   21.0209 H   0  0  0  0  0  0  0  0  0  0  0  0
    6.7505   -0.7114   22.2619 N   0  0  0  0  0  0  0  0  0  0  0  0
    7.6995   -1.4202   22.8557 C   0  0  0  0  0  0  0  0  0  0  0  0
    7.7560   -1.8410   24.3254 C   0  0  0  0  0  0  0  0  0  0  0  0
    6.6024   -2.5148   24.9037 N   0  0  0  0  0  0  0  0  0  0  0  0
    5.5176   -1.7110   25.4828 C   0  0  0  0  0  0  0  0  0  0  0  0
    4.3000   -2.6660   25.5684 C   0  0  0  0  0  0  0  0  0  0  0  0
    4.7555   -3.8869   24.7993 C   0  0  0  0  0  0  0  0  0  0  0  0
    4.0854   -5.0580   24.4584 C   0  0  0  0  0  0  0  0  0  0  0  0
    4.7404   -6.0285   23.6840 C   0  0  0  0  0  0  0  0  0  0  0  0
    6.0580   -5.8181   23.2497 C   0  0  0  0  0  0  0  0  0  0  0  0
    6.7469   -4.6534   23.6049 C   0  0  0  0  0  0  0  0  0  0  0  0
    6.0919   -3.7017   24.3984 C   0  0  0  0  0  0  0  0  0  0  0  0
    7.7614   -4.4653   23.2698 H   0  0  0  0  0  0  0  0  0  0  0  0
    6.5493   -6.5660   22.6295 H   0  0  0  0  0  0  0  0  0  0  0  0
    4.2234   -6.9477   23.4213 H   0  0  0  0  0  0  0  0  0  0  0  0
    3.0595   -5.2232   24.7877 H   0  0  0  0  0  0  0  0  0  0  0  0
    4.0538   -2.9166   26.6070 H   0  0  0  0  0  0  0  0  0  0  0  0
    3.4076   -2.2073   25.1250 H   0  0  0  0  0  0  0  0  0  0  0  0
    5.8138   -1.3046   26.4620 H   0  0  0  0  0  0  0  0  0  0  0  0
    5.3147   -0.8574   24.8212 H   0  0  0  0  0  0  0  0  0  0  0  0
    8.6504   -2.4550   24.4943 H   0  0  0  0  0  0  0  0  0  0  0  0
    7.9146   -0.9255   24.9140 H   0  0  0  0  0  0  0  0  0  0  0  0
   10.0645   -3.0036   22.8612 H   0  0  0  0  0  0  0  0  0  0  0  0
   10.1771   -2.7479   21.1299 H   0  0  0  0  0  0  0  0  0  0  0  0
   10.9204   -0.4133   21.4865 H   0  0  0  0  0  0  0  0  0  0  0  0
   12.6208   -2.7027   22.5852 H   0  0  0  0  0  0  0  0  0  0  0  0
   13.3097   -1.0964   22.2592 H   0  0  0  0  0  0  0  0  0  0  0  0
   12.6198   -2.0496   20.9391 H   0  0  0  0  0  0  0  0  0  0  0  0
  1  2  1  0
  2  3  1  0
  3  4  1  0
  4  5  1  0
  3  6  1  0
  3  7  1  0
  2  8  1  0
  8  9  1  0
  9 10  1  0
 10 11  2  0
 11 12  1  0
 12 13  2  0
 13 14  1  0
 14 15  2  0
 15 16  1  0
 16 17  2  0
 17 18  1  0
 15 19  1  0
 14 20  1  0
 13 21  1  0
 11 22  1  0
 22 23  2  0
 23 24  1  0
 24 25  1  0
 25 26  1  0
 26 27  1  0
 27 28  1  0
 28 29  2  0
 29 30  1  0
 30 31  2  0
 31 32  1  0
 32 33  2  0
 32 34  1  0
 31 35  1  0
 30 36  1  0
 29 37  1  0
 27 38  1  0
 27 39  1  0
 26 40  1  0
 26 41  1  0
 24 42  1  0
 24 43  1  0
  8 44  1  0
  8 45  1  0
  2 46  1  0
  1 47  1  0
  1 48  1  0
  1 49  1  0
 23  9  1  0
 33 25  1  0
 17 12  1  0
 33 28  1  0
M  END
>  <cnnaffinity>  (1) 
-5.98072

>  <filename>  (1) 
CC(CO)Cn1nc(-c2cccnc2)nc1CN1CCc2ccccc21

$$$$
