
     RDKit          3D

 44 47  0  0  0  0  0  0  0  0999 V2000
   12.5811   -1.7229   21.9889 C   0  0  0  0  0  0  0  0  0  0  0  0
   11.1835   -1.0931   22.1253 C   0  0  0  0  0  0  0  0  0  0  0  0
   11.0136   -0.2190   23.3782 C   0  0  0  0  0  0  0  0  0  0  0  0
   10.6714   -0.9218   24.5502 O   0  0  0  0  0  0  0  0  0  0  0  0
   11.3698   -1.5595   24.7344 H   0  0  0  0  0  0  0  0  0  0  0  0
   11.9219    0.3970   23.5166 H   0  0  0  0  0  0  0  0  0  0  0  0
   10.1871    0.4779   23.2276 H   0  0  0  0  0  0  0  0  0  0  0  0
   10.0931   -2.1787   22.0288 C   0  0  0  0  0  0  0  0  0  0  0  0
    8.7475   -1.6457   21.8427 N   0  0  0  0  0  0  0  0  0  0  0  0
    8.4342   -1.1492   20.6227 N   0  0  0  0  0  0  0  0  0  0  0  0
    7.2547   -0.5865   20.8191 C   0  0  0  0  0  0  0  0  0  0  0  0
    6.5291    0.0872   19.7487 C   0  0  0  0  0  0  0  0  0  0  0  0
    5.3120    0.7566   19.9466 C   0  0  0  0  0  0  0  0  0  0  0  0
    4.7523    1.4151   18.8545 C   0  0  0  0  0  0  0  0  0  0  0  0
    5.4108    1.3686   17.6183 C   0  0  0  0  0  0  0  0  0  0  0  0
    6.5560    0.6980   17.4147 N   0  0  0  0  0  0  0  0  0  0  0  0
    7.0942    0.0765   18.4663 C   0  0  0  0  0  0  0  0  0  0  0  0
    8.0251   -0.4622   18.2981 H   0  0  0  0  0  0  0  0  0  0  0  0
    5.0005    1.8882   16.7552 H   0  0  0  0  0  0  0  0  0  0  0  0
    3.8312    1.9786   18.9531 H   0  0  0  0  0  0  0  0  0  0  0  0
    4.8362    0.7591   20.9308 H   0  0  0  0  0  0  0  0  0  0  0  0
    6.8077   -0.6679   22.0893 N   0  0  0  0  0  0  0  0  0  0  0  0
    7.7549   -1.3543   22.7221 C   0  0  0  0  0  0  0  0  0  0  0  0
    7.7259   -1.7346   24.1362 C   0  0  0  0  0  0  0  0  0  0  0  0
    7.9311   -2.9406   24.7727 C   0  0  0  0  0  0  0  0  0  0  0  0
    7.5436   -2.8272   26.0909 N   0  0  0  0  0  0  0  0  0  0  0  0
    7.1551   -1.5404   26.3547 C   0  0  0  0  0  0  0  0  0  0  0  0
    6.7087   -0.9430   27.5511 C   0  0  0  0  0  0  0  0  0  0  0  0
    6.5511    0.4362   27.5490 C   0  0  0  0  0  0  0  0  0  0  0  0
    6.0399    1.2329   29.0114 Cl  0  0  0  0  0  0  0  0  0  0  0  0
    6.7895    1.2150   26.3904 C   0  0  0  0  0  0  0  0  0  0  0  0
    7.1396    0.5911   25.2012 C   0  0  0  0  0  0  0  0  0  0  0  0
    7.2995   -0.8096   25.1639 C   0  0  0  0  0  0  0  0  0  0  0  0
    7.2892    1.1573   24.2856 H   0  0  0  0  0  0  0  0  0  0  0  0
    6.7046    2.2933   26.4470 H   0  0  0  0  0  0  0  0  0  0  0  0
    6.4739   -1.5188   28.4363 H   0  0  0  0  0  0  0  0  0  0  0  0
    7.7038   -3.5035   26.8186 H   0  0  0  0  0  0  0  0  0  0  0  0
    8.3176   -3.8915   24.4127 H   0  0  0  0  0  0  0  0  0  0  0  0
   10.0979   -2.8191   22.9157 H   0  0  0  0  0  0  0  0  0  0  0  0
   10.2601   -2.7825   21.1405 H   0  0  0  0  0  0  0  0  0  0  0  0
   11.0448   -0.4172   21.2699 H   0  0  0  0  0  0  0  0  0  0  0  0
   12.8315   -1.9259   20.9416 H   0  0  0  0  0  0  0  0  0  0  0  0
   12.6456   -2.6798   22.5138 H   0  0  0  0  0  0  0  0  0  0  0  0
   13.3609   -1.0669   22.3926 H   0  0  0  0  0  0  0  0  0  0  0  0
  1  2  1  0
  2  3  1  0
  3  4  1  0
  4  5  1  0
  3  6  1  0
  3  7  1  0
  2  8  1  0
  8  9  1  0
  9 10  1  0
 10 11  2  0
 11 12  1  0
 12 13  2  0
 13 14  1  0
 14 15  2  0
 15 16  1  0
 16 17  2  0
 17 18  1  0
 15 19  1  0
 14 20  1  0
 13 21  1  0
 11 22  1  0
 22 23  2  0
 23 24  1  0
 24 25  2  0
 25 26  1  0
 26 27  1  0
 27 28  2  0
 28 29  1  0
 29 30  1  0
 29 31  2  0
 31 32  1  0
 32 33  2  0
 32 34  1  0
 31 35  1  0
 28 36  1  0
 26 37  1  0
 25 38  1  0
  8 39  1  0
  8 40  1  0
  2 41  1  0
  1 42  1  0
  1 43  1  0
  1 44  1  0
 23  9  1  0
 33 24  1  0
 17 12  1  0
 33 27  1  0
M  END
>  <cnnaffinity>  (1) 
-6.0725

>  <filename>  (1) 
CC(CO)Cn1nc(-c2cccnc2)nc1-c1c[nH]c2cc(Cl)ccc12

$$$$
