
     RDKit          3D

 39 40  0  0  0  0  0  0  0  0999 V2000
    8.6214    0.2206   21.5231 C   0  0  0  0  0  0  0  0  0  0  0  0
    7.2088   -0.3481   21.3055 C   0  0  0  0  0  0  0  0  0  0  0  0
    7.2367   -1.8843   21.1264 C   0  0  0  0  0  0  0  0  0  0  0  0
    8.0017   -2.5856   22.2217 C   0  0  0  0  0  0  0  0  0  0  0  0
    9.2122   -2.6970   22.1967 O   0  0  0  0  0  0  0  0  0  0  0  0
    7.2554   -3.0321   23.2607 N   0  0  0  0  0  0  0  0  0  0  0  0
    7.7065   -3.5574   24.4508 C   0  0  0  0  0  0  0  0  0  0  0  0
    8.9931   -3.3992   24.9692 C   0  0  0  0  0  0  0  0  0  0  0  0
    9.2588   -4.0122   26.1872 C   0  0  0  0  0  0  0  0  0  0  0  0
    8.2467   -4.7232   26.8366 C   0  0  0  0  0  0  0  0  0  0  0  0
    6.9858   -4.8029   26.2341 C   0  0  0  0  0  0  0  0  0  0  0  0
    5.8440   -5.5587   26.9590 C   0  0  0  0  0  0  0  0  0  0  0  0
    5.0379   -4.7148   27.9275 C   0  0  0  0  0  0  0  0  0  0  0  0
    4.2942   -5.3506   28.4153 H   0  0  0  0  0  0  0  0  0  0  0  0
    4.5282   -3.9143   27.3875 H   0  0  0  0  0  0  0  0  0  0  0  0
    5.6831   -4.2817   28.6929 H   0  0  0  0  0  0  0  0  0  0  0  0
    4.9878   -6.1107   26.0557 F   0  0  0  0  0  0  0  0  0  0  0  0
    6.3751   -6.6183   27.6617 F   0  0  0  0  0  0  0  0  0  0  0  0
    6.7119   -4.1967   25.0691 N   0  0  0  0  0  0  0  0  0  0  0  0
    8.4432   -5.2167   27.7795 H   0  0  0  0  0  0  0  0  0  0  0  0
   10.2513   -3.9534   26.6277 H   0  0  0  0  0  0  0  0  0  0  0  0
    9.7053   -2.7993   24.4233 H   0  0  0  0  0  0  0  0  0  0  0  0
    6.2613   -3.1316   23.2017 H   0  0  0  0  0  0  0  0  0  0  0  0
    6.2187   -2.2778   21.0403 H   0  0  0  0  0  0  0  0  0  0  0  0
    7.7562   -2.1000   20.1972 H   0  0  0  0  0  0  0  0  0  0  0  0
    6.5453    0.2470   20.0769 C   0  0  0  0  0  0  0  0  0  0  0  0
    5.3089    0.9010   20.1335 C   0  0  0  0  0  0  0  0  0  0  0  0
    4.7501    1.4115   18.9600 C   0  0  0  0  0  0  0  0  0  0  0  0
    5.4442    1.2522   17.7581 C   0  0  0  0  0  0  0  0  0  0  0  0
    6.6190    0.6142   17.6702 N   0  0  0  0  0  0  0  0  0  0  0  0
    7.1406    0.1286   18.8044 C   0  0  0  0  0  0  0  0  0  0  0  0
    8.0914   -0.3975   18.6904 H   0  0  0  0  0  0  0  0  0  0  0  0
    5.0491    1.6563   16.8283 H   0  0  0  0  0  0  0  0  0  0  0  0
    3.8041    1.9365   18.9649 H   0  0  0  0  0  0  0  0  0  0  0  0
    4.7918    1.0066   21.0878 H   0  0  0  0  0  0  0  0  0  0  0  0
    6.6034   -0.1115   22.1965 H   0  0  0  0  0  0  0  0  0  0  0  0
    9.2430    0.0550   20.6347 H   0  0  0  0  0  0  0  0  0  0  0  0
    8.5815    1.2971   21.7173 H   0  0  0  0  0  0  0  0  0  0  0  0
    9.1232   -0.2719   22.3634 H   0  0  0  0  0  0  0  0  0  0  0  0
  1  2  1  0
  2  3  1  0
  3  4  1  0
  4  5  2  0
  4  6  1  0
  6  7  1  0
  7  8  2  0
  8  9  1  0
  9 10  2  0
 10 11  1  0
 11 12  1  0
 12 13  1  0
 13 14  1  0
 13 15  1  0
 13 16  1  0
 12 17  1  0
 12 18  1  0
 11 19  2  0
 10 20  1  0
  9 21  1  0
  8 22  1  0
  6 23  1  0
  3 24  1  0
  3 25  1  0
  2 26  1  0
 26 27  2  0
 27 28  1  0
 28 29  2  0
 29 30  1  0
 30 31  2  0
 31 32  1  0
 29 33  1  0
 28 34  1  0
 27 35  1  0
  2 36  1  0
  1 37  1  0
  1 38  1  0
  1 39  1  0
 19  7  1  0
 31 26  1  0
M  END
>  <cnnaffinity>  (1) 
-5.36309

>  <filename>  (1) 
CC(CC(=O)Nc1cccc(C(C)(F)F)n1)c1cccnc1

$$$$
