
     RDKit          3D

 36 37  0  0  0  0  0  0  0  0999 V2000
    5.2716    1.8643   17.0784 H   0  0  0  0  0  0  0  0  0  0  0  0
    5.6484    1.2466   17.8930 C   0  0  0  0  0  0  0  0  0  0  0  0
    6.7135    0.4810   17.6158 N   0  0  0  0  0  0  0  0  0  0  0  0
    7.2106   -0.2854   18.5862 C   0  0  0  0  0  0  0  0  0  0  0  0
    8.0760   -0.8951   18.3309 H   0  0  0  0  0  0  0  0  0  0  0  0
    6.6578   -0.2910   19.8567 C   0  0  0  0  0  0  0  0  0  0  0  0
    7.4746   -1.2063   21.0945 S   0  0  0  0  0  0  0  0  0  0  0  0
    6.4335   -1.8389   21.8968 O   0  0  0  0  0  0  0  0  0  0  0  0
    8.5579   -1.9870   20.5074 O   0  0  0  0  0  0  0  0  0  0  0  0
    8.5656    0.3902   22.1835 C   0  0  0  0  0  0  0  0  0  0  0  0
    7.8826    1.6421   22.5591 N   0  0  0  0  0  0  0  0  0  0  0  0
    7.9857    2.3994   21.9049 H   0  0  0  0  0  0  0  0  0  0  0  0
    6.9911    1.9009   23.5625 C   0  0  0  0  0  0  0  0  0  0  0  0
    6.8352    1.1860   24.5378 O   0  0  0  0  0  0  0  0  0  0  0  0
    6.1629    3.1818   23.3269 C   0  0  0  0  0  0  0  0  0  0  0  0
    6.1807    3.9683   22.1432 C   0  0  0  0  0  0  0  0  0  0  0  0
    6.6909    3.6696   21.2317 H   0  0  0  0  0  0  0  0  0  0  0  0
    5.4356    5.1497   22.0742 C   0  0  0  0  0  0  0  0  0  0  0  0
    5.4700    5.7751   21.1810 H   0  0  0  0  0  0  0  0  0  0  0  0
    4.6544    5.5919   23.0700 N   0  0  0  0  0  0  0  0  0  0  0  0
    4.5937    4.8368   24.1731 C   0  0  0  0  0  0  0  0  0  0  0  0
    3.9311    5.1921   24.9597 H   0  0  0  0  0  0  0  0  0  0  0  0
    5.3048    3.6431   24.3439 C   0  0  0  0  0  0  0  0  0  0  0  0
    5.1783    3.0792   25.2610 H   0  0  0  0  0  0  0  0  0  0  0  0
    9.1132   -0.3257   23.4056 C   0  0  0  0  0  0  0  0  0  0  0  0
    8.3163   -0.5373   24.1195 H   0  0  0  0  0  0  0  0  0  0  0  0
    9.8336    0.3357   23.9008 H   0  0  0  0  0  0  0  0  0  0  0  0
    9.6232   -1.2509   23.1136 H   0  0  0  0  0  0  0  0  0  0  0  0
    9.6402    0.8064   21.1865 C   0  0  0  0  0  0  0  0  0  0  0  0
   10.2554    1.5954   21.6399 H   0  0  0  0  0  0  0  0  0  0  0  0
   10.2998   -0.0218   20.9139 H   0  0  0  0  0  0  0  0  0  0  0  0
    9.1923    1.2129   20.2738 H   0  0  0  0  0  0  0  0  0  0  0  0
    5.5260    0.4665   20.1622 C   0  0  0  0  0  0  0  0  0  0  0  0
    5.0542    0.4460   21.1484 H   0  0  0  0  0  0  0  0  0  0  0  0
    5.0242    1.2701   19.1441 C   0  0  0  0  0  0  0  0  0  0  0  0
    4.1766    1.9243   19.3107 H   0  0  0  0  0  0  0  0  0  0  0  0
  1  2  1  0
  2  3  2  0
  3  4  1  0
  4  5  1  0
  4  6  2  0
  6  7  1  0
  7  8  2  0
  7  9  2  0
  7 10  1  0
 10 11  1  0
 11 12  1  0
 11 13  1  0
 13 14  2  0
 13 15  1  0
 15 16  2  0
 16 17  1  0
 16 18  1  0
 18 19  1  0
 18 20  2  0
 20 21  1  0
 21 22  1  0
 21 23  2  0
 23 24  1  0
 10 25  1  0
 25 26  1  0
 25 27  1  0
 25 28  1  0
 10 29  1  0
 29 30  1  0
 29 31  1  0
 29 32  1  0
  6 33  1  0
 33 34  1  0
 33 35  2  0
 35 36  1  0
 35  2  1  0
 23 15  1  0
M  END
>  <cnnaffinity>  (1) 
-4.51592

>  <filename>  (1) 
CC(C)(NC(=O)c1ccncc1)S(=O)(=O)c1cccnc1

$$$$
