
     RDKit          3D

 40 43  0  0  0  0  0  0  0  0999 V2000
   10.4934   -2.8057   22.7523 C   0  0  0  0  0  0  0  0  0  0  0  0
    9.0716   -3.2657   22.3227 C   0  0  0  0  0  0  0  0  0  0  0  0
    8.4680   -4.2061   23.3767 C   0  0  0  0  0  0  0  0  0  0  0  0
    7.4556   -4.5280   23.1045 H   0  0  0  0  0  0  0  0  0  0  0  0
    8.4400   -3.7371   24.3682 H   0  0  0  0  0  0  0  0  0  0  0  0
    9.1008   -5.0988   23.4539 H   0  0  0  0  0  0  0  0  0  0  0  0
    8.2204   -2.0688   22.0035 C   0  0  0  0  0  0  0  0  0  0  0  0
    7.8609   -1.7328   20.7832 N   0  0  0  0  0  0  0  0  0  0  0  0
    7.2742   -0.5206   20.9465 N   0  0  0  0  0  0  0  0  0  0  0  0
    6.5708    0.0669   19.8630 C   0  0  0  0  0  0  0  0  0  0  0  0
    5.3363    0.6946   20.0547 C   0  0  0  0  0  0  0  0  0  0  0  0
    4.7546    1.3249   18.9546 C   0  0  0  0  0  0  0  0  0  0  0  0
    5.4131    1.2902   17.7217 C   0  0  0  0  0  0  0  0  0  0  0  0
    6.5698    0.6332   17.5252 N   0  0  0  0  0  0  0  0  0  0  0  0
    7.1216    0.0131   18.5705 C   0  0  0  0  0  0  0  0  0  0  0  0
    8.0361   -0.5502   18.3891 H   0  0  0  0  0  0  0  0  0  0  0  0
    4.9884    1.7838   16.8511 H   0  0  0  0  0  0  0  0  0  0  0  0
    3.8113    1.8478   19.0496 H   0  0  0  0  0  0  0  0  0  0  0  0
    4.8682    0.7147   21.0414 H   0  0  0  0  0  0  0  0  0  0  0  0
    7.3832   -0.1516   22.2596 C   0  0  0  0  0  0  0  0  0  0  0  0
    7.0933    1.2067   22.8134 C   0  0  0  0  0  0  0  0  0  0  0  0
    7.4330    2.2767   22.0946 N   0  0  0  0  0  0  0  0  0  0  0  0
    7.2177    3.5088   22.6145 C   0  0  0  0  0  0  0  0  0  0  0  0
    6.6578    3.7296   23.8538 C   0  0  0  0  0  0  0  0  0  0  0  0
    6.3025    2.6192   24.6549 C   0  0  0  0  0  0  0  0  0  0  0  0
    5.7430    2.7287   25.9510 C   0  0  0  0  0  0  0  0  0  0  0  0
    5.4217    1.5814   26.6358 C   0  0  0  0  0  0  0  0  0  0  0  0
    5.6028    0.3301   26.1529 N   0  0  0  0  0  0  0  0  0  0  0  0
    6.1263    0.2119   24.9515 C   0  0  0  0  0  0  0  0  0  0  0  0
    6.5137    1.3169   24.1296 C   0  0  0  0  0  0  0  0  0  0  0  0
    6.2683   -0.7955   24.5722 H   0  0  0  0  0  0  0  0  0  0  0  0
    4.9822    1.6320   27.6279 H   0  0  0  0  0  0  0  0  0  0  0  0
    5.5671    3.7053   26.3853 H   0  0  0  0  0  0  0  0  0  0  0  0
    6.4777    4.7329   24.2149 H   0  0  0  0  0  0  0  0  0  0  0  0
    7.5166    4.3453   21.9855 H   0  0  0  0  0  0  0  0  0  0  0  0
    7.9081   -1.1634   22.9475 N   0  0  0  0  0  0  0  0  0  0  0  0
    9.0668   -3.7809   21.3617 H   0  0  0  0  0  0  0  0  0  0  0  0
   11.0758   -3.6195   23.2035 H   0  0  0  0  0  0  0  0  0  0  0  0
   11.0563   -2.4056   21.9045 H   0  0  0  0  0  0  0  0  0  0  0  0
   10.4256   -1.9917   23.4852 H   0  0  0  0  0  0  0  0  0  0  0  0
  1  2  1  0
  2  3  1  0
  3  4  1  0
  3  5  1  0
  3  6  1  0
  2  7  1  0
  7  8  2  0
  8  9  1  0
  9 10  1  0
 10 11  2  0
 11 12  1  0
 12 13  2  0
 13 14  1  0
 14 15  2  0
 15 16  1  0
 13 17  1  0
 12 18  1  0
 11 19  1  0
  9 20  1  0
 20 21  1  0
 21 22  2  0
 22 23  1  0
 23 24  2  0
 24 25  1  0
 25 26  2  0
 26 27  1  0
 27 28  2  0
 28 29  1  0
 29 30  2  0
 29 31  1  0
 27 32  1  0
 26 33  1  0
 24 34  1  0
 23 35  1  0
 20 36  2  0
  2 37  1  0
  1 38  1  0
  1 39  1  0
  1 40  1  0
 36  7  1  0
 15 10  1  0
 30 21  1  0
 30 25  1  0
M  END
>  <cnnaffinity>  (1) 
-6.08

>  <filename>  (1) 
CC(C)c1nc(-c2nccc3ccncc23)n(-c2cccnc2)n1

$$$$
