
     RDKit          3D

 44 45  0  0  0  0  0  0  0  0999 V2000
   10.6108   -0.0136   24.8996 C   0  0  0  0  0  0  0  0  0  0  0  0
   10.0238    0.6355   23.6520 C   0  0  0  0  0  0  0  0  0  0  0  0
    9.1759   -0.3459   22.8304 C   0  0  0  0  0  0  0  0  0  0  0  0
    8.3733    0.2865   21.6833 C   0  0  0  0  0  0  0  0  0  0  0  0
    7.3984   -0.6710   20.9648 C   0  0  0  0  0  0  0  0  0  0  0  0
    6.6310   -0.0045   19.8357 C   0  0  0  0  0  0  0  0  0  0  0  0
    5.4077    0.6453   20.0603 C   0  0  0  0  0  0  0  0  0  0  0  0
    4.7939    1.3359   19.0105 C   0  0  0  0  0  0  0  0  0  0  0  0
    5.4189    1.3398   17.7616 C   0  0  0  0  0  0  0  0  0  0  0  0
    6.5656    0.6927   17.5063 N   0  0  0  0  0  0  0  0  0  0  0  0
    7.1381    0.0353   18.5248 C   0  0  0  0  0  0  0  0  0  0  0  0
    8.0544   -0.5045   18.2721 H   0  0  0  0  0  0  0  0  0  0  0  0
    4.9740    1.8714   16.9220 H   0  0  0  0  0  0  0  0  0  0  0  0
    3.8573    1.8682   19.1491 H   0  0  0  0  0  0  0  0  0  0  0  0
    4.9374    0.6074   21.0451 H   0  0  0  0  0  0  0  0  0  0  0  0
    6.6850   -1.0833   21.6912 H   0  0  0  0  0  0  0  0  0  0  0  0
    7.9541   -1.5284   20.5621 H   0  0  0  0  0  0  0  0  0  0  0  0
    7.8021    1.1377   22.0784 H   0  0  0  0  0  0  0  0  0  0  0  0
    9.0561    0.7097   20.9340 H   0  0  0  0  0  0  0  0  0  0  0  0
    9.8415   -1.1339   22.4479 H   0  0  0  0  0  0  0  0  0  0  0  0
    8.4901   -0.8490   23.5234 H   0  0  0  0  0  0  0  0  0  0  0  0
   11.1248    1.2508   22.7623 N   0  0  0  0  0  4  0  0  0  0  0  0
   10.8209    2.7025   22.3578 C   0  0  0  0  0  0  0  0  0  0  0  0
   11.1470    3.7894   23.3852 C   0  0  0  0  0  0  0  0  0  0  0  0
   10.1096    4.2543   24.0914 N   0  0  0  0  0  0  0  0  0  0  0  0
   10.3308    5.1927   25.0222 C   0  0  0  0  0  0  0  0  0  0  0  0
   11.5945    5.7126   25.3085 C   0  0  0  0  0  0  0  0  0  0  0  0
   12.6815    5.2701   24.5569 C   0  0  0  0  0  0  0  0  0  0  0  0
   12.4452    4.2992   23.5785 C   0  0  0  0  0  0  0  0  0  0  0  0
   13.5224    3.8042   22.6758 C   0  0  0  0  0  0  0  0  0  0  0  0
   13.2099    4.0208   21.3791 F   0  0  0  0  0  0  0  0  0  0  0  0
   13.6798    2.4599   22.8147 F   0  0  0  0  0  0  0  0  0  0  0  0
   14.7075    4.3804   22.8944 F   0  0  0  0  0  0  0  0  0  0  0  0
   13.6898    5.6611   24.7114 H   0  0  0  0  0  0  0  0  0  0  0  0
   11.7167    6.4396   26.1042 H   0  0  0  0  0  0  0  0  0  0  0  0
    9.4435    5.5581   25.5300 H   0  0  0  0  0  0  0  0  0  0  0  0
   11.3254    2.9368   21.4248 H   0  0  0  0  0  0  0  0  0  0  0  0
    9.7489    2.8063   22.2013 H   0  0  0  0  0  0  0  0  0  0  0  0
   12.0442    1.2107   23.2600 H   0  0  0  0  0  0  0  0  0  0  0  0
   11.1870    0.6191   21.9313 H   0  0  0  0  0  0  0  0  0  0  0  0
    9.3916    1.4719   23.9703 H   0  0  0  0  0  0  0  0  0  0  0  0
    9.8012   -0.2707   25.5907 H   0  0  0  0  0  0  0  0  0  0  0  0
   11.2857    0.6699   25.4255 H   0  0  0  0  0  0  0  0  0  0  0  0
   11.1506   -0.9423   24.6865 H   0  0  0  0  0  0  0  0  0  0  0  0
  1  2  1  0
  2  3  1  0
  3  4  1  0
  4  5  1  0
  5  6  1  0
  6  7  2  0
  7  8  1  0
  8  9  2  0
  9 10  1  0
 10 11  2  0
 11 12  1  0
  9 13  1  0
  8 14  1  0
  7 15  1  0
  5 16  1  0
  5 17  1  0
  4 18  1  0
  4 19  1  0
  3 20  1  0
  3 21  1  0
  2 22  1  0
 22 23  1  0
 23 24  1  0
 24 25  2  0
 25 26  1  0
 26 27  2  0
 27 28  1  0
 28 29  2  0
 29 30  1  0
 30 31  1  0
 30 32  1  0
 30 33  1  0
 28 34  1  0
 27 35  1  0
 26 36  1  0
 23 37  1  0
 23 38  1  0
 22 39  1  0
 22 40  1  0
  2 41  1  0
  1 42  1  0
  1 43  1  0
  1 44  1  0
 11  6  1  0
 29 24  1  0
M  CHG  1  22   1
M  END
>  <cnnaffinity>  (1) 
-5.3582

>  <filename>  (1) 
CC(CCCc1cccnc1)[NH2+]Cc1ncccc1C(F)(F)F

$$$$
