
     RDKit          3D

 32 34  0  0  0  0  0  0  0  0999 V2000
    9.5203   -3.6737   23.4886 C   0  0  0  0  0  0  0  0  0  0  0  0
    9.7588   -2.5824   22.4198 C   0  0  0  0  0  0  0  0  0  0  0  0
   10.8872   -1.6491   22.7846 C   0  0  0  0  0  0  0  0  0  0  0  0
   10.7040   -0.7074   23.8053 C   0  0  0  0  0  0  0  0  0  0  0  0
   11.6033    0.3534   23.9365 C   0  0  0  0  0  0  0  0  0  0  0  0
   12.7051    0.4465   23.0839 C   0  0  0  0  0  0  0  0  0  0  0  0
   13.7864    2.0031   23.1416 Br  0  0  0  0  0  0  0  0  0  0  0  0
   12.9628   -0.5630   22.1539 C   0  0  0  0  0  0  0  0  0  0  0  0
   12.0530   -1.6097   22.0005 C   0  0  0  0  0  0  0  0  0  0  0  0
   12.2213   -2.3565   21.2318 H   0  0  0  0  0  0  0  0  0  0  0  0
   13.8429   -0.5063   21.5180 H   0  0  0  0  0  0  0  0  0  0  0  0
   11.4219    1.1255   24.6761 H   0  0  0  0  0  0  0  0  0  0  0  0
    9.8342   -0.7835   24.4513 H   0  0  0  0  0  0  0  0  0  0  0  0
    8.5267   -1.7615   22.1188 C   0  0  0  0  0  0  0  0  0  0  0  0
    8.2572   -1.3519   20.9090 N   0  0  0  0  0  0  0  0  0  0  0  0
    7.1117   -0.6071   21.0684 C   0  0  0  0  0  0  0  0  0  0  0  0
    6.4873    0.0644   19.9527 C   0  0  0  0  0  0  0  0  0  0  0  0
    5.2816    0.7651   20.0707 C   0  0  0  0  0  0  0  0  0  0  0  0
    4.7884    1.3826   18.9275 C   0  0  0  0  0  0  0  0  0  0  0  0
    5.4946    1.2883   17.7261 C   0  0  0  0  0  0  0  0  0  0  0  0
    6.6477    0.6049   17.6191 N   0  0  0  0  0  0  0  0  0  0  0  0
    7.1338    0.0079   18.7180 C   0  0  0  0  0  0  0  0  0  0  0  0
    8.0690   -0.5383   18.6293 H   0  0  0  0  0  0  0  0  0  0  0  0
    5.0927    1.7880   16.8502 H   0  0  0  0  0  0  0  0  0  0  0  0
    3.8637    1.9468   18.9556 H   0  0  0  0  0  0  0  0  0  0  0  0
    4.7394    0.8331   21.0148 H   0  0  0  0  0  0  0  0  0  0  0  0
    6.6811   -0.5608   22.3015 N   0  0  0  0  0  0  0  0  0  0  0  0
    7.6092   -1.3363   23.0336 O   0  0  0  0  0  0  0  0  0  0  0  0
   10.0117   -3.0442   21.4696 H   0  0  0  0  0  0  0  0  0  0  0  0
   10.4606   -4.1699   23.7532 H   0  0  0  0  0  0  0  0  0  0  0  0
    8.8234   -4.4402   23.1307 H   0  0  0  0  0  0  0  0  0  0  0  0
    9.1011   -3.2359   24.3993 H   0  0  0  0  0  0  0  0  0  0  0  0
  1  2  1  0
  2  3  1  0
  3  4  2  0
  4  5  1  0
  5  6  2  0
  6  7  1  0
  6  8  1  0
  8  9  2  0
  9 10  1  0
  8 11  1  0
  5 12  1  0
  4 13  1  0
  2 14  1  0
 14 15  2  0
 15 16  1  0
 16 17  1  0
 17 18  2  0
 18 19  1  0
 19 20  2  0
 20 21  1  0
 21 22  2  0
 22 23  1  0
 20 24  1  0
 19 25  1  0
 18 26  1  0
 16 27  2  0
 27 28  1  0
  2 29  1  0
  1 30  1  0
  1 31  1  0
  1 32  1  0
  9  3  1  0
 28 14  1  0
 22 17  1  0
M  END
>  <cnnaffinity>  (1) 
-5.66652

>  <filename>  (1) 
CC(c1ccc(Br)cc1)c1nc(-c2cccnc2)no1

$$$$
