
     RDKit          3D

 43 44  0  0  0  0  0  0  0  0999 V2000
    4.9990    1.7577   16.8843 H   0  0  0  0  0  0  0  0  0  0  0  0
    5.4551    1.2662   17.7398 C   0  0  0  0  0  0  0  0  0  0  0  0
    6.6073    0.6146   17.5097 N   0  0  0  0  0  0  0  0  0  0  0  0
    7.2064    0.0183   18.5496 C   0  0  0  0  0  0  0  0  0  0  0  0
    8.1288   -0.5203   18.3253 H   0  0  0  0  0  0  0  0  0  0  0  0
    6.7100    0.0681   19.8716 C   0  0  0  0  0  0  0  0  0  0  0  0
    7.4147   -0.5311   20.9561 N   0  0  0  0  0  0  0  0  0  0  0  0
    7.7272   -1.4762   20.8261 H   0  0  0  0  0  0  0  0  0  0  0  0
    7.3565   -0.1224   22.2770 C   0  0  0  0  0  0  0  0  0  0  0  0
    6.8929    0.9581   22.5948 O   0  0  0  0  0  0  0  0  0  0  0  0
    7.9092   -1.1533   23.3188 C   0  0  0  0  0  0  0  0  0  0  0  0
    9.4268   -1.3818   23.0714 C   0  0  0  0  0  0  0  0  0  0  0  0
    9.8829   -1.9962   23.8511 H   0  0  0  0  0  0  0  0  0  0  0  0
    9.6120   -1.9002   22.1230 H   0  0  0  0  0  0  0  0  0  0  0  0
    9.9765   -0.4354   23.0537 H   0  0  0  0  0  0  0  0  0  0  0  0
    7.6950   -0.5951   24.7454 C   0  0  0  0  0  0  0  0  0  0  0  0
    6.6285   -0.4641   24.9658 H   0  0  0  0  0  0  0  0  0  0  0  0
    8.1864    0.3703   24.8869 H   0  0  0  0  0  0  0  0  0  0  0  0
    8.0934   -1.2741   25.5019 H   0  0  0  0  0  0  0  0  0  0  0  0
    7.1147   -2.4973   23.1445 C   0  0  0  0  0  0  0  0  0  0  0  0
    6.1001   -2.2748   22.7799 H   0  0  0  0  0  0  0  0  0  0  0  0
    7.5926   -3.0878   22.3435 H   0  0  0  0  0  0  0  0  0  0  0  0
    6.9747   -3.4020   24.3835 C   0  0  0  0  0  0  0  0  0  0  0  0
    6.4867   -2.8132   25.1804 H   0  0  0  0  0  0  0  0  0  0  0  0
    6.0480   -4.5943   24.0602 C   0  0  0  0  0  0  0  0  0  0  0  0
    5.0514   -4.2164   23.7970 H   0  0  0  0  0  0  0  0  0  0  0  0
    6.4227   -5.0850   23.1513 H   0  0  0  0  0  0  0  0  0  0  0  0
    5.9579   -5.6401   25.1824 C   0  0  0  0  0  0  0  0  0  0  0  0
    5.4284   -5.2057   26.0428 H   0  0  0  0  0  0  0  0  0  0  0  0
    5.3577   -6.4955   24.8382 H   0  0  0  0  0  0  0  0  0  0  0  0
    7.3614   -6.0679   25.6379 C   0  0  0  0  0  0  0  0  0  0  0  0
    7.9027   -6.4917   24.7815 H   0  0  0  0  0  0  0  0  0  0  0  0
    7.3022   -6.8243   26.4277 H   0  0  0  0  0  0  0  0  0  0  0  0
    8.1882   -4.8626   26.0804 C   0  0  0  0  0  0  0  0  0  0  0  0
    9.1735   -5.1684   26.4531 H   0  0  0  0  0  0  0  0  0  0  0  0
    7.6710   -4.3495   26.9039 H   0  0  0  0  0  0  0  0  0  0  0  0
    8.3403   -3.8836   24.9147 C   0  0  0  0  0  0  0  0  0  0  0  0
    8.9622   -3.0488   25.2470 H   0  0  0  0  0  0  0  0  0  0  0  0
    8.8928   -4.3633   24.0874 H   0  0  0  0  0  0  0  0  0  0  0  0
    5.4836    0.7111   20.0853 C   0  0  0  0  0  0  0  0  0  0  0  0
    5.0669    0.7338   21.0899 H   0  0  0  0  0  0  0  0  0  0  0  0
    4.8471    1.3160   18.9969 C   0  0  0  0  0  0  0  0  0  0  0  0
    3.9038    1.8349   19.1264 H   0  0  0  0  0  0  0  0  0  0  0  0
  1  2  1  0
  2  3  2  0
  3  4  1  0
  4  5  1  0
  4  6  2  0
  6  7  1  0
  7  8  1  0
  7  9  1  0
  9 10  2  0
  9 11  1  0
 11 12  1  0
 12 13  1  0
 12 14  1  0
 12 15  1  0
 11 16  1  0
 16 17  1  0
 16 18  1  0
 16 19  1  0
 11 20  1  0
 20 21  1  0
 20 22  1  0
 20 23  1  0
 23 24  1  0
 23 25  1  0
 25 26  1  0
 25 27  1  0
 25 28  1  0
 28 29  1  0
 28 30  1  0
 28 31  1  0
 31 32  1  0
 31 33  1  0
 31 34  1  0
 34 35  1  0
 34 36  1  0
 34 37  1  0
 37 38  1  0
 37 39  1  0
  6 40  1  0
 40 41  1  0
 40 42  2  0
 42 43  1  0
 42  2  1  0
 37 23  1  0
M  END
>  <cnnaffinity>  (1) 
-5.27079

>  <filename>  (1) 
CC(C)(CC1CCCCC1)C(=O)Nc1cccnc1

$$$$
