
     RDKit          3D

 31 32  0  0  0  0  0  0  0  0999 V2000
    4.9134    1.7849   16.9946 H   0  0  0  0  0  0  0  0  0  0  0  0
    5.3970    1.2970   17.8369 C   0  0  0  0  0  0  0  0  0  0  0  0
    6.5616    0.6818   17.5724 N   0  0  0  0  0  0  0  0  0  0  0  0
    7.1744    0.0601   18.5909 C   0  0  0  0  0  0  0  0  0  0  0  0
    8.1215   -0.4310   18.3745 H   0  0  0  0  0  0  0  0  0  0  0  0
    6.6621   -0.0095   19.9097 C   0  0  0  0  0  0  0  0  0  0  0  0
    7.3054   -0.7125   20.9323 N   0  0  0  0  0  0  0  0  0  0  0  0
    6.7151   -1.0835   21.6684 H   0  0  0  0  0  0  0  0  0  0  0  0
    8.7007   -0.7437   21.1375 C   0  0  0  0  0  0  0  0  0  0  0  0
    9.6880    0.1573   20.6729 C   0  0  0  0  0  0  0  0  0  0  0  0
    9.5223    1.0101   20.0331 H   0  0  0  0  0  0  0  0  0  0  0  0
   10.9065   -0.1291   21.1044 N   0  0  0  0  0  0  0  0  0  0  0  0
   10.7108   -1.2405   21.8577 N   0  0  0  0  0  0  0  0  0  0  0  0
   11.4859   -1.6911   22.3064 H   0  0  0  0  0  0  0  0  0  0  0  0
    9.4186   -1.6439   21.9074 C   0  0  0  0  0  0  0  0  0  0  0  0
    8.9812   -2.7492   22.5897 N   0  0  0  0  0  0  0  0  0  0  0  0
    8.0054   -2.9532   22.4800 H   0  0  0  0  0  0  0  0  0  0  0  0
    9.7519   -3.5336   23.5221 C   0  0  0  0  0  0  0  0  0  0  0  0
   10.7184   -3.7274   23.0476 H   0  0  0  0  0  0  0  0  0  0  0  0
    9.0428   -4.8540   23.7889 C   0  0  0  0  0  0  0  0  0  0  0  0
    8.0886   -4.6926   24.3055 H   0  0  0  0  0  0  0  0  0  0  0  0
    8.8556   -5.4077   22.8650 H   0  0  0  0  0  0  0  0  0  0  0  0
    9.6561   -5.4871   24.4391 H   0  0  0  0  0  0  0  0  0  0  0  0
   10.0143   -2.7750   24.8115 C   0  0  0  0  0  0  0  0  0  0  0  0
   10.5402   -1.8367   24.6127 H   0  0  0  0  0  0  0  0  0  0  0  0
    9.0762   -2.5335   25.3215 H   0  0  0  0  0  0  0  0  0  0  0  0
   10.6165   -3.4087   25.4681 H   0  0  0  0  0  0  0  0  0  0  0  0
    5.4401    0.6349   20.1610 C   0  0  0  0  0  0  0  0  0  0  0  0
    5.0183    0.6238   21.1672 H   0  0  0  0  0  0  0  0  0  0  0  0
    4.8104    1.3072   19.1081 C   0  0  0  0  0  0  0  0  0  0  0  0
    3.8797    1.8392   19.2633 H   0  0  0  0  0  0  0  0  0  0  0  0
  1  2  1  0
  2  3  2  0
  3  4  1  0
  4  5  1  0
  4  6  2  0
  6  7  1  0
  7  8  1  0
  7  9  1  0
  9 10  1  0
 10 11  1  0
 10 12  2  0
 12 13  1  0
 13 14  1  0
 13 15  1  0
 15 16  1  0
 16 17  1  0
 16 18  1  0
 18 19  1  0
 18 20  1  0
 20 21  1  0
 20 22  1  0
 20 23  1  0
 18 24  1  0
 24 25  1  0
 24 26  1  0
 24 27  1  0
  6 28  1  0
 28 29  1  0
 28 30  2  0
 30 31  1  0
 30  2  1  0
 15  9  2  0
M  END
>  <cnnaffinity>  (1) 
-5.07115

>  <filename>  (1) 
CC(C)Nc1[nH]ncc1Nc1cccnc1

$$$$
