
     RDKit          3D

 44 45  0  0  0  0  0  0  0  0999 V2000
    6.4364   -2.8878   21.8072 C   0  0  0  0  0  0  0  0  0  0  0  0
    7.3588   -1.9871   20.9818 C   0  0  0  0  0  0  0  0  0  0  0  0
    8.8353   -2.3006   21.2200 C   0  0  0  0  0  0  0  0  0  0  0  0
    9.4653   -1.7100   20.5463 H   0  0  0  0  0  0  0  0  0  0  0  0
    9.0229   -3.3601   21.0218 H   0  0  0  0  0  0  0  0  0  0  0  0
    9.1237   -2.0804   22.2528 H   0  0  0  0  0  0  0  0  0  0  0  0
    7.0891   -0.5345   21.1553 N   0  0  0  0  0  0  0  0  0  0  0  0
    7.3301    0.0166   22.4201 C   0  0  0  0  0  0  0  0  0  0  0  0
    7.4088   -0.6654   23.4266 O   0  0  0  0  0  0  0  0  0  0  0  0
    7.6116    1.5247   22.5143 C   0  0  0  0  0  0  0  0  0  0  0  0
    9.0958    1.8009   22.7527 C   0  0  0  0  0  0  0  0  0  0  0  0
   10.0341    1.1393   22.0711 C   0  0  0  0  0  0  0  0  0  0  0  0
   11.5161    1.1835   22.3772 C   0  0  0  0  0  0  0  0  0  0  0  0
   12.1609    2.5575   22.2573 C   0  0  0  0  0  0  0  0  0  0  0  0
   12.0744    3.3209   21.0815 C   0  0  0  0  0  0  0  0  0  0  0  0
   12.5937    4.6164   21.0497 C   0  0  0  0  0  0  0  0  0  0  0  0
   13.2670    5.1461   22.1558 C   0  0  0  0  0  0  0  0  0  0  0  0
   13.4016    4.3726   23.3148 C   0  0  0  0  0  0  0  0  0  0  0  0
   12.8602    3.0840   23.3511 C   0  0  0  0  0  0  0  0  0  0  0  0
   12.9766    2.4493   24.2288 H   0  0  0  0  0  0  0  0  0  0  0  0
   13.9290    4.7623   24.1834 H   0  0  0  0  0  0  0  0  0  0  0  0
   13.6641    6.1572   22.1097 H   0  0  0  0  0  0  0  0  0  0  0  0
   12.4403    5.2063   20.1579 H   0  0  0  0  0  0  0  0  0  0  0  0
   11.5760    2.9198   20.1982 H   0  0  0  0  0  0  0  0  0  0  0  0
   12.0286    0.4773   21.7132 H   0  0  0  0  0  0  0  0  0  0  0  0
   11.6798    0.8327   23.4067 H   0  0  0  0  0  0  0  0  0  0  0  0
    9.7442    0.5421   21.2071 H   0  0  0  0  0  0  0  0  0  0  0  0
    9.3855    2.5176   23.5250 H   0  0  0  0  0  0  0  0  0  0  0  0
    7.2922    2.0028   21.5853 H   0  0  0  0  0  0  0  0  0  0  0  0
    7.0059    1.9138   23.3383 H   0  0  0  0  0  0  0  0  0  0  0  0
    6.5426    0.1747   20.0257 C   0  0  0  0  0  0  0  0  0  0  0  0
    5.3199    0.8522   20.1306 C   0  0  0  0  0  0  0  0  0  0  0  0
    4.7816    1.4620   18.9903 C   0  0  0  0  0  0  0  0  0  0  0  0
    5.4750    1.3820   17.7792 C   0  0  0  0  0  0  0  0  0  0  0  0
    6.6407    0.7303   17.6506 N   0  0  0  0  0  0  0  0  0  0  0  0
    7.1472    0.1398   18.7418 C   0  0  0  0  0  0  0  0  0  0  0  0
    8.0794   -0.4036   18.5877 H   0  0  0  0  0  0  0  0  0  0  0  0
    5.0773    1.8457   16.8775 H   0  0  0  0  0  0  0  0  0  0  0  0
    3.8478    2.0096   19.0360 H   0  0  0  0  0  0  0  0  0  0  0  0
    4.8102    0.8802   21.0943 H   0  0  0  0  0  0  0  0  0  0  0  0
    7.1239   -2.1895   19.9310 H   0  0  0  0  0  0  0  0  0  0  0  0
    6.6092   -3.9306   21.5140 H   0  0  0  0  0  0  0  0  0  0  0  0
    6.6335   -2.7874   22.8756 H   0  0  0  0  0  0  0  0  0  0  0  0
    5.3868   -2.6454   21.6146 H   0  0  0  0  0  0  0  0  0  0  0  0
  1  2  1  0
  2  3  1  0
  3  4  1  0
  3  5  1  0
  3  6  1  0
  2  7  1  0
  7  8  1  0
  8  9  2  0
  8 10  1  0
 10 11  1  0
 11 12  2  3
 12 13  1  0
 13 14  1  0
 14 15  2  0
 15 16  1  0
 16 17  2  0
 17 18  1  0
 18 19  2  0
 19 20  1  0
 18 21  1  0
 17 22  1  0
 16 23  1  0
 15 24  1  0
 13 25  1  0
 13 26  1  0
 12 27  1  0
 11 28  1  0
 10 29  1  0
 10 30  1  0
  7 31  1  0
 31 32  2  0
 32 33  1  0
 33 34  2  0
 34 35  1  0
 35 36  2  0
 36 37  1  0
 34 38  1  0
 33 39  1  0
 32 40  1  0
  2 41  1  0
  1 42  1  0
  1 43  1  0
  1 44  1  0
 19 14  1  0
 36 31  1  0
M  END
>  <cnnaffinity>  (1) 
-5.46624

>  <filename>  (1) 
CC(C)N(C(=O)CC=CCc1ccccc1)c1cccnc1

$$$$
