
     RDKit          3D

 43 45  0  0  0  0  0  0  0  0999 V2000
    7.1666   -3.6268   26.0020 C   0  0  0  0  0  0  0  0  0  0  0  0
    7.0006   -3.1518   24.5510 C   0  0  0  0  0  0  0  0  0  0  0  0
    5.5938   -3.3849   23.9813 C   0  0  0  0  0  0  0  0  0  0  0  0
    5.2243   -4.7476   23.9669 O   0  0  0  0  0  0  0  0  0  0  0  0
    5.2171   -5.0525   24.8830 H   0  0  0  0  0  0  0  0  0  0  0  0
    5.5598   -3.0427   22.9433 H   0  0  0  0  0  0  0  0  0  0  0  0
    4.8561   -2.7821   24.5419 H   0  0  0  0  0  0  0  0  0  0  0  0
    7.3647   -1.6513   24.4233 C   0  0  0  0  0  0  0  0  0  0  0  0
    7.6111   -1.2046   23.0561 N   0  0  0  0  0  0  0  0  0  0  0  0
    6.6348   -0.6320   22.3208 N   0  0  0  0  0  0  0  0  0  0  0  0
    7.1761   -0.5221   21.1251 C   0  0  0  0  0  0  0  0  0  0  0  0
    6.4797    0.0815   19.9904 C   0  0  0  0  0  0  0  0  0  0  0  0
    5.2516    0.7616   20.0922 C   0  0  0  0  0  0  0  0  0  0  0  0
    4.7524    1.3686   18.9438 C   0  0  0  0  0  0  0  0  0  0  0  0
    5.4753    1.2700   17.7489 C   0  0  0  0  0  0  0  0  0  0  0  0
    6.6340    0.6012   17.6409 N   0  0  0  0  0  0  0  0  0  0  0  0
    7.1149    0.0253   18.7455 C   0  0  0  0  0  0  0  0  0  0  0  0
    8.0571   -0.5131   18.6523 H   0  0  0  0  0  0  0  0  0  0  0  0
    5.1139    1.7425   16.8391 H   0  0  0  0  0  0  0  0  0  0  0  0
    3.8278    1.9340   18.9587 H   0  0  0  0  0  0  0  0  0  0  0  0
    4.7216    0.8211   21.0467 H   0  0  0  0  0  0  0  0  0  0  0  0
    8.4471   -1.0040   21.0397 N   0  0  0  0  0  0  0  0  0  0  0  0
    8.6978   -1.4075   22.2700 C   0  0  0  0  0  0  0  0  0  0  0  0
    9.9526   -2.0641   22.7472 C   0  0  0  0  0  0  0  0  0  0  0  0
   11.2557   -1.3147   22.5232 C   0  0  0  0  0  0  0  0  0  0  0  0
   12.1689   -1.7077   21.5416 C   0  0  0  0  0  0  0  0  0  0  0  0
   13.4936   -1.2778   21.5554 C   0  0  0  0  0  0  0  0  0  0  0  0
   13.8921   -0.3206   22.4866 C   0  0  0  0  0  0  0  0  0  0  0  0
   12.9421    0.2295   23.3549 C   0  0  0  0  0  0  0  0  0  0  0  0
   13.3187    1.5708   24.3590 Cl  0  0  0  0  0  0  0  0  0  0  0  0
   11.6477   -0.2920   23.3869 C   0  0  0  0  0  0  0  0  0  0  0  0
   10.7725    0.1675   24.2946 F   0  0  0  0  0  0  0  0  0  0  0  0
   14.9152    0.0254   22.5329 H   0  0  0  0  0  0  0  0  0  0  0  0
   14.2067   -1.6754   20.8382 H   0  0  0  0  0  0  0  0  0  0  0  0
   11.8227   -2.3351   20.7412 H   0  0  0  0  0  0  0  0  0  0  0  0
    9.8404   -2.2769   23.8152 H   0  0  0  0  0  0  0  0  0  0  0  0
   10.0125   -3.0373   22.2512 H   0  0  0  0  0  0  0  0  0  0  0  0
    8.2589   -1.4187   25.0142 H   0  0  0  0  0  0  0  0  0  0  0  0
    6.5528   -1.0277   24.8116 H   0  0  0  0  0  0  0  0  0  0  0  0
    7.6836   -3.7525   23.9303 H   0  0  0  0  0  0  0  0  0  0  0  0
    6.9136   -4.6886   26.1219 H   0  0  0  0  0  0  0  0  0  0  0  0
    6.5449   -3.0582   26.7063 H   0  0  0  0  0  0  0  0  0  0  0  0
    8.2112   -3.5242   26.3181 H   0  0  0  0  0  0  0  0  0  0  0  0
  1  2  1  0
  2  3  1  0
  3  4  1  0
  4  5  1  0
  3  6  1  0
  3  7  1  0
  2  8  1  0
  8  9  1  0
  9 10  1  0
 10 11  2  0
 11 12  1  0
 12 13  2  0
 13 14  1  0
 14 15  2  0
 15 16  1  0
 16 17  2  0
 17 18  1  0
 15 19  1  0
 14 20  1  0
 13 21  1  0
 11 22  1  0
 22 23  2  0
 23 24  1  0
 24 25  1  0
 25 26  2  0
 26 27  1  0
 27 28  2  0
 28 29  1  0
 29 30  1  0
 29 31  2  0
 31 32  1  0
 28 33  1  0
 27 34  1  0
 26 35  1  0
 24 36  1  0
 24 37  1  0
  8 38  1  0
  8 39  1  0
  2 40  1  0
  1 41  1  0
  1 42  1  0
  1 43  1  0
 23  9  1  0
 31 25  1  0
 17 12  1  0
M  END
>  <cnnaffinity>  (1) 
-6.54728

>  <filename>  (1) 
CC(CO)Cn1nc(-c2cccnc2)nc1Cc1cccc(Cl)c1F

$$$$
