
     RDKit          3D

 53 56  0  0  0  0  0  0  0  0999 V2000
   11.8731   -1.1112   21.2961 C   0  0  0  0  0  0  0  0  0  0  0  0
   11.1791   -1.6449   22.5524 C   0  0  0  0  0  0  0  0  0  0  0  0
   11.0210   -0.5639   23.6397 C   0  0  0  0  0  0  0  0  0  0  0  0
   12.2226    0.1021   23.9812 O   0  0  0  0  0  0  0  0  0  0  0  0
   12.9050   -0.5639   24.1279 H   0  0  0  0  0  0  0  0  0  0  0  0
   10.5686   -1.0112   24.5397 H   0  0  0  0  0  0  0  0  0  0  0  0
   10.3411    0.2227   23.2977 H   0  0  0  0  0  0  0  0  0  0  0  0
    9.8372   -2.3472   22.2550 C   0  0  0  0  0  0  0  0  0  0  0  0
    8.6727   -1.4952   22.0303 N   0  0  0  0  0  0  0  0  0  0  0  0
    8.4185   -1.0398   20.7836 N   0  0  0  0  0  0  0  0  0  0  0  0
    7.2726   -0.3939   20.9244 C   0  0  0  0  0  0  0  0  0  0  0  0
    6.5596    0.2091   19.8036 C   0  0  0  0  0  0  0  0  0  0  0  0
    5.3133    0.8465   19.9319 C   0  0  0  0  0  0  0  0  0  0  0  0
    4.7572    1.4210   18.7921 C   0  0  0  0  0  0  0  0  0  0  0  0
    5.4485    1.3253   17.5782 C   0  0  0  0  0  0  0  0  0  0  0  0
    6.6165    0.6814   17.4392 N   0  0  0  0  0  0  0  0  0  0  0  0
    7.1519    0.1383   18.5351 C   0  0  0  0  0  0  0  0  0  0  0  0
    8.1002   -0.3820   18.4087 H   0  0  0  0  0  0  0  0  0  0  0  0
    5.0475    1.7778   16.6751 H   0  0  0  0  0  0  0  0  0  0  0  0
    3.8149    1.9565   18.8273 H   0  0  0  0  0  0  0  0  0  0  0  0
    4.7982    0.8958   20.8941 H   0  0  0  0  0  0  0  0  0  0  0  0
    6.7881   -0.3977   22.1904 N   0  0  0  0  0  0  0  0  0  0  0  0
    7.6737   -1.1083   22.8644 C   0  0  0  0  0  0  0  0  0  0  0  0
    7.6491   -1.5400   24.3155 C   0  0  0  0  0  0  0  0  0  0  0  0
    6.6873   -0.6962   25.1715 C   0  0  0  0  0  0  0  0  0  0  0  0
    6.9560    0.3638   25.1056 H   0  0  0  0  0  0  0  0  0  0  0  0
    5.6469   -0.8122   24.8542 H   0  0  0  0  0  0  0  0  0  0  0  0
    6.7572   -0.9957   26.2219 H   0  0  0  0  0  0  0  0  0  0  0  0
    7.4608   -3.0428   24.4588 C   0  0  0  0  0  0  0  0  0  0  0  0
    8.1507   -3.8725   25.2964 C   0  0  0  0  0  0  0  0  0  0  0  0
    7.6112   -5.1443   25.2845 N   0  0  0  0  0  0  0  0  0  0  0  0
    8.1044   -6.2638   26.0475 C   0  0  0  0  0  0  0  0  0  0  0  0
    8.4697   -5.9299   27.0224 H   0  0  0  0  0  0  0  0  0  0  0  0
    7.2848   -6.9655   26.2058 H   0  0  0  0  0  0  0  0  0  0  0  0
    8.9307   -6.7731   25.5399 H   0  0  0  0  0  0  0  0  0  0  0  0
    6.4993   -5.1354   24.4620 C   0  0  0  0  0  0  0  0  0  0  0  0
    5.5164   -6.1208   24.2310 C   0  0  0  0  0  0  0  0  0  0  0  0
    4.4970   -5.8279   23.3341 C   0  0  0  0  0  0  0  0  0  0  0  0
    4.4456   -4.5749   22.6795 C   0  0  0  0  0  0  0  0  0  0  0  0
    5.3959   -3.6003   22.9298 C   0  0  0  0  0  0  0  0  0  0  0  0
    6.4196   -3.8471   23.8716 C   0  0  0  0  0  0  0  0  0  0  0  0
    5.3563   -2.6324   22.4371 H   0  0  0  0  0  0  0  0  0  0  0  0
    3.6315   -4.3839   21.9884 H   0  0  0  0  0  0  0  0  0  0  0  0
    3.7229   -6.5718   23.1617 H   0  0  0  0  0  0  0  0  0  0  0  0
    5.5278   -7.0645   24.7701 H   0  0  0  0  0  0  0  0  0  0  0  0
    8.9937   -3.6577   25.9501 H   0  0  0  0  0  0  0  0  0  0  0  0
    8.6551   -1.3321   24.7031 H   0  0  0  0  0  0  0  0  0  0  0  0
    9.9171   -2.9394   21.3455 H   0  0  0  0  0  0  0  0  0  0  0  0
    9.5964   -3.0372   23.0654 H   0  0  0  0  0  0  0  0  0  0  0  0
   11.8149   -2.4493   22.9496 H   0  0  0  0  0  0  0  0  0  0  0  0
   12.3834   -1.9076   20.7418 H   0  0  0  0  0  0  0  0  0  0  0  0
   11.1616   -0.6258   20.6192 H   0  0  0  0  0  0  0  0  0  0  0  0
   12.6331   -0.3831   21.5921 H   0  0  0  0  0  0  0  0  0  0  0  0
  1  2  1  0
  2  3  1  0
  3  4  1  0
  4  5  1  0
  3  6  1  0
  3  7  1  0
  2  8  1  0
  8  9  1  0
  9 10  1  0
 10 11  2  0
 11 12  1  0
 12 13  2  0
 13 14  1  0
 14 15  2  0
 15 16  1  0
 16 17  2  0
 17 18  1  0
 15 19  1  0
 14 20  1  0
 13 21  1  0
 11 22  1  0
 22 23  2  0
 23 24  1  0
 24 25  1  0
 25 26  1  0
 25 27  1  0
 25 28  1  0
 24 29  1  0
 29 30  2  0
 30 31  1  0
 31 32  1  0
 32 33  1  0
 32 34  1  0
 32 35  1  0
 31 36  1  0
 36 37  2  0
 37 38  1  0
 38 39  2  0
 39 40  1  0
 40 41  2  0
 40 42  1  0
 39 43  1  0
 38 44  1  0
 37 45  1  0
 30 46  1  0
 24 47  1  0
  8 48  1  0
  8 49  1  0
  2 50  1  0
  1 51  1  0
  1 52  1  0
  1 53  1  0
 23  9  1  0
 41 29  1  0
 17 12  1  0
 41 36  1  0
M  END
>  <cnnaffinity>  (1) 
-6.41725

>  <filename>  (1) 
CC(CO)Cn1nc(-c2cccnc2)nc1C(C)c1cn(C)c2ccccc12

$$$$
