
     RDKit          3D

 46 49  0  0  0  0  0  0  0  0999 V2000
    5.6352   -5.3208   23.8801 C   0  0  0  0  0  0  0  0  0  0  0  0
    6.7769   -4.3018   23.7613 C   0  0  0  0  0  0  0  0  0  0  0  0
    7.5912   -4.1887   25.0517 C   0  0  0  0  0  0  0  0  0  0  0  0
    8.1524   -5.1063   25.2666 H   0  0  0  0  0  0  0  0  0  0  0  0
    6.9416   -3.9975   25.9120 H   0  0  0  0  0  0  0  0  0  0  0  0
    8.3020   -3.3570   24.9943 H   0  0  0  0  0  0  0  0  0  0  0  0
    7.6511   -4.6382   22.5382 C   0  0  0  0  0  0  0  0  0  0  0  0
    8.6990   -3.5900   22.1187 C   0  0  0  0  0  0  0  0  0  0  0  0
    8.1719   -2.2141   21.9451 C   0  0  0  0  0  0  0  0  0  0  0  0
    7.7642   -1.8225   20.7596 N   0  0  0  0  0  0  0  0  0  0  0  0
    7.3195   -0.5723   20.9724 N   0  0  0  0  0  0  0  0  0  0  0  0
    6.6217    0.0726   19.9227 C   0  0  0  0  0  0  0  0  0  0  0  0
    5.3739    0.6654   20.1346 C   0  0  0  0  0  0  0  0  0  0  0  0
    4.7710    1.2981   19.0459 C   0  0  0  0  0  0  0  0  0  0  0  0
    5.4145    1.2764   17.8053 C   0  0  0  0  0  0  0  0  0  0  0  0
    6.5717    0.6241   17.5852 N   0  0  0  0  0  0  0  0  0  0  0  0
    7.1557    0.0259   18.6243 C   0  0  0  0  0  0  0  0  0  0  0  0
    8.0811   -0.5176   18.4286 H   0  0  0  0  0  0  0  0  0  0  0  0
    4.9965    1.8101   16.9557 H   0  0  0  0  0  0  0  0  0  0  0  0
    3.8328    1.8274   19.1661 H   0  0  0  0  0  0  0  0  0  0  0  0
    4.9152    0.6472   21.1246 H   0  0  0  0  0  0  0  0  0  0  0  0
    7.5459   -0.2413   22.2866 C   0  0  0  0  0  0  0  0  0  0  0  0
    7.3265    1.1121   22.8171 C   0  0  0  0  0  0  0  0  0  0  0  0
    7.4445    2.1602   21.9892 N   0  0  0  0  0  0  0  0  0  0  0  0
    7.2084    3.4046   22.4618 C   0  0  0  0  0  0  0  0  0  0  0  0
    6.8793    3.6651   23.7794 C   0  0  0  0  0  0  0  0  0  0  0  0
    6.7745    2.5756   24.7027 C   0  0  0  0  0  0  0  0  0  0  0  0
    6.4622    2.7121   26.0908 C   0  0  0  0  0  0  0  0  0  0  0  0
    6.3823    1.5792   26.8760 C   0  0  0  0  0  0  0  0  0  0  0  0
    6.5946    0.3059   26.2858 C   0  0  0  0  0  0  0  0  0  0  0  0
    6.8736    0.1277   25.0155 N   0  0  0  0  0  0  0  0  0  0  0  0
    6.9962    1.2315   24.2185 C   0  0  0  0  0  0  0  0  0  0  0  0
    6.5358   -0.5961   26.8941 H   0  0  0  0  0  0  0  0  0  0  0  0
    6.1640    1.6231   27.9374 H   0  0  0  0  0  0  0  0  0  0  0  0
    6.2931    3.7032   26.5125 H   0  0  0  0  0  0  0  0  0  0  0  0
    6.7060    4.6945   24.0898 H   0  0  0  0  0  0  0  0  0  0  0  0
    7.2813    4.1960   21.7166 H   0  0  0  0  0  0  0  0  0  0  0  0
    8.0723   -1.2949   22.9134 N   0  0  0  0  0  0  0  0  0  0  0  0
    9.0575   -3.8183   21.1175 H   0  0  0  0  0  0  0  0  0  0  0  0
    9.5479   -3.5479   22.8096 H   0  0  0  0  0  0  0  0  0  0  0  0
    6.9815   -4.8285   21.6894 H   0  0  0  0  0  0  0  0  0  0  0  0
    8.1826   -5.5823   22.7116 H   0  0  0  0  0  0  0  0  0  0  0  0
    6.3230   -3.3138   23.5919 H   0  0  0  0  0  0  0  0  0  0  0  0
    5.0438   -5.3562   22.9567 H   0  0  0  0  0  0  0  0  0  0  0  0
    4.9502   -5.0688   24.6978 H   0  0  0  0  0  0  0  0  0  0  0  0
    6.0188   -6.3316   24.0655 H   0  0  0  0  0  0  0  0  0  0  0  0
  1  2  1  0
  2  3  1  0
  3  4  1  0
  3  5  1  0
  3  6  1  0
  2  7  1  0
  7  8  1  0
  8  9  1  0
  9 10  2  0
 10 11  1  0
 11 12  1  0
 12 13  2  0
 13 14  1  0
 14 15  2  0
 15 16  1  0
 16 17  2  0
 17 18  1  0
 15 19  1  0
 14 20  1  0
 13 21  1  0
 11 22  1  0
 22 23  1  0
 23 24  2  0
 24 25  1  0
 25 26  2  0
 26 27  1  0
 27 28  2  0
 28 29  1  0
 29 30  2  0
 30 31  1  0
 31 32  2  0
 30 33  1  0
 29 34  1  0
 28 35  1  0
 26 36  1  0
 25 37  1  0
 22 38  2  0
  8 39  1  0
  8 40  1  0
  7 41  1  0
  7 42  1  0
  2 43  1  0
  1 44  1  0
  1 45  1  0
  1 46  1  0
 38  9  1  0
 17 12  1  0
 32 23  1  0
 32 27  1  0
M  END
>  <cnnaffinity>  (1) 
-6.20803

>  <filename>  (1) 
CC(C)CCc1nc(-c2nccc3cccnc23)n(-c2cccnc2)n1

$$$$
