
     RDKit          3D

 46 49  0  0  0  0  0  0  0  0999 V2000
   12.4920   -1.7444   21.9840 C   0  0  0  0  0  0  0  0  0  0  0  0
   11.1050   -1.1471   22.2766 C   0  0  0  0  0  0  0  0  0  0  0  0
   10.9580   -0.4956   23.6633 C   0  0  0  0  0  0  0  0  0  0  0  0
   10.7942   -1.2409   24.4556 H   0  0  0  0  0  0  0  0  0  0  0  0
   10.1018    0.1923   23.6792 H   0  0  0  0  0  0  0  0  0  0  0  0
   11.8518    0.0798   23.9336 H   0  0  0  0  0  0  0  0  0  0  0  0
   10.0385   -2.2315   22.0519 C   0  0  0  0  0  0  0  0  0  0  0  0
    8.6849   -1.7067   21.9316 N   0  0  0  0  0  0  0  0  0  0  0  0
    8.3449   -1.2175   20.7205 N   0  0  0  0  0  0  0  0  0  0  0  0
    7.1903   -0.6156   20.9401 C   0  0  0  0  0  0  0  0  0  0  0  0
    6.4906    0.0781   19.8676 C   0  0  0  0  0  0  0  0  0  0  0  0
    5.2782    0.7637   20.0426 C   0  0  0  0  0  0  0  0  0  0  0  0
    4.7326    1.4041   18.9312 C   0  0  0  0  0  0  0  0  0  0  0  0
    5.4108    1.3414   17.7082 C   0  0  0  0  0  0  0  0  0  0  0  0
    6.5635    0.6796   17.5329 N   0  0  0  0  0  0  0  0  0  0  0  0
    7.0864    0.0672   18.5966 C   0  0  0  0  0  0  0  0  0  0  0  0
    8.0240   -0.4615   18.4307 H   0  0  0  0  0  0  0  0  0  0  0  0
    5.0102    1.8432   16.8306 H   0  0  0  0  0  0  0  0  0  0  0  0
    3.8031    1.9588   18.9937 H   0  0  0  0  0  0  0  0  0  0  0  0
    4.7821    0.7997   21.0156 H   0  0  0  0  0  0  0  0  0  0  0  0
    6.7710   -0.6749   22.2239 N   0  0  0  0  0  0  0  0  0  0  0  0
    7.7169   -1.3784   22.8254 C   0  0  0  0  0  0  0  0  0  0  0  0
    7.7093   -1.6887   24.3050 C   0  0  0  0  0  0  0  0  0  0  0  0
    6.5394   -2.4256   24.7647 N   0  0  0  0  0  0  0  0  0  0  0  0
    5.4415   -1.8077   25.3852 C   0  0  0  0  0  0  0  0  0  0  0  0
    5.3530   -0.6790   25.8126 O   0  0  0  0  0  0  0  0  0  0  0  0
    4.4528   -2.7628   25.4351 N   0  0  0  0  0  0  0  0  0  0  0  0
    4.8558   -3.9306   24.8147 C   0  0  0  0  0  0  0  0  0  0  0  0
    4.2057   -5.1398   24.6124 C   0  0  0  0  0  0  0  0  0  0  0  0
    4.9109   -6.1555   23.9563 C   0  0  0  0  0  0  0  0  0  0  0  0
    6.2424   -5.9562   23.5304 C   0  0  0  0  0  0  0  0  0  0  0  0
    6.9001   -4.7431   23.7586 C   0  0  0  0  0  0  0  0  0  0  0  0
    6.1894   -3.7286   24.3996 C   0  0  0  0  0  0  0  0  0  0  0  0
    7.9360   -4.5978   23.4572 H   0  0  0  0  0  0  0  0  0  0  0  0
    6.7699   -6.7618   23.0244 H   0  0  0  0  0  0  0  0  0  0  0  0
    4.4258   -7.1125   23.7832 H   0  0  0  0  0  0  0  0  0  0  0  0
    3.1897   -5.2817   24.9749 H   0  0  0  0  0  0  0  0  0  0  0  0
    3.5261   -2.4301   25.6252 H   0  0  0  0  0  0  0  0  0  0  0  0
    7.6967   -0.7309   24.8388 H   0  0  0  0  0  0  0  0  0  0  0  0
    8.6154   -2.2305   24.5993 H   0  0  0  0  0  0  0  0  0  0  0  0
   10.2251   -2.7245   21.0990 H   0  0  0  0  0  0  0  0  0  0  0  0
   10.0781   -2.9935   22.8365 H   0  0  0  0  0  0  0  0  0  0  0  0
   10.9177   -0.3785   21.5118 H   0  0  0  0  0  0  0  0  0  0  0  0
   12.6225   -2.7284   22.4560 H   0  0  0  0  0  0  0  0  0  0  0  0
   13.2953   -1.0764   22.3173 H   0  0  0  0  0  0  0  0  0  0  0  0
   12.6145   -1.8742   20.9007 H   0  0  0  0  0  0  0  0  0  0  0  0
  1  2  1  0
  2  3  1  0
  3  4  1  0
  3  5  1  0
  3  6  1  0
  2  7  1  0
  7  8  1  0
  8  9  1  0
  9 10  2  0
 10 11  1  0
 11 12  2  0
 12 13  1  0
 13 14  2  0
 14 15  1  0
 15 16  2  0
 16 17  1  0
 14 18  1  0
 13 19  1  0
 12 20  1  0
 10 21  1  0
 21 22  2  0
 22 23  1  0
 23 24  1  0
 24 25  1  0
 25 26  2  0
 25 27  1  0
 27 28  1  0
 28 29  2  0
 29 30  1  0
 30 31  2  0
 31 32  1  0
 32 33  2  0
 32 34  1  0
 31 35  1  0
 30 36  1  0
 29 37  1  0
 27 38  1  0
 23 39  1  0
 23 40  1  0
  7 41  1  0
  7 42  1  0
  2 43  1  0
  1 44  1  0
  1 45  1  0
  1 46  1  0
 22  8  1  0
 33 24  1  0
 16 11  1  0
 33 28  1  0
M  END
>  <cnnaffinity>  (1) 
-6.27483

>  <filename>  (1) 
CC(C)Cn1nc(-c2cccnc2)nc1Cn1c(=O)[nH]c2ccccc21

$$$$
