
     RDKit          3D

 29 29  0  0  0  0  0  0  0  0999 V2000
    4.9414    1.6832   16.8981 H   0  0  0  0  0  0  0  0  0  0  0  0
    5.4660    1.2357   17.7391 C   0  0  0  0  0  0  0  0  0  0  0  0
    6.5814    0.5531   17.4402 N   0  0  0  0  0  0  0  0  0  0  0  0
    7.2631    0.0204   18.4532 C   0  0  0  0  0  0  0  0  0  0  0  0
    8.1569   -0.5392   18.1901 H   0  0  0  0  0  0  0  0  0  0  0  0
    6.9006    0.1627   19.8103 C   0  0  0  0  0  0  0  0  0  0  0  0
    7.8739   -0.4372   20.8034 C   0  0  0  0  0  0  0  0  0  0  0  0
    8.6639   -1.2718   20.4026 O   0  0  0  0  0  0  0  0  0  0  0  0
    7.9337   -0.0155   22.3770 C   0  0  0  0  0  0  0  0  0  0  0  0
    7.5890    1.4303   22.5986 N   0  0  0  0  0  0  0  0  0  0  0  0
    8.3992    2.0523   22.6154 H   0  0  0  0  0  0  0  0  0  0  0  0
    7.0156    2.0100   24.0720 S   0  0  0  0  0  0  0  0  0  0  0  0
    7.8491    1.6710   25.1930 O   0  0  0  0  0  0  0  0  0  0  0  0
    5.5780    2.0616   24.1417 O   0  0  0  0  0  0  0  0  0  0  0  0
    7.4609    3.4992   23.5165 N   0  0  0  0  0  0  0  0  0  0  0  0
    6.8583    4.0793   24.0906 H   0  0  0  0  0  0  0  0  0  0  0  0
    6.9635    3.3761   22.6343 H   0  0  0  0  0  0  0  0  0  0  0  0
    6.9799   -0.8902   23.2084 C   0  0  0  0  0  0  0  0  0  0  0  0
    7.3050   -0.9434   24.2561 H   0  0  0  0  0  0  0  0  0  0  0  0
    6.9336   -1.9163   22.8271 H   0  0  0  0  0  0  0  0  0  0  0  0
    5.9834   -0.4460   23.2055 H   0  0  0  0  0  0  0  0  0  0  0  0
    9.3782   -0.2061   22.8742 C   0  0  0  0  0  0  0  0  0  0  0  0
    9.6718   -1.2533   22.7520 H   0  0  0  0  0  0  0  0  0  0  0  0
   10.0750    0.4111   22.2950 H   0  0  0  0  0  0  0  0  0  0  0  0
    9.4518    0.0637   23.9343 H   0  0  0  0  0  0  0  0  0  0  0  0
    5.7079    0.8487   20.1064 C   0  0  0  0  0  0  0  0  0  0  0  0
    5.3644    0.9836   21.1398 H   0  0  0  0  0  0  0  0  0  0  0  0
    4.9791    1.3858   19.0438 C   0  0  0  0  0  0  0  0  0  0  0  0
    4.0637    1.9440   19.2117 H   0  0  0  0  0  0  0  0  0  0  0  0
  1  2  1  0
  2  3  2  0
  3  4  1  0
  4  5  1  0
  4  6  2  0
  6  7  1  0
  7  8  2  0
  7  9  1  0
  9 10  1  0
 10 11  1  0
 10 12  1  0
 12 13  2  0
 12 14  2  0
 12 15  1  0
 15 16  1  0
 15 17  1  0
  9 18  1  0
 18 19  1  0
 18 20  1  0
 18 21  1  0
  9 22  1  0
 22 23  1  0
 22 24  1  0
 22 25  1  0
  6 26  1  0
 26 27  1  0
 26 28  2  0
 28 29  1  0
 28  2  1  0
M  END
>  <cnnaffinity>  (1) 
-3.78794

>  <filename>  (1) 
CC(C)(NS(N)(=O)=O)C(=O)c1cccnc1

$$$$
