
     RDKit          3D

 46 50  0  0  0  0  0  0  0  0999 V2000
   11.6208    3.8172   22.5773 C   0  0  0  0  0  0  0  0  0  0  0  0
   11.4806    2.3816   22.0331 C   0  0  0  0  0  0  0  0  0  0  0  0
   10.0855    1.7683   22.0594 C   0  0  0  0  0  0  0  0  0  0  0  0
    9.7382    0.8342   21.1785 N   0  0  0  0  0  0  0  0  0  0  0  0
    8.4659    0.5112   21.5259 C   0  0  0  0  0  0  0  0  0  0  0  0
    7.6273   -0.5343   20.8317 C   0  0  0  0  0  0  0  0  0  0  0  0
    6.7585    0.0009   19.6924 C   0  0  0  0  0  0  0  0  0  0  0  0
    5.5495    0.6599   19.9652 C   0  0  0  0  0  0  0  0  0  0  0  0
    4.8763    1.3041   18.9249 C   0  0  0  0  0  0  0  0  0  0  0  0
    5.4243    1.2519   17.6400 C   0  0  0  0  0  0  0  0  0  0  0  0
    6.5359    0.5627   17.3375 N   0  0  0  0  0  0  0  0  0  0  0  0
    7.1720   -0.0459   18.3465 C   0  0  0  0  0  0  0  0  0  0  0  0
    8.0748   -0.5974   18.0776 H   0  0  0  0  0  0  0  0  0  0  0  0
    4.9520    1.7849   16.8173 H   0  0  0  0  0  0  0  0  0  0  0  0
    3.9643    1.8672   19.0990 H   0  0  0  0  0  0  0  0  0  0  0  0
    5.1501    0.6797   20.9825 H   0  0  0  0  0  0  0  0  0  0  0  0
    8.3142   -1.3110   20.4794 H   0  0  0  0  0  0  0  0  0  0  0  0
    6.9932   -0.9762   21.6116 H   0  0  0  0  0  0  0  0  0  0  0  0
    8.0016    1.1725   22.5610 N   0  0  0  0  0  0  0  0  0  0  0  0
    9.0249    2.0014   22.8973 N   0  0  0  0  0  0  0  0  0  0  0  0
    8.7980    2.9416   23.9620 C   0  0  0  0  0  0  0  0  0  0  0  0
    8.6166    2.4525   25.2870 C   0  0  0  0  0  0  0  0  0  0  0  0
    8.4762    3.3251   26.3576 C   0  0  0  0  0  0  0  0  0  0  0  0
    8.4688    4.7147   26.0747 C   0  0  0  0  0  0  0  0  0  0  0  0
    8.3651    5.8178   26.8732 N   0  0  0  0  0  0  0  0  0  0  0  0
    8.4117    6.9766   26.1793 N   0  0  0  0  0  0  0  0  0  0  0  0
    8.5401    6.6286   24.9130 C   0  0  0  0  0  0  0  0  0  0  0  0
    8.5754    5.2110   24.7583 C   0  0  0  0  0  0  0  0  0  0  0  0
    8.6950    4.2938   23.6757 C   0  0  0  0  0  0  0  0  0  0  0  0
    8.6967    4.6109   22.6381 H   0  0  0  0  0  0  0  0  0  0  0  0
    8.5993    7.3795   24.1349 H   0  0  0  0  0  0  0  0  0  0  0  0
    8.2023    5.8468   27.8683 H   0  0  0  0  0  0  0  0  0  0  0  0
    8.3581    2.9499   27.3719 H   0  0  0  0  0  0  0  0  0  0  0  0
    8.5524    1.3769   25.4419 H   0  0  0  0  0  0  0  0  0  0  0  0
   12.5807    1.5158   22.6957 C   0  0  0  0  0  0  0  0  0  0  0  0
   12.4574    1.0766   24.1226 C   0  0  0  0  0  0  0  0  0  0  0  0
   12.4734    0.0524   23.0177 C   0  0  0  0  0  0  0  0  0  0  0  0
   11.5611   -0.4944   22.7715 H   0  0  0  0  0  0  0  0  0  0  0  0
   13.3720   -0.5510   22.9028 H   0  0  0  0  0  0  0  0  0  0  0  0
   13.3132    1.1568   24.7896 H   0  0  0  0  0  0  0  0  0  0  0  0
   11.5101    1.2949   24.6091 H   0  0  0  0  0  0  0  0  0  0  0  0
   13.5813    1.8311   22.3950 H   0  0  0  0  0  0  0  0  0  0  0  0
   11.7049    2.3784   20.9579 H   0  0  0  0  0  0  0  0  0  0  0  0
   10.9000    4.5184   22.1556 H   0  0  0  0  0  0  0  0  0  0  0  0
   12.6169    4.2005   22.3316 H   0  0  0  0  0  0  0  0  0  0  0  0
   11.4966    3.8462   23.6673 H   0  0  0  0  0  0  0  0  0  0  0  0
  1  2  1  0
  2  3  1  0
  3  4  2  0
  4  5  1  0
  5  6  1  0
  6  7  1  0
  7  8  2  0
  8  9  1  0
  9 10  2  0
 10 11  1  0
 11 12  2  0
 12 13  1  0
 10 14  1  0
  9 15  1  0
  8 16  1  0
  6 17  1  0
  6 18  1  0
  5 19  2  0
 19 20  1  0
 20 21  1  0
 21 22  2  0
 22 23  1  0
 23 24  2  0
 24 25  1  0
 25 26  1  0
 26 27  2  0
 27 28  1  0
 28 29  2  0
 29 30  1  0
 27 31  1  0
 25 32  1  0
 23 33  1  0
 22 34  1  0
  2 35  1  0
 35 36  1  0
 36 37  1  0
 37 38  1  0
 37 39  1  0
 36 40  1  0
 36 41  1  0
 35 42  1  0
  2 43  1  0
  1 44  1  0
  1 45  1  0
  1 46  1  0
 20  3  1  0
 29 21  1  0
 37 35  1  0
 12  7  1  0
 28 24  1  0
M  END
>  <cnnaffinity>  (1) 
-5.41854

>  <filename>  (1) 
CC(c1nc(Cc2cccnc2)nn1-c1ccc2[nH]ncc2c1)C1CC1

$$$$
