
     RDKit          3D

 47 50  0  0  0  0  0  0  0  0999 V2000
   11.8375   -1.1034   21.2590 C   0  0  0  0  0  0  0  0  0  0  0  0
   11.2633   -1.7160   22.5421 C   0  0  0  0  0  0  0  0  0  0  0  0
   11.1462   -0.6687   23.6724 C   0  0  0  0  0  0  0  0  0  0  0  0
   12.3846   -0.0247   23.9339 O   0  0  0  0  0  0  0  0  0  0  0  0
   13.0757   -0.7038   23.8835 H   0  0  0  0  0  0  0  0  0  0  0  0
   10.7686   -1.1409   24.5996 H   0  0  0  0  0  0  0  0  0  0  0  0
   10.4480    0.1339   23.4113 H   0  0  0  0  0  0  0  0  0  0  0  0
    9.9668   -2.4909   22.2399 C   0  0  0  0  0  0  0  0  0  0  0  0
    8.7704   -1.7089   22.0193 N   0  0  0  0  0  0  0  0  0  0  0  0
    8.4976   -1.2304   20.7861 N   0  0  0  0  0  0  0  0  0  0  0  0
    7.3528   -0.6005   20.9687 C   0  0  0  0  0  0  0  0  0  0  0  0
    6.6322    0.0390   19.8874 C   0  0  0  0  0  0  0  0  0  0  0  0
    5.4085    0.6752   20.1249 C   0  0  0  0  0  0  0  0  0  0  0  0
    4.7934    1.3175   19.0589 C   0  0  0  0  0  0  0  0  0  0  0  0
    5.4191    1.2904   17.8061 C   0  0  0  0  0  0  0  0  0  0  0  0
    6.5798    0.6583   17.5671 N   0  0  0  0  0  0  0  0  0  0  0  0
    7.1746    0.0476   18.5954 C   0  0  0  0  0  0  0  0  0  0  0  0
    8.1253   -0.4434   18.3826 H   0  0  0  0  0  0  0  0  0  0  0  0
    4.9648    1.8006   16.9611 H   0  0  0  0  0  0  0  0  0  0  0  0
    3.8610    1.8516   19.2004 H   0  0  0  0  0  0  0  0  0  0  0  0
    4.9944    0.6641   21.1357 H   0  0  0  0  0  0  0  0  0  0  0  0
    6.8888   -0.6333   22.2455 N   0  0  0  0  0  0  0  0  0  0  0  0
    7.7841   -1.3629   22.8701 C   0  0  0  0  0  0  0  0  0  0  0  0
    7.7309   -1.8973   24.2622 C   0  0  0  0  0  0  0  0  0  0  0  0
    7.3047   -3.3526   24.3650 C   0  0  0  0  0  0  0  0  0  0  0  0
    6.8286   -4.1695   23.3824 C   0  0  0  0  0  0  0  0  0  0  0  0
    6.4986   -5.4010   23.9047 N   0  0  0  0  0  0  0  0  0  0  0  0
    6.7408   -5.4027   25.2553 C   0  0  0  0  0  0  0  0  0  0  0  0
    7.2704   -4.1241   25.5780 C   0  0  0  0  0  0  0  0  0  0  0  0
    7.5994   -3.8752   26.9241 C   0  0  0  0  0  0  0  0  0  0  0  0
    8.2462   -2.3288   27.3974 Cl  0  0  0  0  0  0  0  0  0  0  0  0
    7.4012   -4.8496   27.8918 C   0  0  0  0  0  0  0  0  0  0  0  0
    6.8733   -6.1092   27.5340 C   0  0  0  0  0  0  0  0  0  0  0  0
    6.5196   -6.4019   26.2229 C   0  0  0  0  0  0  0  0  0  0  0  0
    6.0721   -7.3604   25.9764 H   0  0  0  0  0  0  0  0  0  0  0  0
    6.7432   -6.8664   28.3027 H   0  0  0  0  0  0  0  0  0  0  0  0
    7.6288   -4.6295   28.9257 H   0  0  0  0  0  0  0  0  0  0  0  0
    6.0913   -6.1619   23.3933 H   0  0  0  0  0  0  0  0  0  0  0  0
    6.6952   -3.9520   22.3300 H   0  0  0  0  0  0  0  0  0  0  0  0
    7.0662   -1.2568   24.8497 H   0  0  0  0  0  0  0  0  0  0  0  0
    8.7253   -1.7738   24.7098 H   0  0  0  0  0  0  0  0  0  0  0  0
    9.7398   -3.2404   23.0016 H   0  0  0  0  0  0  0  0  0  0  0  0
   10.0818   -3.0088   21.2948 H   0  0  0  0  0  0  0  0  0  0  0  0
   11.9677   -2.4921   22.8843 H   0  0  0  0  0  0  0  0  0  0  0  0
   12.1764   -1.8817   20.5715 H   0  0  0  0  0  0  0  0  0  0  0  0
   11.0902   -0.4827   20.7481 H   0  0  0  0  0  0  0  0  0  0  0  0
   12.7088   -0.4979   21.5173 H   0  0  0  0  0  0  0  0  0  0  0  0
  1  2  1  0
  2  3  1  0
  3  4  1  0
  4  5  1  0
  3  6  1  0
  3  7  1  0
  2  8  1  0
  8  9  1  0
  9 10  1  0
 10 11  2  0
 11 12  1  0
 12 13  2  0
 13 14  1  0
 14 15  2  0
 15 16  1  0
 16 17  2  0
 17 18  1  0
 15 19  1  0
 14 20  1  0
 13 21  1  0
 11 22  1  0
 22 23  2  0
 23 24  1  0
 24 25  1  0
 25 26  2  0
 26 27  1  0
 27 28  1  0
 28 29  2  0
 29 30  1  0
 30 31  1  0
 30 32  2  0
 32 33  1  0
 33 34  2  0
 34 35  1  0
 33 36  1  0
 32 37  1  0
 27 38  1  0
 26 39  1  0
 24 40  1  0
 24 41  1  0
  8 42  1  0
  8 43  1  0
  2 44  1  0
  1 45  1  0
  1 46  1  0
  1 47  1  0
 23  9  1  0
 29 25  1  0
 17 12  1  0
 34 28  1  0
M  END
>  <cnnaffinity>  (1) 
-6.36756

>  <filename>  (1) 
CC(CO)Cn1nc(-c2cccnc2)nc1Cc1c[nH]c2cccc(Cl)c12

$$$$
