
     RDKit          3D

 33 34  0  0  0  0  0  0  0  0999 V2000
    7.1522   -1.4163   20.7270 C   0  0  0  0  0  0  0  0  0  0  0  0
    6.5115   -0.0402   20.9586 C   0  0  0  0  0  0  0  0  0  0  0  0
    7.5020    0.9326   21.6238 C   0  0  0  0  0  0  0  0  0  0  0  0
    8.1832    0.2391   22.7899 C   0  0  0  0  0  0  0  0  0  0  0  0
    7.7051    0.3205   23.9077 O   0  0  0  0  0  0  0  0  0  0  0  0
    9.1979   -0.6419   22.5046 N   0  0  0  0  0  0  0  0  0  0  0  0
    9.4620   -1.7607   23.2728 C   0  0  0  0  0  0  0  0  0  0  0  0
    8.4838   -2.2314   24.1297 C   0  0  0  0  0  0  0  0  0  0  0  0
    8.7136   -3.3761   24.8740 C   0  0  0  0  0  0  0  0  0  0  0  0
    9.8711   -4.0448   24.7936 N   0  0  0  0  0  0  0  0  0  0  0  0
   10.8284   -3.5848   23.9683 C   0  0  0  0  0  0  0  0  0  0  0  0
   10.6678   -2.4393   23.1727 C   0  0  0  0  0  0  0  0  0  0  0  0
   12.3354   -1.6570   21.8511 I   0  0  0  0  0  0  0  0  0  0  0  0
   11.7562   -4.1478   23.9335 H   0  0  0  0  0  0  0  0  0  0  0  0
    7.9201   -3.7321   25.5268 H   0  0  0  0  0  0  0  0  0  0  0  0
    7.5370   -1.7160   24.2036 H   0  0  0  0  0  0  0  0  0  0  0  0
    9.5389   -0.6456   21.5514 H   0  0  0  0  0  0  0  0  0  0  0  0
    6.9675    1.8179   21.9782 H   0  0  0  0  0  0  0  0  0  0  0  0
    8.2648    1.2665   20.9147 H   0  0  0  0  0  0  0  0  0  0  0  0
    6.0689    0.5197   19.6352 C   0  0  0  0  0  0  0  0  0  0  0  0
    4.8733    1.2309   19.5193 C   0  0  0  0  0  0  0  0  0  0  0  0
    4.5227    1.6999   18.2584 C   0  0  0  0  0  0  0  0  0  0  0  0
    5.3628    1.4590   17.1689 C   0  0  0  0  0  0  0  0  0  0  0  0
    6.5142    0.7729   17.2697 N   0  0  0  0  0  0  0  0  0  0  0  0
    6.8559    0.3222   18.4881 C   0  0  0  0  0  0  0  0  0  0  0  0
    7.7775   -0.2422   18.5990 H   0  0  0  0  0  0  0  0  0  0  0  0
    5.0785    1.8551   16.2043 H   0  0  0  0  0  0  0  0  0  0  0  0
    3.6125    2.2679   18.1121 H   0  0  0  0  0  0  0  0  0  0  0  0
    4.2389    1.4208   20.3829 H   0  0  0  0  0  0  0  0  0  0  0  0
    5.6382   -0.1658   21.6117 H   0  0  0  0  0  0  0  0  0  0  0  0
    7.4203   -1.8832   21.6796 H   0  0  0  0  0  0  0  0  0  0  0  0
    6.4563   -2.0778   20.1991 H   0  0  0  0  0  0  0  0  0  0  0  0
    8.0557   -1.3044   20.1194 H   0  0  0  0  0  0  0  0  0  0  0  0
  1  2  1  0
  2  3  1  0
  3  4  1  0
  4  5  2  0
  4  6  1  0
  6  7  1  0
  7  8  2  0
  8  9  1  0
  9 10  2  0
 10 11  1  0
 11 12  2  0
 12 13  1  0
 11 14  1  0
  9 15  1  0
  8 16  1  0
  6 17  1  0
  3 18  1  0
  3 19  1  0
  2 20  1  0
 20 21  2  0
 21 22  1  0
 22 23  2  0
 23 24  1  0
 24 25  2  0
 25 26  1  0
 23 27  1  0
 22 28  1  0
 21 29  1  0
  2 30  1  0
  1 31  1  0
  1 32  1  0
  1 33  1  0
 12  7  1  0
 25 20  1  0
M  END
>  <cnnaffinity>  (1) 
-5.67502

>  <filename>  (1) 
CC(CC(=O)Nc1ccncc1I)c1cccnc1

$$$$
