
     RDKit          3D

 38 39  0  0  0  0  0  0  0  0999 V2000
   11.0315    1.3763   22.7611 C   0  0  0  0  0  0  0  0  0  0  0  0
    9.9380    0.7345   23.6051 C   0  0  0  0  0  0  0  0  0  0  0  0
   10.5005   -0.0232   24.7940 C   0  0  0  0  0  0  0  0  0  0  0  0
    9.4302   -0.4804   25.7361 C   0  0  0  0  0  0  0  0  0  0  0  0
    8.7810    0.4316   26.5796 C   0  0  0  0  0  0  0  0  0  0  0  0
    7.7986   -0.0309   27.4559 C   0  0  0  0  0  0  0  0  0  0  0  0
    7.5016   -1.4009   27.4444 C   0  0  0  0  0  0  0  0  0  0  0  0
    8.2257   -2.2384   26.5942 C   0  0  0  0  0  0  0  0  0  0  0  0
    9.1329   -1.7858   25.7139 N   0  0  0  0  0  0  0  0  0  0  0  0
    8.0772   -3.3176   26.6156 H   0  0  0  0  0  0  0  0  0  0  0  0
    6.7122   -1.8172   28.0578 H   0  0  0  0  0  0  0  0  0  0  0  0
    7.2815    0.6555   28.1273 H   0  0  0  0  0  0  0  0  0  0  0  0
    9.0773    1.4782   26.5323 H   0  0  0  0  0  0  0  0  0  0  0  0
   11.0561   -0.9008   24.4539 H   0  0  0  0  0  0  0  0  0  0  0  0
   11.1803    0.6368   25.3409 H   0  0  0  0  0  0  0  0  0  0  0  0
    9.1633   -0.2605   22.8201 N   0  0  0  0  0  4  0  0  0  0  0  0
    8.3534    0.3185   21.7145 C   0  0  0  0  0  0  0  0  0  0  0  0
    7.4250   -0.6649   20.9999 C   0  0  0  0  0  0  0  0  0  0  0  0
    8.1911   -1.6889   20.4999 F   0  0  0  0  0  0  0  0  0  0  0  0
    6.6052   -1.2220   21.9480 F   0  0  0  0  0  0  0  0  0  0  0  0
    6.6271   -0.0140   19.8980 C   0  0  0  0  0  0  0  0  0  0  0  0
    5.4186    0.6523   20.1463 C   0  0  0  0  0  0  0  0  0  0  0  0
    4.7938    1.3190   19.0874 C   0  0  0  0  0  0  0  0  0  0  0  0
    5.4026    1.3031   17.8302 C   0  0  0  0  0  0  0  0  0  0  0  0
    6.5575    0.6719   17.5877 N   0  0  0  0  0  0  0  0  0  0  0  0
    7.1536    0.0388   18.6000 C   0  0  0  0  0  0  0  0  0  0  0  0
    8.0945   -0.4498   18.3582 H   0  0  0  0  0  0  0  0  0  0  0  0
    4.9462    1.8161   16.9793 H   0  0  0  0  0  0  0  0  0  0  0  0
    3.8645    1.8602   19.2220 H   0  0  0  0  0  0  0  0  0  0  0  0
    4.9690    0.6472   21.1370 H   0  0  0  0  0  0  0  0  0  0  0  0
    7.7029    1.1291   22.0656 H   0  0  0  0  0  0  0  0  0  0  0  0
    8.9824    0.7352   20.9190 H   0  0  0  0  0  0  0  0  0  0  0  0
    8.5929   -0.8445   23.4962 H   0  0  0  0  0  0  0  0  0  0  0  0
    9.8866   -0.9309   22.4391 H   0  0  0  0  0  0  0  0  0  0  0  0
    9.2459    1.5151   23.9555 H   0  0  0  0  0  0  0  0  0  0  0  0
   11.6744    0.6129   22.3021 H   0  0  0  0  0  0  0  0  0  0  0  0
   10.5988    1.9917   21.9679 H   0  0  0  0  0  0  0  0  0  0  0  0
   11.6535    2.0202   23.3842 H   0  0  0  0  0  0  0  0  0  0  0  0
  1  2  1  0
  2  3  1  0
  3  4  1  0
  4  5  2  0
  5  6  1  0
  6  7  2  0
  7  8  1  0
  8  9  2  0
  8 10  1  0
  7 11  1  0
  6 12  1  0
  5 13  1  0
  3 14  1  0
  3 15  1  0
  2 16  1  0
 16 17  1  0
 17 18  1  0
 18 19  1  0
 18 20  1  0
 18 21  1  0
 21 22  2  0
 22 23  1  0
 23 24  2  0
 24 25  1  0
 25 26  2  0
 26 27  1  0
 24 28  1  0
 23 29  1  0
 22 30  1  0
 17 31  1  0
 17 32  1  0
 16 33  1  0
 16 34  1  0
  2 35  1  0
  1 36  1  0
  1 37  1  0
  1 38  1  0
  9  4  1  0
 26 21  1  0
M  CHG  1  16   1
M  END
>  <cnnaffinity>  (1) 
-5.18689

>  <filename>  (1) 
CC(Cc1ccccn1)[NH2+]CC(F)(F)c1cccnc1

$$$$
