
     RDKit          3D

 42 43  0  0  0  0  0  0  0  0999 V2000
    9.4287    0.7587   21.0778 C   0  0  0  0  0  0  0  0  0  0  0  0
    8.2576    0.2605   21.9005 C   0  0  0  0  0  0  0  0  0  0  0  0
    7.3216   -0.6603   21.0691 C   0  0  0  0  0  0  0  0  0  0  0  0
    6.6091    0.0030   19.9099 C   0  0  0  0  0  0  0  0  0  0  0  0
    5.3902    0.6639   20.1203 C   0  0  0  0  0  0  0  0  0  0  0  0
    4.7895    1.3256   19.0506 C   0  0  0  0  0  0  0  0  0  0  0  0
    5.4103    1.2955   17.7992 C   0  0  0  0  0  0  0  0  0  0  0  0
    6.5586    0.6469   17.5579 N   0  0  0  0  0  0  0  0  0  0  0  0
    7.1336    0.0260   18.5987 C   0  0  0  0  0  0  0  0  0  0  0  0
    8.0700   -0.4912   18.3803 H   0  0  0  0  0  0  0  0  0  0  0  0
    4.9621    1.8142   16.9569 H   0  0  0  0  0  0  0  0  0  0  0  0
    3.8607    1.8672   19.1811 H   0  0  0  0  0  0  0  0  0  0  0  0
    4.9090    0.6495   21.1046 H   0  0  0  0  0  0  0  0  0  0  0  0
    7.9401   -1.4955   20.7141 H   0  0  0  0  0  0  0  0  0  0  0  0
    6.5759   -1.0803   21.7545 H   0  0  0  0  0  0  0  0  0  0  0  0
    7.5714    1.3975   22.5076 N   0  0  0  0  0  0  0  0  0  0  0  0
    6.6888    1.2092   23.5310 C   0  0  0  0  0  0  0  0  0  0  0  0
    6.6044    0.1653   24.1557 O   0  0  0  0  0  0  0  0  0  0  0  0
    5.9623    2.3454   23.8068 N   0  0  0  0  0  0  0  0  0  0  0  0
    5.0949    2.4088   24.9098 C   0  0  0  0  0  0  0  0  0  0  0  0
    5.5575    1.9256   26.1404 C   0  0  0  0  0  0  0  0  0  0  0  0
    4.7508    1.9899   27.2727 C   0  0  0  0  0  0  0  0  0  0  0  0
    3.4624    2.5171   27.1768 C   0  0  0  0  0  0  0  0  0  0  0  0
    2.9971    2.9856   25.9469 C   0  0  0  0  0  0  0  0  0  0  0  0
    3.7937    2.9449   24.7870 C   0  0  0  0  0  0  0  0  0  0  0  0
    3.2769    3.4508   23.4452 C   0  0  0  0  0  0  0  0  0  0  0  0
    1.7913    3.7275   23.3529 C   0  0  0  0  0  0  0  0  0  0  0  0
    1.2377    2.8271   23.6340 H   0  0  0  0  0  0  0  0  0  0  0  0
    1.5264    4.5393   24.0335 H   0  0  0  0  0  0  0  0  0  0  0  0
    1.5176    4.0140   22.3349 H   0  0  0  0  0  0  0  0  0  0  0  0
    3.5698    2.5254   22.4569 F   0  0  0  0  0  0  0  0  0  0  0  0
    3.9655    4.5857   23.0723 F   0  0  0  0  0  0  0  0  0  0  0  0
    1.9838    3.3765   25.9024 H   0  0  0  0  0  0  0  0  0  0  0  0
    2.8204    2.5622   28.0521 H   0  0  0  0  0  0  0  0  0  0  0  0
    5.1275    1.6075   28.2171 H   0  0  0  0  0  0  0  0  0  0  0  0
    6.5427    1.4744   26.1878 H   0  0  0  0  0  0  0  0  0  0  0  0
    5.8514    3.0116   23.0656 H   0  0  0  0  0  0  0  0  0  0  0  0
    7.3788    2.1950   21.9246 H   0  0  0  0  0  0  0  0  0  0  0  0
    8.6547   -0.3536   22.7191 H   0  0  0  0  0  0  0  0  0  0  0  0
    9.0716    1.3267   20.2206 H   0  0  0  0  0  0  0  0  0  0  0  0
    9.9998   -0.0897   20.6872 H   0  0  0  0  0  0  0  0  0  0  0  0
   10.1005    1.3900   21.6660 H   0  0  0  0  0  0  0  0  0  0  0  0
  1  2  1  0
  2  3  1  0
  3  4  1  0
  4  5  2  0
  5  6  1  0
  6  7  2  0
  7  8  1  0
  8  9  2  0
  9 10  1  0
  7 11  1  0
  6 12  1  0
  5 13  1  0
  3 14  1  0
  3 15  1  0
  2 16  1  0
 16 17  1  0
 17 18  2  0
 17 19  1  0
 19 20  1  0
 20 21  2  0
 21 22  1  0
 22 23  2  0
 23 24  1  0
 24 25  2  0
 25 26  1  0
 26 27  1  0
 27 28  1  0
 27 29  1  0
 27 30  1  0
 26 31  1  0
 26 32  1  0
 24 33  1  0
 23 34  1  0
 22 35  1  0
 21 36  1  0
 19 37  1  0
 16 38  1  0
  2 39  1  0
  1 40  1  0
  1 41  1  0
  1 42  1  0
  9  4  1  0
 25 20  1  0
M  END
>  <cnnaffinity>  (1) 
-5.16211

>  <filename>  (1) 
CC(Cc1cccnc1)NC(=O)Nc1ccccc1C(C)(F)F

$$$$
