
     RDKit          3D

 38 40  0  0  0  0  0  0  0  0999 V2000
    8.5427    0.6100   21.3585 C   0  0  0  0  0  0  0  0  0  0  0  0
    7.2489   -0.0576   20.8684 C   0  0  0  0  0  0  0  0  0  0  0  0
    7.4878   -1.5428   20.5141 C   0  0  0  0  0  0  0  0  0  0  0  0
    7.8108   -2.4024   21.6856 C   0  0  0  0  0  0  0  0  0  0  0  0
    8.8199   -3.1851   21.8519 N   0  0  0  0  0  0  0  0  0  0  0  0
    8.6643   -3.7790   23.0908 N   0  0  0  0  0  0  0  0  0  0  0  0
    7.5562   -3.3234   23.5873 C   0  0  0  0  0  0  0  0  0  0  0  0
    6.9629   -3.6869   24.8873 C   0  0  0  0  0  0  0  0  0  0  0  0
    5.6114   -3.4870   25.2248 C   0  0  0  0  0  0  0  0  0  0  0  0
    5.1043   -4.0435   26.4029 C   0  0  0  0  0  0  0  0  0  0  0  0
    5.9272   -4.7687   27.2776 C   0  0  0  0  0  0  0  0  0  0  0  0
    7.2819   -4.9283   26.9579 C   0  0  0  0  0  0  0  0  0  0  0  0
    8.2138   -5.8099   27.7531 C   0  0  0  0  0  0  0  0  0  0  0  0
    7.6495   -6.3503   28.8443 F   0  0  0  0  0  0  0  0  0  0  0  0
    8.6367   -6.8172   26.9660 F   0  0  0  0  0  0  0  0  0  0  0  0
    9.3144   -5.1438   28.1508 F   0  0  0  0  0  0  0  0  0  0  0  0
    7.7981   -4.3753   25.7815 C   0  0  0  0  0  0  0  0  0  0  0  0
    8.8492   -4.5095   25.5230 H   0  0  0  0  0  0  0  0  0  0  0  0
    5.5085   -5.2121   28.1827 H   0  0  0  0  0  0  0  0  0  0  0  0
    4.0444   -3.9473   26.6210 H   0  0  0  0  0  0  0  0  0  0  0  0
    4.9574   -2.9024   24.5780 H   0  0  0  0  0  0  0  0  0  0  0  0
    6.9596   -2.4358   22.7505 O   0  0  0  0  0  0  0  0  0  0  0  0
    8.3294   -1.6097   19.8171 H   0  0  0  0  0  0  0  0  0  0  0  0
    6.6043   -1.9557   20.0061 H   0  0  0  0  0  0  0  0  0  0  0  0
    6.5944    0.6609   19.6980 C   0  0  0  0  0  0  0  0  0  0  0  0
    5.3070    1.2125   19.8110 C   0  0  0  0  0  0  0  0  0  0  0  0
    4.6810    1.7381   18.6790 C   0  0  0  0  0  0  0  0  0  0  0  0
    5.3691    1.7114   17.4626 C   0  0  0  0  0  0  0  0  0  0  0  0
    6.6087    1.2183   17.3272 N   0  0  0  0  0  0  0  0  0  0  0  0
    7.2017    0.7353   18.4306 C   0  0  0  0  0  0  0  0  0  0  0  0
    8.2272    0.3878   18.2910 H   0  0  0  0  0  0  0  0  0  0  0  0
    4.9074    2.1029   16.5587 H   0  0  0  0  0  0  0  0  0  0  0  0
    3.6868    2.1711   18.7306 H   0  0  0  0  0  0  0  0  0  0  0  0
    4.8067    1.2337   20.7822 H   0  0  0  0  0  0  0  0  0  0  0  0
    6.5364   -0.0271   21.7002 H   0  0  0  0  0  0  0  0  0  0  0  0
    8.3266    1.6158   21.7351 H   0  0  0  0  0  0  0  0  0  0  0  0
    9.0133    0.0333   22.1665 H   0  0  0  0  0  0  0  0  0  0  0  0
    9.2863    0.6946   20.5573 H   0  0  0  0  0  0  0  0  0  0  0  0
  1  2  1  0
  2  3  1  0
  3  4  1  0
  4  5  2  0
  5  6  1  0
  6  7  2  0
  7  8  1  0
  8  9  2  0
  9 10  1  0
 10 11  2  0
 11 12  1  0
 12 13  1  0
 13 14  1  0
 13 15  1  0
 13 16  1  0
 12 17  2  0
 17 18  1  0
 11 19  1  0
 10 20  1  0
  9 21  1  0
  7 22  1  0
  3 23  1  0
  3 24  1  0
  2 25  1  0
 25 26  2  0
 26 27  1  0
 27 28  2  0
 28 29  1  0
 29 30  2  0
 30 31  1  0
 28 32  1  0
 27 33  1  0
 26 34  1  0
  2 35  1  0
  1 36  1  0
  1 37  1  0
  1 38  1  0
 22  4  1  0
 30 25  1  0
 17  8  1  0
M  END
>  <cnnaffinity>  (1) 
-5.51288

>  <filename>  (1) 
CC(Cc1nnc(-c2cccc(C(F)(F)F)c2)o1)c1cccnc1

$$$$
