
     RDKit          3D

 33 34  0  0  0  0  0  0  0  0999 V2000
    4.8642   -4.2140   25.1828 H   0  0  0  0  0  0  0  0  0  0  0  0
    5.6933   -3.6274   24.7955 C   0  0  0  0  0  0  0  0  0  0  0  0
    5.5465   -3.1487   23.5609 N   0  0  0  0  0  0  0  0  0  0  0  0
    6.5532   -2.4080   23.0701 C   0  0  0  0  0  0  0  0  0  0  0  0
    6.4265   -1.8434   21.6266 C   0  0  0  0  0  0  0  0  0  0  0  0
    5.7481   -2.4151   20.8046 O   0  0  0  0  0  0  0  0  0  0  0  0
    7.3407   -0.5991   21.1624 C   0  0  0  0  0  0  0  0  0  0  0  0
    6.6717    0.0745   19.9342 C   0  0  0  0  0  0  0  0  0  0  0  0
    7.1970    0.1059   18.6241 C   0  0  0  0  0  0  0  0  0  0  0  0
    8.1420   -0.3851   18.3892 H   0  0  0  0  0  0  0  0  0  0  0  0
    6.6112    0.7071   17.5751 N   0  0  0  0  0  0  0  0  0  0  0  0
    5.4408    1.3216   17.7991 C   0  0  0  0  0  0  0  0  0  0  0  0
    4.9797    1.8130   16.9449 H   0  0  0  0  0  0  0  0  0  0  0  0
    4.8127    1.3389   19.0453 C   0  0  0  0  0  0  0  0  0  0  0  0
    3.8653    1.8500   19.1679 H   0  0  0  0  0  0  0  0  0  0  0  0
    5.4333    0.7065   20.1223 C   0  0  0  0  0  0  0  0  0  0  0  0
    4.9681    0.6954   21.1083 H   0  0  0  0  0  0  0  0  0  0  0  0
    7.6573    0.4766   22.2500 C   0  0  0  0  0  0  0  0  0  0  0  0
    8.3182    0.0724   23.0222 H   0  0  0  0  0  0  0  0  0  0  0  0
    8.1892    1.3059   21.7629 H   0  0  0  0  0  0  0  0  0  0  0  0
    6.7818    0.9011   22.7528 H   0  0  0  0  0  0  0  0  0  0  0  0
    8.6988   -1.2357   20.8195 C   0  0  0  0  0  0  0  0  0  0  0  0
    8.6169   -1.9837   20.0419 H   0  0  0  0  0  0  0  0  0  0  0  0
    9.4074   -0.4748   20.4752 H   0  0  0  0  0  0  0  0  0  0  0  0
    9.0955   -1.7375   21.7078 H   0  0  0  0  0  0  0  0  0  0  0  0
    7.6853   -2.1658   23.7351 N   0  0  0  0  0  0  0  0  0  0  0  0
    7.8358   -2.6552   24.9778 C   0  0  0  0  0  0  0  0  0  0  0  0
    9.1496   -2.3529   25.7256 C   0  0  0  0  0  0  0  0  0  0  0  0
    9.9647   -1.5563   25.0244 F   0  0  0  0  0  0  0  0  0  0  0  0
    8.9132   -1.7566   26.9134 F   0  0  0  0  0  0  0  0  0  0  0  0
    9.8101   -3.4967   26.0070 F   0  0  0  0  0  0  0  0  0  0  0  0
    6.8327   -3.4216   25.5662 C   0  0  0  0  0  0  0  0  0  0  0  0
    6.9143   -3.8425   26.5605 H   0  0  0  0  0  0  0  0  0  0  0  0
  1  2  1  0
  2  3  2  0
  3  4  1  0
  4  5  1  0
  5  6  2  0
  5  7  1  0
  7  8  1  0
  8  9  2  0
  9 10  1  0
  9 11  1  0
 11 12  2  0
 12 13  1  0
 12 14  1  0
 14 15  1  0
 14 16  2  0
 16 17  1  0
  7 18  1  0
 18 19  1  0
 18 20  1  0
 18 21  1  0
  7 22  1  0
 22 23  1  0
 22 24  1  0
 22 25  1  0
  4 26  2  0
 26 27  1  0
 27 28  1  0
 28 29  1  0
 28 30  1  0
 28 31  1  0
 27 32  2  0
 32 33  1  0
 32  2  1  0
 16  8  1  0
M  END
>  <cnnaffinity>  (1) 
-5.33169

>  <filename>  (1) 
CC(C)(C(=O)c1nccc(C(F)(F)F)n1)c1cccnc1

$$$$
