
     RDKit          3D

 43 46  0  0  0  0  0  0  0  0999 V2000
   11.8828    2.4617   20.8920 C   0  0  0  0  0  0  0  0  0  0  0  0
   11.5463    1.7645   22.2000 C   0  0  0  0  0  0  0  0  0  0  0  0
   12.4432    0.5422   22.4530 C   0  0  0  0  0  0  0  0  0  0  0  0
   12.1546   -0.2650   21.7700 H   0  0  0  0  0  0  0  0  0  0  0  0
   12.3238    0.1852   23.4792 H   0  0  0  0  0  0  0  0  0  0  0  0
   13.4999    0.7866   22.2829 H   0  0  0  0  0  0  0  0  0  0  0  0
   10.1199    1.3847   22.1588 N   0  0  0  0  0  0  0  0  0  0  0  0
    9.6706    0.4641   21.2626 N   0  0  0  0  0  0  0  0  0  0  0  0
    8.4155    0.2908   21.6241 C   0  0  0  0  0  0  0  0  0  0  0  0
    7.4790   -0.6622   20.9440 C   0  0  0  0  0  0  0  0  0  0  0  0
    6.6723   -0.0265   19.8202 C   0  0  0  0  0  0  0  0  0  0  0  0
    5.4633    0.6308   20.0898 C   0  0  0  0  0  0  0  0  0  0  0  0
    4.8147    1.3037   19.0522 C   0  0  0  0  0  0  0  0  0  0  0  0
    5.3949    1.3032   17.7817 C   0  0  0  0  0  0  0  0  0  0  0  0
    6.5366    0.6591   17.4944 N   0  0  0  0  0  0  0  0  0  0  0  0
    7.1460    0.0165   18.4980 C   0  0  0  0  0  0  0  0  0  0  0  0
    8.0769   -0.4908   18.2392 H   0  0  0  0  0  0  0  0  0  0  0  0
    4.9273    1.8407   16.9575 H   0  0  0  0  0  0  0  0  0  0  0  0
    3.8863    1.8380   19.2166 H   0  0  0  0  0  0  0  0  0  0  0  0
    5.0427    0.6264   21.0983 H   0  0  0  0  0  0  0  0  0  0  0  0
    6.8030   -1.0213   21.7247 H   0  0  0  0  0  0  0  0  0  0  0  0
    8.0590   -1.5186   20.5860 H   0  0  0  0  0  0  0  0  0  0  0  0
    8.0181    1.0442   22.6720 N   0  0  0  0  0  0  0  0  0  0  0  0
    9.0913    1.7789   22.9414 C   0  0  0  0  0  0  0  0  0  0  0  0
    9.1494    2.8719   23.9213 C   0  0  0  0  0  0  0  0  0  0  0  0
    9.6094    4.1672   23.6296 C   0  0  0  0  0  0  0  0  0  0  0  0
    9.6285    5.1656   24.6289 C   0  0  0  0  0  0  0  0  0  0  0  0
    9.1705    4.9004   25.9226 C   0  0  0  0  0  0  0  0  0  0  0  0
    8.6887    3.6060   26.1954 C   0  0  0  0  0  0  0  0  0  0  0  0
    8.6971    2.5789   25.2264 C   0  0  0  0  0  0  0  0  0  0  0  0
    8.2537    1.3767   25.8856 C   0  0  0  0  0  0  0  0  0  0  0  0
    7.9631    1.7036   27.1742 C   0  0  0  0  0  0  0  0  0  0  0  0
    8.1864    3.0585   27.3540 N   0  0  0  0  0  0  0  0  0  0  0  0
    8.2589    3.5299   28.2410 H   0  0  0  0  0  0  0  0  0  0  0  0
    7.6330    1.0716   27.9919 H   0  0  0  0  0  0  0  0  0  0  0  0
    8.1864    0.4122   25.3950 H   0  0  0  0  0  0  0  0  0  0  0  0
    9.1874    5.6608   26.6982 H   0  0  0  0  0  0  0  0  0  0  0  0
   10.0035    6.1551   24.3749 H   0  0  0  0  0  0  0  0  0  0  0  0
    9.9419    4.4040   22.6191 H   0  0  0  0  0  0  0  0  0  0  0  0
   11.6713    2.4516   23.0402 H   0  0  0  0  0  0  0  0  0  0  0  0
   12.0336    1.6845   20.1609 H   0  0  0  0  0  0  0  0  0  0  0  0
   12.7652    3.0972   20.9750 H   0  0  0  0  0  0  0  0  0  0  0  0
   11.0497    3.0458   20.5154 H   0  0  0  0  0  0  0  0  0  0  0  0
  1  2  1  0
  2  3  1  0
  3  4  1  0
  3  5  1  0
  3  6  1  0
  2  7  1  0
  7  8  1  0
  8  9  2  0
  9 10  1  0
 10 11  1  0
 11 12  2  0
 12 13  1  0
 13 14  2  0
 14 15  1  0
 15 16  2  0
 16 17  1  0
 14 18  1  0
 13 19  1  0
 12 20  1  0
 10 21  1  0
 10 22  1  0
  9 23  1  0
 23 24  2  0
 24 25  1  0
 25 26  2  0
 26 27  1  0
 27 28  2  0
 28 29  1  0
 29 30  2  0
 30 31  1  0
 31 32  2  0
 32 33  1  0
 33 34  1  0
 32 35  1  0
 31 36  1  0
 28 37  1  0
 27 38  1  0
 26 39  1  0
  2 40  1  0
  1 41  1  0
  1 42  1  0
  1 43  1  0
 24  7  1  0
 30 25  1  0
 16 11  1  0
 33 29  1  0
M  END
>  <cnnaffinity>  (1) 
-5.78665

>  <filename>  (1) 
CC(C)n1nc(Cc2cccnc2)nc1-c1cccc2[nH]ccc12

$$$$
