
     RDKit          3D

 41 43  0  0  0  0  0  0  0  0999 V2000
    9.3853    0.8499   21.1263 C   0  0  0  0  0  0  0  0  0  0  0  0
    8.2570    0.2417   21.9386 C   0  0  0  0  0  0  0  0  0  0  0  0
    7.3178   -0.6574   21.0893 C   0  0  0  0  0  0  0  0  0  0  0  0
    6.6050    0.0144   19.9375 C   0  0  0  0  0  0  0  0  0  0  0  0
    5.3844    0.6777   20.1342 C   0  0  0  0  0  0  0  0  0  0  0  0
    4.7883    1.3343   19.0540 C   0  0  0  0  0  0  0  0  0  0  0  0
    5.4223    1.2999   17.8069 C   0  0  0  0  0  0  0  0  0  0  0  0
    6.5743    0.6495   17.5833 N   0  0  0  0  0  0  0  0  0  0  0  0
    7.1326    0.0263   18.6311 C   0  0  0  0  0  0  0  0  0  0  0  0
    8.0622   -0.5047   18.4240 H   0  0  0  0  0  0  0  0  0  0  0  0
    4.9725    1.7983   16.9479 H   0  0  0  0  0  0  0  0  0  0  0  0
    3.8447    1.8589   19.1629 H   0  0  0  0  0  0  0  0  0  0  0  0
    4.9120    0.6660   21.1214 H   0  0  0  0  0  0  0  0  0  0  0  0
    7.9283   -1.4817   20.7047 H   0  0  0  0  0  0  0  0  0  0  0  0
    6.5728   -1.0955   21.7638 H   0  0  0  0  0  0  0  0  0  0  0  0
    7.5576    1.3199   22.6417 N   0  0  0  0  0  0  0  0  0  0  0  0
    6.6065    1.0129   23.5835 C   0  0  0  0  0  0  0  0  0  0  0  0
    6.4576   -0.0763   24.0839 O   0  0  0  0  0  0  0  0  0  0  0  0
    5.8278    2.1157   23.8558 N   0  0  0  0  0  0  0  0  0  0  0  0
    5.1128    2.2207   25.0336 C   0  0  0  0  0  0  0  0  0  0  0  0
    5.5998    1.5764   26.0623 N   0  0  0  0  0  0  0  0  0  0  0  0
    4.8786    1.5416   27.2086 C   0  0  0  0  0  0  0  0  0  0  0  0
    3.6907    2.1950   27.3724 C   0  0  0  0  0  0  0  0  0  0  0  0
    3.1785    2.9685   26.2910 C   0  0  0  0  0  0  0  0  0  0  0  0
    1.9733    3.7043   26.4153 C   0  0  0  0  0  0  0  0  0  0  0  0
    1.4944    4.4380   25.3589 C   0  0  0  0  0  0  0  0  0  0  0  0
    2.1974    4.4637   24.1257 C   0  0  0  0  0  0  0  0  0  0  0  0
    3.3746    3.7611   23.9657 C   0  0  0  0  0  0  0  0  0  0  0  0
    3.9001    3.0027   25.0573 C   0  0  0  0  0  0  0  0  0  0  0  0
    3.8925    3.7813   23.0073 H   0  0  0  0  0  0  0  0  0  0  0  0
    1.8042    5.0435   23.2988 H   0  0  0  0  0  0  0  0  0  0  0  0
    0.5733    5.0034   25.4638 H   0  0  0  0  0  0  0  0  0  0  0  0
    1.4548    3.6669   27.3686 H   0  0  0  0  0  0  0  0  0  0  0  0
    3.1492    2.1409   28.3106 H   0  0  0  0  0  0  0  0  0  0  0  0
    5.2943    0.9334   28.0098 H   0  0  0  0  0  0  0  0  0  0  0  0
    6.0534    2.9549   23.3647 H   0  0  0  0  0  0  0  0  0  0  0  0
    7.2559    2.0760   22.0506 H   0  0  0  0  0  0  0  0  0  0  0  0
    8.6932   -0.4133   22.7019 H   0  0  0  0  0  0  0  0  0  0  0  0
    9.9922    0.0596   20.6708 H   0  0  0  0  0  0  0  0  0  0  0  0
   10.0361    1.4563   21.7655 H   0  0  0  0  0  0  0  0  0  0  0  0
    8.9687    1.4690   20.3266 H   0  0  0  0  0  0  0  0  0  0  0  0
  1  2  1  0
  2  3  1  0
  3  4  1  0
  4  5  2  0
  5  6  1  0
  6  7  2  0
  7  8  1  0
  8  9  2  0
  9 10  1  0
  7 11  1  0
  6 12  1  0
  5 13  1  0
  3 14  1  0
  3 15  1  0
  2 16  1  0
 16 17  1  0
 17 18  2  0
 17 19  1  0
 19 20  1  0
 20 21  2  0
 21 22  1  0
 22 23  2  0
 23 24  1  0
 24 25  2  0
 25 26  1  0
 26 27  2  0
 27 28  1  0
 28 29  2  0
 28 30  1  0
 27 31  1  0
 26 32  1  0
 25 33  1  0
 23 34  1  0
 22 35  1  0
 19 36  1  0
 16 37  1  0
  2 38  1  0
  1 39  1  0
  1 40  1  0
  1 41  1  0
  9  4  1  0
 29 20  1  0
 29 24  1  0
M  END
>  <cnnaffinity>  (1) 
-5.04917

>  <filename>  (1) 
CC(Cc1cccnc1)NC(=O)Nc1nccc2ccccc12

$$$$
