
     RDKit          3D

 35 36  0  0  0  0  0  0  0  0999 V2000
    8.7414   -0.0129   21.3646 C   0  0  0  0  0  0  0  0  0  0  0  0
    7.3294   -0.5816   21.1473 C   0  0  0  0  0  0  0  0  0  0  0  0
    7.4555   -2.0880   20.8727 C   0  0  0  0  0  0  0  0  0  0  0  0
    7.9295   -2.9666   21.9996 C   0  0  0  0  0  0  0  0  0  0  0  0
    9.0880   -3.3220   22.1010 O   0  0  0  0  0  0  0  0  0  0  0  0
    6.9712   -3.4393   22.8618 N   0  0  0  0  0  0  0  0  0  0  0  0
    7.2809   -4.2940   23.9211 C   0  0  0  0  0  0  0  0  0  0  0  0
    8.2159   -5.3792   23.8807 C   0  0  0  0  0  0  0  0  0  0  0  0
    8.4264   -6.1626   24.9429 N   0  0  0  0  0  0  0  0  0  0  0  0
    7.7246   -5.8669   26.0506 C   0  0  0  0  0  0  0  0  0  0  0  0
    6.8162   -4.7999   26.0927 C   0  0  0  0  0  0  0  0  0  0  0  0
    6.1341   -4.6370   27.4415 C   0  0  0  0  0  0  0  0  0  0  0  0
    5.3443   -5.7046   27.6844 F   0  0  0  0  0  0  0  0  0  0  0  0
    5.3975   -3.5359   27.5752 F   0  0  0  0  0  0  0  0  0  0  0  0
    7.0637   -4.6404   28.4252 F   0  0  0  0  0  0  0  0  0  0  0  0
    6.5645   -4.0189   25.0050 N   0  0  0  0  0  0  0  0  0  0  0  0
    7.8746   -6.4928   26.9200 H   0  0  0  0  0  0  0  0  0  0  0  0
    8.7719   -5.5706   22.9733 H   0  0  0  0  0  0  0  0  0  0  0  0
    6.2189   -2.8252   23.1382 H   0  0  0  0  0  0  0  0  0  0  0  0
    6.5306   -2.5156   20.4683 H   0  0  0  0  0  0  0  0  0  0  0  0
    8.2521   -2.1512   20.1445 H   0  0  0  0  0  0  0  0  0  0  0  0
    6.6152    0.0700   19.9739 C   0  0  0  0  0  0  0  0  0  0  0  0
    5.3780    0.7047   20.1506 C   0  0  0  0  0  0  0  0  0  0  0  0
    4.7663    1.3317   19.0663 C   0  0  0  0  0  0  0  0  0  0  0  0
    5.4015    1.2883   17.8233 C   0  0  0  0  0  0  0  0  0  0  0  0
    6.5605    0.6504   17.6105 N   0  0  0  0  0  0  0  0  0  0  0  0
    7.1418    0.0585   18.6664 C   0  0  0  0  0  0  0  0  0  0  0  0
    8.0839   -0.4483   18.4477 H   0  0  0  0  0  0  0  0  0  0  0  0
    4.9648    1.7883   16.9618 H   0  0  0  0  0  0  0  0  0  0  0  0
    3.8302    1.8674   19.1787 H   0  0  0  0  0  0  0  0  0  0  0  0
    4.9132    0.7118   21.1384 H   0  0  0  0  0  0  0  0  0  0  0  0
    6.7247   -0.4093   22.0482 H   0  0  0  0  0  0  0  0  0  0  0  0
    8.7375    1.0686   21.5248 H   0  0  0  0  0  0  0  0  0  0  0  0
    9.2336   -0.4865   22.2222 H   0  0  0  0  0  0  0  0  0  0  0  0
    9.3510   -0.2251   20.4754 H   0  0  0  0  0  0  0  0  0  0  0  0
  1  2  1  0
  2  3  1  0
  3  4  1  0
  4  5  2  0
  4  6  1  0
  6  7  1  0
  7  8  2  0
  8  9  1  0
  9 10  2  0
 10 11  1  0
 11 12  1  0
 12 13  1  0
 12 14  1  0
 12 15  1  0
 11 16  2  0
 10 17  1  0
  8 18  1  0
  6 19  1  0
  3 20  1  0
  3 21  1  0
  2 22  1  0
 22 23  2  0
 23 24  1  0
 24 25  2  0
 25 26  1  0
 26 27  2  0
 27 28  1  0
 25 29  1  0
 24 30  1  0
 23 31  1  0
  2 32  1  0
  1 33  1  0
  1 34  1  0
  1 35  1  0
 16  7  1  0
 27 22  1  0
M  END
>  <cnnaffinity>  (1) 
-5.50815

>  <filename>  (1) 
CC(CC(=O)Nc1cncc(C(F)(F)F)n1)c1cccnc1

$$$$
