
     RDKit          3D

 45 46  0  0  0  0  0  0  0  0999 V2000
    8.5707   -1.3875   20.8806 C   0  0  0  0  0  0  0  0  0  0  0  0
    7.3765   -0.4631   21.2369 C   0  0  0  0  0  0  0  0  0  0  0  0
    7.9072    0.7089   22.1021 C   0  0  0  0  0  0  0  0  0  0  0  0
    8.6259    1.2919   21.5109 H   0  0  0  0  0  0  0  0  0  0  0  0
    7.1028    1.3839   22.4258 H   0  0  0  0  0  0  0  0  0  0  0  0
    8.4450    0.3365   22.9827 H   0  0  0  0  0  0  0  0  0  0  0  0
    6.3709   -1.4167   21.9693 C   0  0  0  0  0  0  0  0  0  0  0  0
    5.6045   -2.1442   21.3533 O   0  0  0  0  0  0  0  0  0  0  0  0
    6.4990   -1.4911   23.3413 N   0  0  0  0  0  0  0  0  0  0  0  0
    5.8593   -2.4838   24.1057 N   0  0  0  0  0  0  0  0  0  0  0  0
    6.3254   -3.8204   24.0098 C   0  0  0  0  0  0  0  0  0  0  0  0
    7.4137   -4.1738   23.6264 O   0  0  0  0  0  0  0  0  0  0  0  0
    5.3142   -4.6724   24.4156 N   0  0  0  0  0  0  0  0  0  0  0  0
    5.6440   -6.0772   24.6216 C   0  0  0  0  0  0  0  0  0  0  0  0
    4.5251   -6.7322   25.4242 C   0  0  0  0  0  0  0  0  0  0  0  0
    3.2146   -6.8849   24.6924 C   0  0  0  0  0  0  0  0  0  0  0  0
    2.0299   -6.2559   25.1156 C   0  0  0  0  0  0  0  0  0  0  0  0
    0.8427   -6.4824   24.4130 C   0  0  0  0  0  0  0  0  0  0  0  0
    0.8878   -7.3417   23.3125 C   0  0  0  0  0  0  0  0  0  0  0  0
    2.1076   -7.9413   22.9836 C   0  0  0  0  0  0  0  0  0  0  0  0
    3.2453   -7.7282   23.6500 N   0  0  0  0  0  0  0  0  0  0  0  0
    2.1731   -8.6280   22.1428 H   0  0  0  0  0  0  0  0  0  0  0  0
    0.0075   -7.5632   22.7205 H   0  0  0  0  0  0  0  0  0  0  0  0
   -0.0907   -5.9967   24.7072 H   0  0  0  0  0  0  0  0  0  0  0  0
    2.0509   -5.6158   25.9922 H   0  0  0  0  0  0  0  0  0  0  0  0
    4.8552   -7.7345   25.6809 H   0  0  0  0  0  0  0  0  0  0  0  0
    4.3820   -6.2050   26.3757 H   0  0  0  0  0  0  0  0  0  0  0  0
    6.6001   -6.1777   25.1599 H   0  0  0  0  0  0  0  0  0  0  0  0
    5.7925   -6.5831   23.6564 H   0  0  0  0  0  0  0  0  0  0  0  0
    4.8118   -4.2422   25.1757 H   0  0  0  0  0  0  0  0  0  0  0  0
    4.8665   -2.5182   23.8908 H   0  0  0  0  0  0  0  0  0  0  0  0
    6.9032   -0.7387   23.8743 H   0  0  0  0  0  0  0  0  0  0  0  0
    6.6725    0.1334   19.9947 C   0  0  0  0  0  0  0  0  0  0  0  0
    5.4245    0.7616   20.1470 C   0  0  0  0  0  0  0  0  0  0  0  0
    4.8226    1.3669   19.0404 C   0  0  0  0  0  0  0  0  0  0  0  0
    5.4775    1.3156   17.8046 C   0  0  0  0  0  0  0  0  0  0  0  0
    6.6490    0.6941   17.6236 N   0  0  0  0  0  0  0  0  0  0  0  0
    7.2190    0.1218   18.6971 C   0  0  0  0  0  0  0  0  0  0  0  0
    8.1631   -0.3850   18.5004 H   0  0  0  0  0  0  0  0  0  0  0  0
    5.0366    1.7817   16.9227 H   0  0  0  0  0  0  0  0  0  0  0  0
    3.8708    1.8791   19.1181 H   0  0  0  0  0  0  0  0  0  0  0  0
    4.9241    0.7660   21.1191 H   0  0  0  0  0  0  0  0  0  0  0  0
    9.3203   -0.8854   20.2555 H   0  0  0  0  0  0  0  0  0  0  0  0
    8.2054   -2.2794   20.3687 H   0  0  0  0  0  0  0  0  0  0  0  0
    9.0581   -1.7244   21.8038 H   0  0  0  0  0  0  0  0  0  0  0  0
  1  2  1  0
  2  3  1  0
  3  4  1  0
  3  5  1  0
  3  6  1  0
  2  7  1  0
  7  8  2  0
  7  9  1  0
  9 10  1  0
 10 11  1  0
 11 12  2  0
 11 13  1  0
 13 14  1  0
 14 15  1  0
 15 16  1  0
 16 17  2  0
 17 18  1  0
 18 19  2  0
 19 20  1  0
 20 21  2  0
 20 22  1  0
 19 23  1  0
 18 24  1  0
 17 25  1  0
 15 26  1  0
 15 27  1  0
 14 28  1  0
 14 29  1  0
 13 30  1  0
 10 31  1  0
  9 32  1  0
  2 33  1  0
 33 34  2  0
 34 35  1  0
 35 36  2  0
 36 37  1  0
 37 38  2  0
 38 39  1  0
 36 40  1  0
 35 41  1  0
 34 42  1  0
  1 43  1  0
  1 44  1  0
  1 45  1  0
 21 16  1  0
 38 33  1  0
M  END
>  <cnnaffinity>  (1) 
-5.38498

>  <filename>  (1) 
CC(C)(C(=O)NNC(=O)NCCc1ccccn1)c1cccnc1

$$$$
