
     RDKit          3D

 33 34  0  0  0  0  0  0  0  0999 V2000
   10.4565    5.5107   25.2455 H   0  0  0  0  0  0  0  0  0  0  0  0
    9.8990    5.2628   24.3408 C   0  0  0  0  0  0  0  0  0  0  0  0
    9.4224    4.0134   24.2678 N   0  0  0  0  0  0  0  0  0  0  0  0
    8.6899    3.7062   23.1829 C   0  0  0  0  0  0  0  0  0  0  0  0
    8.2777    2.3468   22.9753 C   0  0  0  0  0  0  0  0  0  0  0  0
    7.9129    1.2631   22.5761 C   0  0  0  0  0  0  0  0  0  0  0  0
    7.3148    0.1068   22.3194 N   0  0  0  0  0  0  0  0  0  0  0  0
    6.7359   -0.3207   23.0325 H   0  0  0  0  0  0  0  0  0  0  0  0
    7.4024   -0.6419   21.0613 C   0  0  0  0  0  0  0  0  0  0  0  0
    6.6954    0.0979   19.9183 C   0  0  0  0  0  0  0  0  0  0  0  0
    7.1898    0.0872   18.6073 C   0  0  0  0  0  0  0  0  0  0  0  0
    8.1228   -0.4203   18.3757 H   0  0  0  0  0  0  0  0  0  0  0  0
    6.5877    0.6605   17.5541 N   0  0  0  0  0  0  0  0  0  0  0  0
    5.4256    1.2840   17.7786 C   0  0  0  0  0  0  0  0  0  0  0  0
    4.9537    1.7580   16.9188 H   0  0  0  0  0  0  0  0  0  0  0  0
    4.8174    1.3334   19.0373 C   0  0  0  0  0  0  0  0  0  0  0  0
    3.8700    1.8444   19.1577 H   0  0  0  0  0  0  0  0  0  0  0  0
    5.4578    0.7315   20.1201 C   0  0  0  0  0  0  0  0  0  0  0  0
    5.0083    0.7553   21.1145 H   0  0  0  0  0  0  0  0  0  0  0  0
    6.6620   -1.9575   21.3291 C   0  0  0  0  0  0  0  0  0  0  0  0
    5.6168   -1.7543   21.5851 H   0  0  0  0  0  0  0  0  0  0  0  0
    6.6688   -2.6022   20.4459 H   0  0  0  0  0  0  0  0  0  0  0  0
    7.1413   -2.4865   22.1594 H   0  0  0  0  0  0  0  0  0  0  0  0
    8.8864   -0.9186   20.7699 C   0  0  0  0  0  0  0  0  0  0  0  0
    9.0123   -1.5852   19.9123 H   0  0  0  0  0  0  0  0  0  0  0  0
    9.3462   -1.4037   21.6363 H   0  0  0  0  0  0  0  0  0  0  0  0
    9.4187    0.0172   20.5769 H   0  0  0  0  0  0  0  0  0  0  0  0
    8.3398    4.6566   22.2044 C   0  0  0  0  0  0  0  0  0  0  0  0
    7.6691    4.3597   21.4128 H   0  0  0  0  0  0  0  0  0  0  0  0
    8.9045    5.9284   22.2530 C   0  0  0  0  0  0  0  0  0  0  0  0
    8.7180    6.6737   21.4741 H   0  0  0  0  0  0  0  0  0  0  0  0
    9.7225    6.2332   23.3416 C   0  0  0  0  0  0  0  0  0  0  0  0
   10.1798    7.2133   23.4424 H   0  0  0  0  0  0  0  0  0  0  0  0
  1  2  1  0
  2  3  2  0
  3  4  1  0
  4  5  1  0
  5  6  3  0
  6  7  1  0
  7  8  1  0
  7  9  1  0
  9 10  1  0
 10 11  2  0
 11 12  1  0
 11 13  1  0
 13 14  2  0
 14 15  1  0
 14 16  1  0
 16 17  1  0
 16 18  2  0
 18 19  1  0
  9 20  1  0
 20 21  1  0
 20 22  1  0
 20 23  1  0
  9 24  1  0
 24 25  1  0
 24 26  1  0
 24 27  1  0
  4 28  2  0
 28 29  1  0
 28 30  1  0
 30 31  1  0
 30 32  2  0
 32 33  1  0
 32  2  1  0
 18 10  1  0
M  END
>  <cnnaffinity>  (1) 
-4.55601

>  <filename>  (1) 
CC(C)(NC#Cc1ccccn1)c1cccnc1

$$$$
