
     RDKit          3D

 38 39  0  0  0  0  0  0  0  0999 V2000
    5.0365    1.7923   16.8874 H   0  0  0  0  0  0  0  0  0  0  0  0
    5.4840    1.2883   17.7366 C   0  0  0  0  0  0  0  0  0  0  0  0
    6.6482    0.6712   17.5083 N   0  0  0  0  0  0  0  0  0  0  0  0
    7.2410    0.0665   18.5509 C   0  0  0  0  0  0  0  0  0  0  0  0
    8.1825   -0.4322   18.3206 H   0  0  0  0  0  0  0  0  0  0  0  0
    6.7186    0.0343   19.8490 C   0  0  0  0  0  0  0  0  0  0  0  0
    7.4435   -0.6487   21.0201 C   0  0  0  0  0  0  0  0  0  0  0  0
    7.4477    0.2233   22.2233 N   0  0  0  0  0  0  0  0  0  0  0  0
    6.4848    0.3346   22.5298 H   0  0  0  0  0  0  0  0  0  0  0  0
    8.0684    1.5004   22.0963 N   0  0  0  0  0  0  0  0  0  0  0  0
    7.9361    2.0628   21.2593 H   0  0  0  0  0  0  0  0  0  0  0  0
    8.5854    2.3015   23.0701 C   0  0  0  0  0  0  0  0  0  0  0  0
    8.8435    3.9161   22.7097 S   0  0  0  0  0  0  0  0  0  0  0  0
    8.9058    1.8560   24.3135 N   0  0  0  0  0  0  0  0  0  0  0  0
    9.2259    2.6445   24.8529 H   0  0  0  0  0  0  0  0  0  0  0  0
    9.0683    0.5251   24.7823 C   0  0  0  0  0  0  0  0  0  0  0  0
    9.7697   -0.3866   23.9845 C   0  0  0  0  0  0  0  0  0  0  0  0
   10.2481   -0.0045   23.0871 H   0  0  0  0  0  0  0  0  0  0  0  0
    9.8078   -1.7392   24.3314 C   0  0  0  0  0  0  0  0  0  0  0  0
   10.3072   -2.4545   23.6782 H   0  0  0  0  0  0  0  0  0  0  0  0
    9.2038   -2.1691   25.5176 C   0  0  0  0  0  0  0  0  0  0  0  0
    9.2225   -3.2192   25.7901 H   0  0  0  0  0  0  0  0  0  0  0  0
    8.5671   -1.2420   26.3491 C   0  0  0  0  0  0  0  0  0  0  0  0
    8.1152   -1.5800   27.2764 H   0  0  0  0  0  0  0  0  0  0  0  0
    8.5178    0.1130   26.0017 C   0  0  0  0  0  0  0  0  0  0  0  0
    8.0428    0.8358   26.6586 H   0  0  0  0  0  0  0  0  0  0  0  0
    6.6631   -1.8952   21.4631 C   0  0  0  0  0  0  0  0  0  0  0  0
    6.6939   -2.6796   20.7006 H   0  0  0  0  0  0  0  0  0  0  0  0
    7.0783   -2.2909   22.3979 H   0  0  0  0  0  0  0  0  0  0  0  0
    5.6084   -1.6619   21.6373 H   0  0  0  0  0  0  0  0  0  0  0  0
    8.9085   -1.0248   20.7483 C   0  0  0  0  0  0  0  0  0  0  0  0
    9.0021   -1.7422   19.9338 H   0  0  0  0  0  0  0  0  0  0  0  0
    9.5060   -0.1396   20.5084 H   0  0  0  0  0  0  0  0  0  0  0  0
    9.3385   -1.4899   21.6404 H   0  0  0  0  0  0  0  0  0  0  0  0
    5.4763    0.6716   20.0503 C   0  0  0  0  0  0  0  0  0  0  0  0
    5.0028    0.6709   21.0361 H   0  0  0  0  0  0  0  0  0  0  0  0
    4.8591    1.3171   18.9865 C   0  0  0  0  0  0  0  0  0  0  0  0
    3.9232    1.8461   19.1177 H   0  0  0  0  0  0  0  0  0  0  0  0
  1  2  1  0
  2  3  2  0
  3  4  1  0
  4  5  1  0
  4  6  2  0
  6  7  1  0
  7  8  1  0
  8  9  1  0
  8 10  1  0
 10 11  1  0
 10 12  1  0
 12 13  2  0
 12 14  1  0
 14 15  1  0
 14 16  1  0
 16 17  2  0
 17 18  1  0
 17 19  1  0
 19 20  1  0
 19 21  2  0
 21 22  1  0
 21 23  1  0
 23 24  1  0
 23 25  2  0
 25 26  1  0
  7 27  1  0
 27 28  1  0
 27 29  1  0
 27 30  1  0
  7 31  1  0
 31 32  1  0
 31 33  1  0
 31 34  1  0
  6 35  1  0
 35 36  1  0
 35 37  2  0
 37 38  1  0
 37  2  1  0
 25 16  1  0
M  END
>  <cnnaffinity>  (1) 
-5.0452

>  <filename>  (1) 
CC(C)(NNC(=S)Nc1ccccc1)c1cccnc1

$$$$
