
     RDKit          3D

 39 40  0  0  0  0  0  0  0  0999 V2000
    6.6611   -1.9875   21.4164 C   0  0  0  0  0  0  0  0  0  0  0  0
    7.4333   -0.7187   21.0087 C   0  0  0  0  0  0  0  0  0  0  0  0
    7.6804    0.2229   22.2174 C   0  0  0  0  0  0  0  0  0  0  0  0
    6.9748    0.2548   23.2124 O   0  0  0  0  0  0  0  0  0  0  0  0
    8.7563    1.0517   22.0773 N   0  0  0  0  0  0  0  0  0  0  0  0
    8.9932    2.1458   23.0107 C   0  0  0  0  0  0  0  0  0  0  0  0
    7.9562    3.2870   22.9035 C   0  0  0  0  0  0  0  0  0  0  0  0
    8.2080    4.3704   23.9286 C   0  0  0  0  0  0  0  0  0  0  0  0
    9.0488    5.4517   23.6383 C   0  0  0  0  0  0  0  0  0  0  0  0
    9.2961    6.3997   24.6366 C   0  0  0  0  0  0  0  0  0  0  0  0
    8.7799    6.3256   25.8666 N   0  0  0  0  0  0  0  0  0  0  0  0
    7.9731    5.2919   26.1583 C   0  0  0  0  0  0  0  0  0  0  0  0
    7.3375    5.1873   27.5622 C   0  0  0  0  0  0  0  0  0  0  0  0
    7.6733    6.1716   28.3991 F   0  0  0  0  0  0  0  0  0  0  0  0
    5.9903    5.1764   27.4749 F   0  0  0  0  0  0  0  0  0  0  0  0
    7.6778    4.0243   28.1534 F   0  0  0  0  0  0  0  0  0  0  0  0
    7.6735    4.2886   25.2205 C   0  0  0  0  0  0  0  0  0  0  0  0
    7.0332    3.4591   25.4965 H   0  0  0  0  0  0  0  0  0  0  0  0
    9.9349    7.2589   24.4400 H   0  0  0  0  0  0  0  0  0  0  0  0
    9.4971    5.5551   22.6545 H   0  0  0  0  0  0  0  0  0  0  0  0
    6.9557    2.8536   23.0383 H   0  0  0  0  0  0  0  0  0  0  0  0
    7.9886    3.7081   21.8902 H   0  0  0  0  0  0  0  0  0  0  0  0
    8.9571    1.7400   24.0309 H   0  0  0  0  0  0  0  0  0  0  0  0
   10.0022    2.5366   22.8337 H   0  0  0  0  0  0  0  0  0  0  0  0
    9.2470    1.0165   21.1976 H   0  0  0  0  0  0  0  0  0  0  0  0
    6.6947    0.0266   19.8836 C   0  0  0  0  0  0  0  0  0  0  0  0
    5.4710    0.6632   20.1368 C   0  0  0  0  0  0  0  0  0  0  0  0
    4.8100    1.3101   19.0875 C   0  0  0  0  0  0  0  0  0  0  0  0
    5.3873    1.2971   17.8129 C   0  0  0  0  0  0  0  0  0  0  0  0
    6.5449    0.6766   17.5398 N   0  0  0  0  0  0  0  0  0  0  0  0
    7.1689    0.0659   18.5571 C   0  0  0  0  0  0  0  0  0  0  0  0
    8.1130   -0.4154   18.3049 H   0  0  0  0  0  0  0  0  0  0  0  0
    4.9096    1.8101   16.9780 H   0  0  0  0  0  0  0  0  0  0  0  0
    3.8743    1.8342   19.2417 H   0  0  0  0  0  0  0  0  0  0  0  0
    5.0554    0.6473   21.1475 H   0  0  0  0  0  0  0  0  0  0  0  0
    8.4235   -1.0112   20.6276 H   0  0  0  0  0  0  0  0  0  0  0  0
    6.5064   -2.6390   20.5509 H   0  0  0  0  0  0  0  0  0  0  0  0
    5.6768   -1.7130   21.8038 H   0  0  0  0  0  0  0  0  0  0  0  0
    7.1732   -2.5572   22.1981 H   0  0  0  0  0  0  0  0  0  0  0  0
  1  2  1  0
  2  3  1  0
  3  4  2  0
  3  5  1  0
  5  6  1  0
  6  7  1  0
  7  8  1  0
  8  9  2  0
  9 10  1  0
 10 11  2  0
 11 12  1  0
 12 13  1  0
 13 14  1  0
 13 15  1  0
 13 16  1  0
 12 17  2  0
 17 18  1  0
 10 19  1  0
  9 20  1  0
  7 21  1  0
  7 22  1  0
  6 23  1  0
  6 24  1  0
  5 25  1  0
  2 26  1  0
 26 27  2  0
 27 28  1  0
 28 29  2  0
 29 30  1  0
 30 31  2  0
 31 32  1  0
 29 33  1  0
 28 34  1  0
 27 35  1  0
  2 36  1  0
  1 37  1  0
  1 38  1  0
  1 39  1  0
 17  8  1  0
 31 26  1  0
M  END
>  <cnnaffinity>  (1) 
-4.89281

>  <filename>  (1) 
CC(C(=O)NCCc1ccnc(C(F)(F)F)c1)c1cccnc1

$$$$
