
     RDKit          3D

 39 41  0  0  0  0  0  0  0  0999 V2000
    6.5559   -4.8710   26.8648 C   0  0  0  0  0  0  0  0  0  0  0  0
    5.7911   -4.1053   25.7657 C   0  0  0  0  0  0  0  0  0  0  0  0
    6.6981   -3.7620   24.5781 C   0  0  0  0  0  0  0  0  0  0  0  0
    7.6135   -4.4758   24.2186 O   0  0  0  0  0  0  0  0  0  0  0  0
    6.4223   -2.5655   23.9592 N   0  0  0  0  0  0  0  0  0  0  0  0
    7.2552   -2.0266   22.9940 C   0  0  0  0  0  0  0  0  0  0  0  0
    8.6497   -2.1009   23.0896 C   0  0  0  0  0  0  0  0  0  0  0  0
    9.3921   -1.4462   22.1164 C   0  0  0  0  0  0  0  0  0  0  0  0
    8.7157   -0.7928   21.0874 C   0  0  0  0  0  0  0  0  0  0  0  0
    7.3089   -0.7853   21.0870 C   0  0  0  0  0  0  0  0  0  0  0  0
    6.5719   -0.0721   20.0190 C   0  0  0  0  0  0  0  0  0  0  0  0
    5.3600    0.6092   20.2149 C   0  0  0  0  0  0  0  0  0  0  0  0
    4.8026    1.2864   19.1311 C   0  0  0  0  0  0  0  0  0  0  0  0
    5.4510    1.2509   17.8929 C   0  0  0  0  0  0  0  0  0  0  0  0
    6.5990    0.5883   17.6880 N   0  0  0  0  0  0  0  0  0  0  0  0
    7.1338   -0.0415   18.7345 C   0  0  0  0  0  0  0  0  0  0  0  0
    8.0711   -0.5605   18.5334 H   0  0  0  0  0  0  0  0  0  0  0  0
    5.0364    1.7759   17.0341 H   0  0  0  0  0  0  0  0  0  0  0  0
    3.8846    1.8517   19.2322 H   0  0  0  0  0  0  0  0  0  0  0  0
    4.8833    0.6167   21.1961 H   0  0  0  0  0  0  0  0  0  0  0  0
    6.5876   -1.3839   22.0457 N   0  0  0  0  0  0  0  0  0  0  0  0
    9.2684   -0.2579   20.3286 H   0  0  0  0  0  0  0  0  0  0  0  0
   10.4817   -1.4601   22.1595 H   0  0  0  0  0  0  0  0  0  0  0  0
    9.1010   -2.6468   23.9026 H   0  0  0  0  0  0  0  0  0  0  0  0
    5.4669   -2.2925   23.7640 H   0  0  0  0  0  0  0  0  0  0  0  0
    4.6023   -4.8999   25.2694 C   0  0  0  0  0  0  0  0  0  0  0  0
    4.7850   -6.1097   24.5973 C   0  0  0  0  0  0  0  0  0  0  0  0
    3.6708   -6.8606   24.2269 C   0  0  0  0  0  0  0  0  0  0  0  0
    2.4059   -6.4807   24.4599 N   0  0  0  0  0  0  0  0  0  0  0  0
    2.2386   -5.3188   25.1019 C   0  0  0  0  0  0  0  0  0  0  0  0
    3.2907   -4.5059   25.5274 C   0  0  0  0  0  0  0  0  0  0  0  0
    3.0868   -3.5926   26.0702 H   0  0  0  0  0  0  0  0  0  0  0  0
    1.2109   -5.0160   25.2948 H   0  0  0  0  0  0  0  0  0  0  0  0
    3.7975   -7.8175   23.7235 H   0  0  0  0  0  0  0  0  0  0  0  0
    5.7792   -6.4683   24.3645 H   0  0  0  0  0  0  0  0  0  0  0  0
    5.4398   -3.1463   26.1654 H   0  0  0  0  0  0  0  0  0  0  0  0
    5.8869   -5.1198   27.6921 H   0  0  0  0  0  0  0  0  0  0  0  0
    7.3895   -4.2829   27.2534 H   0  0  0  0  0  0  0  0  0  0  0  0
    6.9716   -5.8039   26.4693 H   0  0  0  0  0  0  0  0  0  0  0  0
  1  2  1  0
  2  3  1  0
  3  4  2  0
  3  5  1  0
  5  6  1  0
  6  7  2  0
  7  8  1  0
  8  9  2  0
  9 10  1  0
 10 11  1  0
 11 12  2  0
 12 13  1  0
 13 14  2  0
 14 15  1  0
 15 16  2  0
 16 17  1  0
 14 18  1  0
 13 19  1  0
 12 20  1  0
 10 21  2  0
  9 22  1  0
  8 23  1  0
  7 24  1  0
  5 25  1  0
  2 26  1  0
 26 27  2  0
 27 28  1  0
 28 29  2  0
 29 30  1  0
 30 31  2  0
 31 32  1  0
 30 33  1  0
 28 34  1  0
 27 35  1  0
  2 36  1  0
  1 37  1  0
  1 38  1  0
  1 39  1  0
 21  6  1  0
 31 26  1  0
 16 11  1  0
M  END
>  <cnnaffinity>  (1) 
-5.40608

>  <filename>  (1) 
CC(C(=O)Nc1cccc(-c2cccnc2)n1)c1ccncc1

$$$$
