
     RDKit          3D

 42 45  0  0  0  0  0  0  0  0999 V2000
    8.4763   -4.2796   23.3092 C   0  0  0  0  0  0  0  0  0  0  0  0
    9.1255   -3.3547   22.2657 C   0  0  0  0  0  0  0  0  0  0  0  0
   10.5435   -2.8832   22.6793 C   0  0  0  0  0  0  0  0  0  0  0  0
   10.4295   -2.1248   23.4651 H   0  0  0  0  0  0  0  0  0  0  0  0
   11.1552   -3.6852   23.0902 H   0  0  0  0  0  0  0  0  0  0  0  0
   11.0812   -2.4287   21.8364 H   0  0  0  0  0  0  0  0  0  0  0  0
    8.3289   -2.1368   21.9670 C   0  0  0  0  0  0  0  0  0  0  0  0
    7.9443   -1.8064   20.7543 N   0  0  0  0  0  0  0  0  0  0  0  0
    7.3522   -0.6010   20.9459 N   0  0  0  0  0  0  0  0  0  0  0  0
    6.6364    0.0268   19.8979 C   0  0  0  0  0  0  0  0  0  0  0  0
    5.4174    0.6665   20.1468 C   0  0  0  0  0  0  0  0  0  0  0  0
    4.7922    1.3070   19.0764 C   0  0  0  0  0  0  0  0  0  0  0  0
    5.4038    1.2850   17.8192 C   0  0  0  0  0  0  0  0  0  0  0  0
    6.5590    0.6410   17.5736 N   0  0  0  0  0  0  0  0  0  0  0  0
    7.1559    0.0168   18.5913 C   0  0  0  0  0  0  0  0  0  0  0  0
    8.0944   -0.4936   18.3789 H   0  0  0  0  0  0  0  0  0  0  0  0
    4.9555    1.8087   16.9781 H   0  0  0  0  0  0  0  0  0  0  0  0
    3.8604    1.8429   19.2163 H   0  0  0  0  0  0  0  0  0  0  0  0
    5.0063    0.6812   21.1588 H   0  0  0  0  0  0  0  0  0  0  0  0
    7.4784   -0.2572   22.2627 C   0  0  0  0  0  0  0  0  0  0  0  0
    7.1316    1.0450   22.8258 C   0  0  0  0  0  0  0  0  0  0  0  0
    7.5724    2.2037   22.2002 C   0  0  0  0  0  0  0  0  0  0  0  0
    7.2898    3.4764   22.7375 C   0  0  0  0  0  0  0  0  0  0  0  0
    6.5663    3.5865   23.9046 C   0  0  0  0  0  0  0  0  0  0  0  0
    6.0958    2.4182   24.5746 C   0  0  0  0  0  0  0  0  0  0  0  0
    5.3554    2.4629   25.7741 C   0  0  0  0  0  0  0  0  0  0  0  0
    4.9252    1.2909   26.3480 C   0  0  0  0  0  0  0  0  0  0  0  0
    4.2177    1.3227   27.4880 O   0  0  0  0  0  0  0  0  0  0  0  0
    4.1650    2.2566   27.7124 H   0  0  0  0  0  0  0  0  0  0  0  0
    5.1386    0.0638   25.8737 N   0  0  0  0  0  0  0  0  0  0  0  0
    5.8453   -0.0113   24.7578 C   0  0  0  0  0  0  0  0  0  0  0  0
    6.3700    1.1165   24.0376 C   0  0  0  0  0  0  0  0  0  0  0  0
    6.0444   -1.0101   24.3688 H   0  0  0  0  0  0  0  0  0  0  0  0
    5.1201    3.4036   26.2561 H   0  0  0  0  0  0  0  0  0  0  0  0
    6.3413    4.5629   24.3286 H   0  0  0  0  0  0  0  0  0  0  0  0
    7.6513    4.3562   22.2087 H   0  0  0  0  0  0  0  0  0  0  0  0
    8.1471    2.1267   21.2825 H   0  0  0  0  0  0  0  0  0  0  0  0
    8.0716   -1.2286   22.9287 N   0  0  0  0  0  0  0  0  0  0  0  0
    9.0777   -3.8465   21.2975 H   0  0  0  0  0  0  0  0  0  0  0  0
    7.4501   -4.5468   23.0268 H   0  0  0  0  0  0  0  0  0  0  0  0
    9.0487   -5.2114   23.3947 H   0  0  0  0  0  0  0  0  0  0  0  0
    8.4448   -3.8083   24.2985 H   0  0  0  0  0  0  0  0  0  0  0  0
  1  2  1  0
  2  3  1  0
  3  4  1  0
  3  5  1  0
  3  6  1  0
  2  7  1  0
  7  8  2  0
  8  9  1  0
  9 10  1  0
 10 11  2  0
 11 12  1  0
 12 13  2  0
 13 14  1  0
 14 15  2  0
 15 16  1  0
 13 17  1  0
 12 18  1  0
 11 19  1  0
  9 20  1  0
 20 21  1  0
 21 22  2  0
 22 23  1  0
 23 24  2  0
 24 25  1  0
 25 26  2  0
 26 27  1  0
 27 28  1  0
 28 29  1  0
 27 30  2  0
 30 31  1  0
 31 32  2  0
 31 33  1  0
 26 34  1  0
 24 35  1  0
 23 36  1  0
 22 37  1  0
 20 38  2  0
  2 39  1  0
  1 40  1  0
  1 41  1  0
  1 42  1  0
 38  7  1  0
 15 10  1  0
 32 21  1  0
 32 25  1  0
M  END
>  <cnnaffinity>  (1) 
-5.75811

>  <filename>  (1) 
CC(C)c1nc(-c2cccc3cc(O)ncc23)n(-c2cccnc2)n1

$$$$
