
     RDKit          3D

 36 38  0  0  0  0  0  0  0  0999 V2000
    7.3316   -1.9865   21.0962 C   0  0  0  0  0  0  0  0  0  0  0  0
    7.3121   -0.4492   21.2092 C   0  0  0  0  0  0  0  0  0  0  0  0
    8.7617    0.0493   21.3778 C   0  0  0  0  0  0  0  0  0  0  0  0
    9.7188   -0.4611   20.8291 O   0  0  0  0  0  0  0  0  0  0  0  0
    8.9394    1.1258   22.1967 N   0  0  0  0  0  0  0  0  0  0  0  0
   10.1544    1.7150   22.4837 C   0  0  0  0  0  0  0  0  0  0  0  0
   10.1184    2.8346   23.1113 N   0  0  0  0  0  0  0  0  0  0  0  0
   11.4050    3.3093   23.2632 C   0  0  0  0  0  0  0  0  0  0  0  0
   11.7207    4.5607   23.8056 C   0  0  0  0  0  0  0  0  0  0  0  0
   10.5601    5.3386   24.3433 C   0  0  0  0  0  0  0  0  0  0  0  0
    9.7717    4.6090   25.1512 F   0  0  0  0  0  0  0  0  0  0  0  0
    9.7790    5.8248   23.3590 F   0  0  0  0  0  0  0  0  0  0  0  0
   10.9832    6.3953   25.0735 F   0  0  0  0  0  0  0  0  0  0  0  0
   13.0418    5.0160   23.7569 C   0  0  0  0  0  0  0  0  0  0  0  0
   14.0485    4.1806   23.2562 C   0  0  0  0  0  0  0  0  0  0  0  0
   13.7609    2.8917   22.8027 C   0  0  0  0  0  0  0  0  0  0  0  0
   12.4299    2.4766   22.7717 C   0  0  0  0  0  0  0  0  0  0  0  0
   11.7210    1.0396   22.0755 S   0  0  0  0  0  0  0  0  0  0  0  0
   14.5603    2.2295   22.4842 H   0  0  0  0  0  0  0  0  0  0  0  0
   15.0777    4.5219   23.2638 H   0  0  0  0  0  0  0  0  0  0  0  0
   13.3207    6.0082   24.1091 H   0  0  0  0  0  0  0  0  0  0  0  0
    8.1737    1.7246   22.4503 H   0  0  0  0  0  0  0  0  0  0  0  0
    6.6070    0.2156   20.0198 C   0  0  0  0  0  0  0  0  0  0  0  0
    5.3650    0.8496   20.1689 C   0  0  0  0  0  0  0  0  0  0  0  0
    4.7392    1.3993   19.0449 C   0  0  0  0  0  0  0  0  0  0  0  0
    5.3829    1.3002   17.8079 C   0  0  0  0  0  0  0  0  0  0  0  0
    6.5578    0.6782   17.6305 N   0  0  0  0  0  0  0  0  0  0  0  0
    7.1372    0.1481   18.7160 C   0  0  0  0  0  0  0  0  0  0  0  0
    8.0884   -0.3603   18.5565 H   0  0  0  0  0  0  0  0  0  0  0  0
    4.9407    1.7330   16.9139 H   0  0  0  0  0  0  0  0  0  0  0  0
    3.7802    1.9047   19.1109 H   0  0  0  0  0  0  0  0  0  0  0  0
    4.8907    0.8994   21.1502 H   0  0  0  0  0  0  0  0  0  0  0  0
    6.7771   -0.1754   22.1278 H   0  0  0  0  0  0  0  0  0  0  0  0
    6.3536   -2.3804   20.8116 H   0  0  0  0  0  0  0  0  0  0  0  0
    7.6287   -2.4449   22.0472 H   0  0  0  0  0  0  0  0  0  0  0  0
    8.0718   -2.2639   20.3434 H   0  0  0  0  0  0  0  0  0  0  0  0
  1  2  1  0
  2  3  1  0
  3  4  2  0
  3  5  1  0
  5  6  1  0
  6  7  2  0
  7  8  1  0
  8  9  2  0
  9 10  1  0
 10 11  1  0
 10 12  1  0
 10 13  1  0
  9 14  1  0
 14 15  2  0
 15 16  1  0
 16 17  2  0
 17 18  1  0
 16 19  1  0
 15 20  1  0
 14 21  1  0
  5 22  1  0
  2 23  1  0
 23 24  2  0
 24 25  1  0
 25 26  2  0
 26 27  1  0
 27 28  2  0
 28 29  1  0
 26 30  1  0
 25 31  1  0
 24 32  1  0
  2 33  1  0
  1 34  1  0
  1 35  1  0
  1 36  1  0
 18  6  1  0
 28 23  1  0
 17  8  1  0
M  END
>  <cnnaffinity>  (1) 
-5.80828

>  <filename>  (1) 
CC(C(=O)Nc1nc2c(C(F)(F)F)cccc2s1)c1cccnc1

$$$$
