
     RDKit          3D

 46 50  0  0  0  0  0  0  0  0999 V2000
    8.0443    2.1936   25.4440 C   0  0  0  0  0  0  0  0  0  0  0  0
    8.3335    2.6522   24.0136 C   0  0  0  0  0  0  0  0  0  0  0  0
    7.3972    3.7757   23.5773 C   0  0  0  0  0  0  0  0  0  0  0  0
    7.6631    5.2182   23.9058 C   0  0  0  0  0  0  0  0  0  0  0  0
    7.8088    4.7291   22.4902 C   0  0  0  0  0  0  0  0  0  0  0  0
    8.8241    4.6266   22.1030 H   0  0  0  0  0  0  0  0  0  0  0  0
    7.0730    5.0208   21.7424 H   0  0  0  0  0  0  0  0  0  0  0  0
    8.5689    5.5054   24.4378 H   0  0  0  0  0  0  0  0  0  0  0  0
    6.8056    5.8457   24.1381 H   0  0  0  0  0  0  0  0  0  0  0  0
    6.3458    3.4918   23.6011 H   0  0  0  0  0  0  0  0  0  0  0  0
    8.3017    1.5177   23.0540 N   0  0  0  0  0  0  0  0  0  0  0  0
    7.1530    0.8586   22.7447 N   0  0  0  0  0  0  0  0  0  0  0  0
    7.5283    0.0284   21.7895 C   0  0  0  0  0  0  0  0  0  0  0  0
    6.5864   -0.8328   20.9976 C   0  0  0  0  0  0  0  0  0  0  0  0
    6.0707   -0.1379   19.7396 C   0  0  0  0  0  0  0  0  0  0  0  0
    4.9725    0.7297   19.8028 C   0  0  0  0  0  0  0  0  0  0  0  0
    4.5915    1.4237   18.6525 C   0  0  0  0  0  0  0  0  0  0  0  0
    5.3238    1.2306   17.4789 C   0  0  0  0  0  0  0  0  0  0  0  0
    6.3763    0.4032   17.3921 N   0  0  0  0  0  0  0  0  0  0  0  0
    6.7279   -0.2582   18.5016 C   0  0  0  0  0  0  0  0  0  0  0  0
    7.5937   -0.9185   18.4128 H   0  0  0  0  0  0  0  0  0  0  0  0
    5.0606    1.7574   16.5636 H   0  0  0  0  0  0  0  0  0  0  0  0
    3.7644    2.1244   18.6583 H   0  0  0  0  0  0  0  0  0  0  0  0
    4.4358    0.8654   20.7438 H   0  0  0  0  0  0  0  0  0  0  0  0
    5.7560   -1.1130   21.6492 H   0  0  0  0  0  0  0  0  0  0  0  0
    7.1310   -1.7478   20.7386 H   0  0  0  0  0  0  0  0  0  0  0  0
    8.8469    0.0850   21.4676 N   0  0  0  0  0  0  0  0  0  0  0  0
    9.3029    1.0226   22.2773 C   0  0  0  0  0  0  0  0  0  0  0  0
   10.6693    1.5927   22.3525 C   0  0  0  0  0  0  0  0  0  0  0  0
   11.1021    2.5609   21.4867 C   0  0  0  0  0  0  0  0  0  0  0  0
   12.2158    3.3844   21.8369 C   0  0  0  0  0  0  0  0  0  0  0  0
   12.9118    3.0990   23.0057 C   0  0  0  0  0  0  0  0  0  0  0  0
   14.1320    4.2363   23.3347 S   0  0  0  0  0  0  0  0  0  0  0  0
   13.7833    5.0922   21.8872 C   0  0  0  0  0  0  0  0  0  0  0  0
   12.7419    4.5604   21.1960 C   0  0  0  0  0  0  0  0  0  0  0  0
   12.3224    4.9939   20.2989 H   0  0  0  0  0  0  0  0  0  0  0  0
   14.4111    5.9306   21.6198 H   0  0  0  0  0  0  0  0  0  0  0  0
   12.6504    1.9024   23.7879 C   0  0  0  0  0  0  0  0  0  0  0  0
   13.3165    1.3819   24.6575 O   0  0  0  0  0  0  0  0  0  0  0  0
   11.4527    1.2866   23.4656 N   0  0  0  0  0  0  0  0  0  0  0  0
   11.4447    0.4125   23.9803 H   0  0  0  0  0  0  0  0  0  0  0  0
   10.5740    2.6980   20.5585 H   0  0  0  0  0  0  0  0  0  0  0  0
    9.3571    3.0437   23.9764 H   0  0  0  0  0  0  0  0  0  0  0  0
    8.0747    3.0560   26.1206 H   0  0  0  0  0  0  0  0  0  0  0  0
    8.7955    1.4742   25.7854 H   0  0  0  0  0  0  0  0  0  0  0  0
    7.0548    1.7279   25.5201 H   0  0  0  0  0  0  0  0  0  0  0  0
  1  2  1  0
  2  3  1  0
  3  4  1  0
  4  5  1  0
  5  6  1  0
  5  7  1  0
  4  8  1  0
  4  9  1  0
  3 10  1  0
  2 11  1  0
 11 12  1  0
 12 13  2  0
 13 14  1  0
 14 15  1  0
 15 16  2  0
 16 17  1  0
 17 18  2  0
 18 19  1  0
 19 20  2  0
 20 21  1  0
 18 22  1  0
 17 23  1  0
 16 24  1  0
 14 25  1  0
 14 26  1  0
 13 27  1  0
 27 28  2  0
 28 29  1  0
 29 30  2  0
 30 31  1  0
 31 32  2  0
 32 33  1  0
 33 34  1  0
 34 35  2  0
 35 36  1  0
 34 37  1  0
 32 38  1  0
 38 39  2  0
 38 40  1  0
 40 41  1  0
 30 42  1  0
  2 43  1  0
  1 44  1  0
  1 45  1  0
  1 46  1  0
  5  3  1  0
 28 11  1  0
 40 29  1  0
 20 15  1  0
 35 31  1  0
M  END
>  <cnnaffinity>  (1) 
-6.51238

>  <filename>  (1) 
CC(C1CC1)n1nc(Cc2cccnc2)nc1-c1cc2ccsc2c(=O)[nH]1

$$$$
