
     RDKit          3D

 32 33  0  0  0  0  0  0  0  0999 V2000
    5.0766    1.8523   17.0603 H   0  0  0  0  0  0  0  0  0  0  0  0
    5.4911    1.2632   17.8775 C   0  0  0  0  0  0  0  0  0  0  0  0
    6.6285    0.5987   17.6177 N   0  0  0  0  0  0  0  0  0  0  0  0
    7.1790   -0.0983   18.6198 C   0  0  0  0  0  0  0  0  0  0  0  0
    8.0948   -0.6475   18.4006 H   0  0  0  0  0  0  0  0  0  0  0  0
    6.6313   -0.1739   19.9134 C   0  0  0  0  0  0  0  0  0  0  0  0
    7.2898   -0.9168   20.9503 N   0  0  0  0  0  0  0  0  0  0  0  0
    8.4264   -0.5347   21.6688 C   0  0  0  0  0  0  0  0  0  0  0  0
    9.2846    0.6253   21.1938 C   0  0  0  0  0  0  0  0  0  0  0  0
    8.5817    1.4038   20.8587 H   0  0  0  0  0  0  0  0  0  0  0  0
    9.7756    0.2527   20.2751 H   0  0  0  0  0  0  0  0  0  0  0  0
   10.2848    1.2288   22.0898 N   0  0  0  0  0  0  0  0  0  0  0  0
   10.0904    0.9951   23.0643 H   0  0  0  0  0  0  0  0  0  0  0  0
   11.6873    0.9115   21.8101 C   0  0  0  0  0  0  0  0  0  0  0  0
   11.8687    1.2264   20.7688 H   0  0  0  0  0  0  0  0  0  0  0  0
   11.9756   -0.5837   21.9525 C   0  0  0  0  0  0  0  0  0  0  0  0
   13.0358   -0.8007   21.7772 H   0  0  0  0  0  0  0  0  0  0  0  0
   11.7074   -0.9321   22.9613 H   0  0  0  0  0  0  0  0  0  0  0  0
   11.3858   -1.1540   21.2288 H   0  0  0  0  0  0  0  0  0  0  0  0
   12.5939    1.7572   22.7019 C   0  0  0  0  0  0  0  0  0  0  0  0
   13.6517    1.5153   22.5366 H   0  0  0  0  0  0  0  0  0  0  0  0
   12.3841    1.5800   23.7645 H   0  0  0  0  0  0  0  0  0  0  0  0
   12.4558    2.8236   22.5028 H   0  0  0  0  0  0  0  0  0  0  0  0
    8.6298   -1.3374   22.6745 N   0  0  0  0  0  0  0  0  0  0  0  0
    7.6144   -2.2439   22.5772 N   0  0  0  0  0  0  0  0  0  0  0  0
    7.5385   -3.0528   23.1685 H   0  0  0  0  0  0  0  0  0  0  0  0
    6.7861   -2.0712   21.5308 C   0  0  0  0  0  0  0  0  0  0  0  0
    5.5451   -3.0752   21.0536 S   0  0  0  0  0  0  0  0  0  0  0  0
    5.4257    0.4929   20.1696 C   0  0  0  0  0  0  0  0  0  0  0  0
    4.9526    0.4293   21.1527 H   0  0  0  0  0  0  0  0  0  0  0  0
    4.8572    1.2355   19.1261 C   0  0  0  0  0  0  0  0  0  0  0  0
    3.9492    1.8098   19.2759 H   0  0  0  0  0  0  0  0  0  0  0  0
  1  2  1  0
  2  3  2  0
  3  4  1  0
  4  5  1  0
  4  6  2  0
  6  7  1  0
  7  8  1  0
  8  9  1  0
  9 10  1  0
  9 11  1  0
  9 12  1  0
 12 13  1  0
 12 14  1  0
 14 15  1  0
 14 16  1  0
 16 17  1  0
 16 18  1  0
 16 19  1  0
 14 20  1  0
 20 21  1  0
 20 22  1  0
 20 23  1  0
  8 24  2  0
 24 25  1  0
 25 26  1  0
 25 27  1  0
 27 28  2  0
  6 29  1  0
 29 30  1  0
 29 31  2  0
 31 32  1  0
 31  2  1  0
 27  7  1  0
M  END
>  <cnnaffinity>  (1) 
-4.64448

>  <filename>  (1) 
CC(C)NCc1n[nH]c(=S)n1-c1cccnc1

$$$$
