
     RDKit          3D

 34 36  0  0  0  0  0  0  0  0999 V2000
    7.2372   -2.0671   21.0931 C   0  0  0  0  0  0  0  0  0  0  0  0
    7.2379   -0.5206   21.1695 C   0  0  0  0  0  0  0  0  0  0  0  0
    8.7032   -0.0386   21.3511 C   0  0  0  0  0  0  0  0  0  0  0  0
    9.6406   -0.5239   20.7473 O   0  0  0  0  0  0  0  0  0  0  0  0
    8.8728    0.9777   22.2548 N   0  0  0  0  0  0  0  0  0  0  0  0
   10.0953    1.5451   22.5519 C   0  0  0  0  0  0  0  0  0  0  0  0
   11.2964    0.8229   22.7500 C   0  0  0  0  0  0  0  0  0  0  0  0
   12.4523    1.5332   23.0745 C   0  0  0  0  0  0  0  0  0  0  0  0
   12.3653    2.9375   23.1782 C   0  0  0  0  0  0  0  0  0  0  0  0
   13.2316    4.0616   23.4364 C   0  0  0  0  0  0  0  0  0  0  0  0
   12.4635    5.1876   23.4047 C   0  0  0  0  0  0  0  0  0  0  0  0
   11.1518    4.8341   23.1487 N   0  0  0  0  0  0  0  0  0  0  0  0
   11.0701    3.4883   22.9819 C   0  0  0  0  0  0  0  0  0  0  0  0
    9.9389    2.8553   22.6987 N   0  0  0  0  0  0  0  0  0  0  0  0
   10.3687    5.4038   22.8939 H   0  0  0  0  0  0  0  0  0  0  0  0
   12.7620    6.2194   23.5605 H   0  0  0  0  0  0  0  0  0  0  0  0
   14.2997    4.0385   23.5996 H   0  0  0  0  0  0  0  0  0  0  0  0
   13.3940    1.0142   23.2599 H   0  0  0  0  0  0  0  0  0  0  0  0
   11.2653   -0.2563   22.6669 H   0  0  0  0  0  0  0  0  0  0  0  0
    8.1998    1.7258   22.2570 H   0  0  0  0  0  0  0  0  0  0  0  0
    6.5515    0.1572   19.9714 C   0  0  0  0  0  0  0  0  0  0  0  0
    5.3296    0.8346   20.1203 C   0  0  0  0  0  0  0  0  0  0  0  0
    4.7261    1.4181   19.0004 C   0  0  0  0  0  0  0  0  0  0  0  0
    5.3664    1.3154   17.7622 C   0  0  0  0  0  0  0  0  0  0  0  0
    6.5371    0.6843   17.5923 N   0  0  0  0  0  0  0  0  0  0  0  0
    7.1043    0.1302   18.6737 C   0  0  0  0  0  0  0  0  0  0  0  0
    8.0760   -0.3360   18.5079 H   0  0  0  0  0  0  0  0  0  0  0  0
    4.9256    1.7596   16.8695 H   0  0  0  0  0  0  0  0  0  0  0  0
    3.7801    1.9447   19.0727 H   0  0  0  0  0  0  0  0  0  0  0  0
    4.8678    0.9144   21.1073 H   0  0  0  0  0  0  0  0  0  0  0  0
    6.6980   -0.2090   22.0740 H   0  0  0  0  0  0  0  0  0  0  0  0
    7.4934   -2.5083   22.0634 H   0  0  0  0  0  0  0  0  0  0  0  0
    8.0342   -2.3706   20.4162 H   0  0  0  0  0  0  0  0  0  0  0  0
    6.2837   -2.4891   20.7527 H   0  0  0  0  0  0  0  0  0  0  0  0
  1  2  1  0
  2  3  1  0
  3  4  2  0
  3  5  1  0
  5  6  1  0
  6  7  2  0
  7  8  1  0
  8  9  2  0
  9 10  1  0
 10 11  2  0
 11 12  1  0
 12 13  1  0
 13 14  2  0
 12 15  1  0
 11 16  1  0
 10 17  1  0
  8 18  1  0
  7 19  1  0
  5 20  1  0
  2 21  1  0
 21 22  2  0
 22 23  1  0
 23 24  2  0
 24 25  1  0
 25 26  2  0
 26 27  1  0
 24 28  1  0
 23 29  1  0
 22 30  1  0
  2 31  1  0
  1 32  1  0
  1 33  1  0
  1 34  1  0
 14  6  1  0
 26 21  1  0
 13  9  1  0
M  END
>  <cnnaffinity>  (1) 
-5.38206

>  <filename>  (1) 
CC(C(=O)Nc1ccc2cc[nH]c2n1)c1cccnc1

$$$$
