
     RDKit          3D

 39 42  0  0  0  0  0  0  0  0999 V2000
    8.7227   -1.3154   20.8836 C   0  0  0  0  0  0  0  0  0  0  0  0
    7.4357   -0.5483   21.2755 C   0  0  0  0  0  0  0  0  0  0  0  0
    7.8601    0.6159   22.1967 C   0  0  0  0  0  0  0  0  0  0  0  0
    8.3618    0.2293   23.0883 H   0  0  0  0  0  0  0  0  0  0  0  0
    8.5624    1.2530   21.6438 H   0  0  0  0  0  0  0  0  0  0  0  0
    7.0155    1.2409   22.5086 H   0  0  0  0  0  0  0  0  0  0  0  0
    6.6883    0.0541   20.0653 C   0  0  0  0  0  0  0  0  0  0  0  0
    5.4417    0.6804   20.2414 C   0  0  0  0  0  0  0  0  0  0  0  0
    4.8287    1.2919   19.1426 C   0  0  0  0  0  0  0  0  0  0  0  0
    5.4801    1.2619   17.9031 C   0  0  0  0  0  0  0  0  0  0  0  0
    6.6546    0.6512   17.7054 N   0  0  0  0  0  0  0  0  0  0  0  0
    7.2265    0.0675   18.7688 C   0  0  0  0  0  0  0  0  0  0  0  0
    8.1673   -0.4411   18.5753 H   0  0  0  0  0  0  0  0  0  0  0  0
    5.0331    1.7319   17.0275 H   0  0  0  0  0  0  0  0  0  0  0  0
    3.8739    1.8009   19.2311 H   0  0  0  0  0  0  0  0  0  0  0  0
    4.9522    0.6886   21.2204 H   0  0  0  0  0  0  0  0  0  0  0  0
    6.5577   -1.5740   21.9851 C   0  0  0  0  0  0  0  0  0  0  0  0
    6.4013   -1.8259   23.2559 N   0  0  0  0  0  0  0  0  0  0  0  0
    5.5325   -2.9098   23.2336 C   0  0  0  0  0  0  0  0  0  0  0  0
    4.9926   -3.3805   24.4568 C   0  0  0  0  0  0  0  0  0  0  0  0
    5.3222   -2.8609   25.6814 C   0  0  0  0  0  0  0  0  0  0  0  0
    6.1839   -1.9130   25.9848 O   0  0  0  0  0  0  0  0  0  0  0  0
    6.5013   -1.6129   25.1018 H   0  0  0  0  0  0  0  0  0  0  0  0
    4.5933   -3.4278   26.6693 N   0  0  0  0  0  0  0  0  0  0  0  0
    3.6955   -4.3175   26.0821 C   0  0  0  0  0  0  0  0  0  0  0  0
    2.6790   -5.1078   26.6013 C   0  0  0  0  0  0  0  0  0  0  0  0
    1.9454   -5.8470   25.6719 C   0  0  0  0  0  0  0  0  0  0  0  0
    2.2673   -5.7617   24.2939 C   0  0  0  0  0  0  0  0  0  0  0  0
    3.2364   -5.0094   23.7807 N   0  0  0  0  0  0  0  0  0  0  0  0
    3.9391   -4.2983   24.6799 C   0  0  0  0  0  0  0  0  0  0  0  0
    1.6908   -6.3353   23.5740 H   0  0  0  0  0  0  0  0  0  0  0  0
    1.1164   -6.4741   25.9891 H   0  0  0  0  0  0  0  0  0  0  0  0
    2.4769   -5.1240   27.6694 H   0  0  0  0  0  0  0  0  0  0  0  0
    4.5911   -3.0542   27.6051 H   0  0  0  0  0  0  0  0  0  0  0  0
    5.2435   -3.3367   22.0312 N   0  0  0  0  0  0  0  0  0  0  0  0
    5.9325   -2.4649   21.2102 O   0  0  0  0  0  0  0  0  0  0  0  0
    9.4007   -0.6909   20.2939 H   0  0  0  0  0  0  0  0  0  0  0  0
    9.2473   -1.6271   21.7914 H   0  0  0  0  0  0  0  0  0  0  0  0
    8.4801   -2.2195   20.3274 H   0  0  0  0  0  0  0  0  0  0  0  0
  1  2  1  0
  2  3  1  0
  3  4  1  0
  3  5  1  0
  3  6  1  0
  2  7  1  0
  7  8  2  0
  8  9  1  0
  9 10  2  0
 10 11  1  0
 11 12  2  0
 12 13  1  0
 10 14  1  0
  9 15  1  0
  8 16  1  0
  2 17  1  0
 17 18  2  0
 18 19  1  0
 19 20  1  0
 20 21  2  0
 21 22  1  0
 22 23  1  0
 21 24  1  0
 24 25  1  0
 25 26  2  0
 26 27  1  0
 27 28  2  0
 28 29  1  0
 29 30  2  0
 28 31  1  0
 27 32  1  0
 26 33  1  0
 24 34  1  0
 19 35  2  0
 35 36  1  0
  1 37  1  0
  1 38  1  0
  1 39  1  0
 12  7  1  0
 36 17  1  0
 30 20  1  0
 30 25  1  0
M  END
>  <cnnaffinity>  (1) 
-5.62103

>  <filename>  (1) 
CC(C)(c1cccnc1)c1nc(-c2c(O)[nH]c3cccnc23)no1

$$$$
