
     RDKit          3D

 40 42  0  0  0  0  0  0  0  0999 V2000
    5.6387   -3.9934   25.3726 C   0  0  0  0  0  0  0  0  0  0  0  0
    6.9942   -3.4864   24.8520 C   0  0  0  0  0  0  0  0  0  0  0  0
    7.1912   -1.9996   25.1816 C   0  0  0  0  0  0  0  0  0  0  0  0
    8.7488   -1.3011   24.4988 S   0  0  0  0  0  0  0  0  0  0  0  0
    8.3031   -1.3112   22.7991 C   0  0  0  0  0  0  0  0  0  0  0  0
    8.5329   -2.2769   21.9440 N   0  0  0  0  0  0  0  0  0  0  0  0
    7.9791   -1.8957   20.7486 N   0  0  0  0  0  0  0  0  0  0  0  0
    7.4001   -0.7312   20.9191 C   0  0  0  0  0  0  0  0  0  0  0  0
    6.6392    0.0125   19.8962 C   0  0  0  0  0  0  0  0  0  0  0  0
    5.4175    0.6690   20.1318 C   0  0  0  0  0  0  0  0  0  0  0  0
    4.7889    1.3243   19.0723 C   0  0  0  0  0  0  0  0  0  0  0  0
    5.4046    1.3093   17.8166 C   0  0  0  0  0  0  0  0  0  0  0  0
    6.5610    0.6749   17.5733 N   0  0  0  0  0  0  0  0  0  0  0  0
    7.1519    0.0446   18.5915 C   0  0  0  0  0  0  0  0  0  0  0  0
    8.0895   -0.4574   18.3631 H   0  0  0  0  0  0  0  0  0  0  0  0
    4.9521    1.8210   16.9701 H   0  0  0  0  0  0  0  0  0  0  0  0
    3.8505    1.8528   19.2069 H   0  0  0  0  0  0  0  0  0  0  0  0
    4.9501    0.6612   21.1189 H   0  0  0  0  0  0  0  0  0  0  0  0
    7.5966   -0.3015   22.2023 N   0  0  0  0  0  0  0  0  0  0  0  0
    7.1853    0.9500   22.8111 C   0  0  0  0  0  0  0  0  0  0  0  0
    7.1543    1.7280   22.0460 H   0  0  0  0  0  0  0  0  0  0  0  0
    7.9048    1.2335   23.5827 H   0  0  0  0  0  0  0  0  0  0  0  0
    6.1983    0.8549   23.2762 H   0  0  0  0  0  0  0  0  0  0  0  0
    6.3450   -1.4196   24.7969 H   0  0  0  0  0  0  0  0  0  0  0  0
    7.2647   -1.8371   26.2619 H   0  0  0  0  0  0  0  0  0  0  0  0
    8.1402   -4.3101   25.3993 C   0  0  0  0  0  0  0  0  0  0  0  0
    8.9283   -5.0519   24.5153 C   0  0  0  0  0  0  0  0  0  0  0  0
    9.9296   -5.8831   25.0053 C   0  0  0  0  0  0  0  0  0  0  0  0
   10.2096   -5.9256   26.3669 C   0  0  0  0  0  0  0  0  0  0  0  0
    9.4650   -5.1493   27.2624 C   0  0  0  0  0  0  0  0  0  0  0  0
    8.4196   -4.3577   26.7768 C   0  0  0  0  0  0  0  0  0  0  0  0
    7.7989   -3.7878   27.4653 H   0  0  0  0  0  0  0  0  0  0  0  0
    9.6815   -5.1682   28.3259 H   0  0  0  0  0  0  0  0  0  0  0  0
   10.9893   -6.6033   26.6869 H   0  0  0  0  0  0  0  0  0  0  0  0
   10.4638   -6.5421   24.3493 H   0  0  0  0  0  0  0  0  0  0  0  0
    8.7497   -4.9765   23.4445 H   0  0  0  0  0  0  0  0  0  0  0  0
    7.0181   -3.5700   23.7559 H   0  0  0  0  0  0  0  0  0  0  0  0
    4.8042   -3.4395   24.9299 H   0  0  0  0  0  0  0  0  0  0  0  0
    5.5756   -3.8815   26.4614 H   0  0  0  0  0  0  0  0  0  0  0  0
    5.4902   -5.0564   25.1518 H   0  0  0  0  0  0  0  0  0  0  0  0
  1  2  1  0
  2  3  1  0
  3  4  1  0
  4  5  1  0
  5  6  2  0
  6  7  1  0
  7  8  2  0
  8  9  1  0
  9 10  2  0
 10 11  1  0
 11 12  2  0
 12 13  1  0
 13 14  2  0
 14 15  1  0
 12 16  1  0
 11 17  1  0
 10 18  1  0
  8 19  1  0
 19 20  1  0
 20 21  1  0
 20 22  1  0
 20 23  1  0
  3 24  1  0
  3 25  1  0
  2 26  1  0
 26 27  2  0
 27 28  1  0
 28 29  2  0
 29 30  1  0
 30 31  2  0
 31 32  1  0
 30 33  1  0
 29 34  1  0
 28 35  1  0
 27 36  1  0
  2 37  1  0
  1 38  1  0
  1 39  1  0
  1 40  1  0
 19  5  1  0
 31 26  1  0
 14  9  1  0
M  END
>  <cnnaffinity>  (1) 
-5.59677

>  <filename>  (1) 
CC(CSc1nnc(-c2cccnc2)n1C)c1ccccc1

$$$$
