
     RDKit          3D

 32 33  0  0  0  0  0  0  0  0999 V2000
    7.0196    3.2850   23.9420 H   0  0  0  0  0  0  0  0  0  0  0  0
    6.7436    2.2323   24.0196 C   0  0  0  0  0  0  0  0  0  0  0  0
    5.8419    1.9248   24.9421 N   0  0  0  0  0  0  0  0  0  0  0  0
    5.5259    0.6383   24.9651 C   0  0  0  0  0  0  0  0  0  0  0  0
    4.5551    0.2827   25.8308 N   0  0  0  0  0  0  0  0  0  0  0  0
    4.6213    0.9166   26.6077 H   0  0  0  0  0  0  0  0  0  0  0  0
    4.7300   -0.6944   25.9874 H   0  0  0  0  0  0  0  0  0  0  0  0
    6.0520   -0.3587   24.2809 N   0  0  0  0  0  0  0  0  0  0  0  0
    6.8613   -0.0144   23.2595 C   0  0  0  0  0  0  0  0  0  0  0  0
    7.3207   -1.1641   22.2639 C   0  0  0  0  0  0  0  0  0  0  0  0
    7.8476   -0.6909   20.9452 N   0  0  0  0  0  0  0  0  0  0  0  0
    8.4225   -1.4301   20.5497 H   0  0  0  0  0  0  0  0  0  0  0  0
    7.0642   -0.0375   19.9671 C   0  0  0  0  0  0  0  0  0  0  0  0
    7.4588    0.0338   18.5976 C   0  0  0  0  0  0  0  0  0  0  0  0
    8.4062   -0.4067   18.2807 H   0  0  0  0  0  0  0  0  0  0  0  0
    6.7509    0.6206   17.6201 N   0  0  0  0  0  0  0  0  0  0  0  0
    5.5968    1.2184   17.9691 C   0  0  0  0  0  0  0  0  0  0  0  0
    5.0220    1.6701   17.1655 H   0  0  0  0  0  0  0  0  0  0  0  0
    5.1343    1.2622   19.2862 C   0  0  0  0  0  0  0  0  0  0  0  0
    4.2061    1.7772   19.5172 H   0  0  0  0  0  0  0  0  0  0  0  0
    5.8725    0.6337   20.2940 C   0  0  0  0  0  0  0  0  0  0  0  0
    5.5345    0.6602   21.3272 H   0  0  0  0  0  0  0  0  0  0  0  0
    8.5165   -1.8922   22.9055 C   0  0  0  0  0  0  0  0  0  0  0  0
    8.8154   -2.7322   22.2631 H   0  0  0  0  0  0  0  0  0  0  0  0
    9.3743   -1.2158   23.0041 H   0  0  0  0  0  0  0  0  0  0  0  0
    8.2628   -2.2888   23.8980 H   0  0  0  0  0  0  0  0  0  0  0  0
    6.1893   -2.1921   22.0036 C   0  0  0  0  0  0  0  0  0  0  0  0
    5.8131   -2.5888   22.9527 H   0  0  0  0  0  0  0  0  0  0  0  0
    6.5775   -3.0166   21.3935 H   0  0  0  0  0  0  0  0  0  0  0  0
    5.3553   -1.7424   21.4534 H   0  0  0  0  0  0  0  0  0  0  0  0
    7.3272    1.3006   23.1697 C   0  0  0  0  0  0  0  0  0  0  0  0
    8.0807    1.5771   22.4503 H   0  0  0  0  0  0  0  0  0  0  0  0
  1  2  1  0
  2  3  2  0
  3  4  1  0
  4  5  1  0
  5  6  1  0
  5  7  1  0
  4  8  2  0
  8  9  1  0
  9 10  1  0
 10 11  1  0
 11 12  1  0
 11 13  1  0
 13 14  2  0
 14 15  1  0
 14 16  1  0
 16 17  2  0
 17 18  1  0
 17 19  1  0
 19 20  1  0
 19 21  2  0
 21 22  1  0
 10 23  1  0
 23 24  1  0
 23 25  1  0
 23 26  1  0
 10 27  1  0
 27 28  1  0
 27 29  1  0
 27 30  1  0
  9 31  2  0
 31 32  1  0
 31  2  1  0
 21 13  1  0
M  END
>  <cnnaffinity>  (1) 
-4.72737

>  <filename>  (1) 
CC(C)(Nc1cccnc1)c1ccnc(N)n1

$$$$
