
     RDKit          3D

 47 50  0  0  0  0  0  0  0  0999 V2000
   11.8761   -1.1115   21.3140 C   0  0  0  0  0  0  0  0  0  0  0  0
   11.2319   -1.6959   22.5707 C   0  0  0  0  0  0  0  0  0  0  0  0
   10.9873   -0.6409   23.6680 C   0  0  0  0  0  0  0  0  0  0  0  0
   12.1557    0.0754   24.0130 O   0  0  0  0  0  0  0  0  0  0  0  0
   12.4401    0.5376   23.2133 H   0  0  0  0  0  0  0  0  0  0  0  0
   10.6694   -1.1295   24.5970 H   0  0  0  0  0  0  0  0  0  0  0  0
   10.1809    0.0441   23.3576 H   0  0  0  0  0  0  0  0  0  0  0  0
    9.9624   -2.5013   22.2399 C   0  0  0  0  0  0  0  0  0  0  0  0
    8.7222   -1.7536   22.0862 N   0  0  0  0  0  0  0  0  0  0  0  0
    8.4374   -1.2285   20.8762 N   0  0  0  0  0  0  0  0  0  0  0  0
    7.2634   -0.6501   21.0595 C   0  0  0  0  0  0  0  0  0  0  0  0
    6.5686    0.0411   19.9785 C   0  0  0  0  0  0  0  0  0  0  0  0
    5.3482    0.7144   20.1528 C   0  0  0  0  0  0  0  0  0  0  0  0
    4.7887    1.3466   19.0448 C   0  0  0  0  0  0  0  0  0  0  0  0
    5.4585    1.2832   17.8174 C   0  0  0  0  0  0  0  0  0  0  0  0
    6.6207    0.6371   17.6412 N   0  0  0  0  0  0  0  0  0  0  0  0
    7.1580    0.0342   18.7047 C   0  0  0  0  0  0  0  0  0  0  0  0
    8.1024   -0.4833   18.5370 H   0  0  0  0  0  0  0  0  0  0  0  0
    5.0375    1.7637   16.9366 H   0  0  0  0  0  0  0  0  0  0  0  0
    3.8511    1.8877   19.1153 H   0  0  0  0  0  0  0  0  0  0  0  0
    4.8587    0.7420   21.1293 H   0  0  0  0  0  0  0  0  0  0  0  0
    6.7852   -0.7613   22.3235 N   0  0  0  0  0  0  0  0  0  0  0  0
    7.7153   -1.4592   22.9444 C   0  0  0  0  0  0  0  0  0  0  0  0
    7.6815   -1.8246   24.4065 C   0  0  0  0  0  0  0  0  0  0  0  0
    6.9925   -3.0731   24.6836 N   0  0  0  0  0  0  0  0  0  0  0  0
    7.5787   -4.3131   24.5205 C   0  0  0  0  0  0  0  0  0  0  0  0
    6.6288   -5.2772   24.3955 C   0  0  0  0  0  0  0  0  0  0  0  0
    5.3560   -4.6268   24.4680 C   0  0  0  0  0  0  0  0  0  0  0  0
    4.0186   -5.0593   24.3666 C   0  0  0  0  0  0  0  0  0  0  0  0
    2.9906   -4.1547   24.5925 C   0  0  0  0  0  0  0  0  0  0  0  0
    3.2919   -2.8111   24.9104 C   0  0  0  0  0  0  0  0  0  0  0  0
    1.9583   -1.7270   25.1712 Cl  0  0  0  0  0  0  0  0  0  0  0  0
    4.5985   -2.3413   25.0084 C   0  0  0  0  0  0  0  0  0  0  0  0
    5.6224   -3.2565   24.7120 C   0  0  0  0  0  0  0  0  0  0  0  0
    4.8245   -1.3150   25.2780 H   0  0  0  0  0  0  0  0  0  0  0  0
    1.9480   -4.4495   24.5447 H   0  0  0  0  0  0  0  0  0  0  0  0
    3.7871   -6.0834   24.0864 H   0  0  0  0  0  0  0  0  0  0  0  0
    6.7758   -6.3332   24.3014 H   0  0  0  0  0  0  0  0  0  0  0  0
    8.6558   -4.3969   24.5071 H   0  0  0  0  0  0  0  0  0  0  0  0
    7.1661   -1.0177   24.9332 H   0  0  0  0  0  0  0  0  0  0  0  0
    8.6951   -1.9048   24.8168 H   0  0  0  0  0  0  0  0  0  0  0  0
   10.0938   -2.9777   21.2709 H   0  0  0  0  0  0  0  0  0  0  0  0
    9.8103   -3.2875   22.9805 H   0  0  0  0  0  0  0  0  0  0  0  0
   11.9403   -2.4475   22.9326 H   0  0  0  0  0  0  0  0  0  0  0  0
   12.7136   -0.4565   21.5754 H   0  0  0  0  0  0  0  0  0  0  0  0
   12.2967   -1.9116   20.6943 H   0  0  0  0  0  0  0  0  0  0  0  0
   11.1521   -0.5377   20.7267 H   0  0  0  0  0  0  0  0  0  0  0  0
  1  2  1  0
  2  3  1  0
  3  4  1  0
  4  5  1  0
  3  6  1  0
  3  7  1  0
  2  8  1  0
  8  9  1  0
  9 10  1  0
 10 11  2  0
 11 12  1  0
 12 13  2  0
 13 14  1  0
 14 15  2  0
 15 16  1  0
 16 17  2  0
 17 18  1  0
 15 19  1  0
 14 20  1  0
 13 21  1  0
 11 22  1  0
 22 23  2  0
 23 24  1  0
 24 25  1  0
 25 26  1  0
 26 27  2  0
 27 28  1  0
 28 29  2  0
 29 30  1  0
 30 31  2  0
 31 32  1  0
 31 33  1  0
 33 34  2  0
 33 35  1  0
 30 36  1  0
 29 37  1  0
 27 38  1  0
 26 39  1  0
 24 40  1  0
 24 41  1  0
  8 42  1  0
  8 43  1  0
  2 44  1  0
  1 45  1  0
  1 46  1  0
  1 47  1  0
 23  9  1  0
 34 25  1  0
 17 12  1  0
 34 28  1  0
M  END
>  <cnnaffinity>  (1) 
-6.22921

>  <filename>  (1) 
CC(CO)Cn1nc(-c2cccnc2)nc1Cn1ccc2ccc(Cl)cc21

$$$$
