
     RDKit          3D

 37 38  0  0  0  0  0  0  0  0999 V2000
    4.9652    1.7807   16.9622 H   0  0  0  0  0  0  0  0  0  0  0  0
    5.4256    1.2893   17.8166 C   0  0  0  0  0  0  0  0  0  0  0  0
    6.5873    0.6609   17.5956 N   0  0  0  0  0  0  0  0  0  0  0  0
    7.1745    0.0688   18.6504 C   0  0  0  0  0  0  0  0  0  0  0  0
    8.1256   -0.4086   18.4277 H   0  0  0  0  0  0  0  0  0  0  0  0
    6.6561    0.0525   19.9458 C   0  0  0  0  0  0  0  0  0  0  0  0
    7.3499   -0.7015   21.0870 C   0  0  0  0  0  0  0  0  0  0  0  0
    7.2161    0.1042   22.2973 N   0  0  0  0  0  0  0  0  0  0  0  0
    7.4671   -0.3863   23.1454 H   0  0  0  0  0  0  0  0  0  0  0  0
    8.0077    1.3067   22.3244 C   0  0  0  0  0  0  0  0  0  0  0  0
    7.8134    1.9337   21.4352 H   0  0  0  0  0  0  0  0  0  0  0  0
    9.1034    1.1440   22.3389 H   0  0  0  0  0  0  0  0  0  0  0  0
    7.5800    1.9089   23.5408 N   0  0  0  0  0  0  0  0  0  0  0  0
    6.6168    1.6216   23.6336 H   0  0  0  0  0  0  0  0  0  0  0  0
    7.8910    3.2436   23.7864 C   0  0  0  0  0  0  0  0  0  0  0  0
    8.9116    3.8826   23.0544 C   0  0  0  0  0  0  0  0  0  0  0  0
    9.3671    3.3566   22.2213 H   0  0  0  0  0  0  0  0  0  0  0  0
    9.3345    5.1677   23.3892 C   0  0  0  0  0  0  0  0  0  0  0  0
   10.1401    5.6196   22.8150 H   0  0  0  0  0  0  0  0  0  0  0  0
    8.7354    5.8540   24.4474 C   0  0  0  0  0  0  0  0  0  0  0  0
    9.0840    6.8470   24.7174 H   0  0  0  0  0  0  0  0  0  0  0  0
    7.6890    5.2436   25.1504 C   0  0  0  0  0  0  0  0  0  0  0  0
    7.2144    5.7806   25.9679 H   0  0  0  0  0  0  0  0  0  0  0  0
    7.2559    3.9538   24.8203 C   0  0  0  0  0  0  0  0  0  0  0  0
    6.4395    3.4865   25.3662 H   0  0  0  0  0  0  0  0  0  0  0  0
    6.6208   -2.0331   21.2715 C   0  0  0  0  0  0  0  0  0  0  0  0
    5.5709   -1.8777   21.5313 H   0  0  0  0  0  0  0  0  0  0  0  0
    6.6584   -2.5963   20.3327 H   0  0  0  0  0  0  0  0  0  0  0  0
    7.0807   -2.6406   22.0574 H   0  0  0  0  0  0  0  0  0  0  0  0
    8.8386   -0.9930   20.8132 C   0  0  0  0  0  0  0  0  0  0  0  0
    8.9581   -1.7076   19.9979 H   0  0  0  0  0  0  0  0  0  0  0  0
    9.3026   -1.4172   21.7119 H   0  0  0  0  0  0  0  0  0  0  0  0
    9.3859   -0.0786   20.5624 H   0  0  0  0  0  0  0  0  0  0  0  0
    5.4180    0.6961   20.1396 C   0  0  0  0  0  0  0  0  0  0  0  0
    4.9841    0.7318   21.1399 H   0  0  0  0  0  0  0  0  0  0  0  0
    4.7941    1.3233   19.0641 C   0  0  0  0  0  0  0  0  0  0  0  0
    3.8496    1.8428   19.1837 H   0  0  0  0  0  0  0  0  0  0  0  0
  1  2  1  0
  2  3  2  0
  3  4  1  0
  4  5  1  0
  4  6  2  0
  6  7  1  0
  7  8  1  0
  8  9  1  0
  8 10  1  0
 10 11  1  0
 10 12  1  0
 10 13  1  0
 13 14  1  0
 13 15  1  0
 15 16  2  0
 16 17  1  0
 16 18  1  0
 18 19  1  0
 18 20  2  0
 20 21  1  0
 20 22  1  0
 22 23  1  0
 22 24  2  0
 24 25  1  0
  7 26  1  0
 26 27  1  0
 26 28  1  0
 26 29  1  0
  7 30  1  0
 30 31  1  0
 30 32  1  0
 30 33  1  0
  6 34  1  0
 34 35  1  0
 34 36  2  0
 36 37  1  0
 36  2  1  0
 24 15  1  0
M  END
>  <cnnaffinity>  (1) 
-4.37494

>  <filename>  (1) 
CC(C)(NCNc1ccccc1)c1cccnc1

$$$$
