
     RDKit          3D

 30 31  0  0  0  0  0  0  0  0999 V2000
    8.5237   -6.8412   23.3584 H   0  0  0  0  0  0  0  0  0  0  0  0
    8.1843   -5.8307   23.5622 C   0  0  0  0  0  0  0  0  0  0  0  0
    8.4051   -4.8671   22.6037 N   0  0  0  0  0  0  0  0  0  0  0  0
    7.9641   -3.7216   23.0233 C   0  0  0  0  0  0  0  0  0  0  0  0
    8.1121   -2.6421   22.2080 N   0  0  0  0  0  0  0  0  0  0  0  0
    8.4512   -3.0060   21.3350 H   0  0  0  0  0  0  0  0  0  0  0  0
    7.0473   -1.6979   21.9329 C   0  0  0  0  0  0  0  0  0  0  0  0
    7.6325   -1.0904   20.7709 N   0  0  0  0  0  0  0  0  0  0  0  0
    8.6296   -1.1884   20.8583 H   0  0  0  0  0  0  0  0  0  0  0  0
    7.0472   -0.2074   19.8575 C   0  0  0  0  0  0  0  0  0  0  0  0
    7.5576   -0.0606   18.5357 C   0  0  0  0  0  0  0  0  0  0  0  0
    8.4759   -0.5801   18.2580 H   0  0  0  0  0  0  0  0  0  0  0  0
    6.9842    0.6645   17.5650 N   0  0  0  0  0  0  0  0  0  0  0  0
    5.8652    1.3441   17.8726 C   0  0  0  0  0  0  0  0  0  0  0  0
    5.3991    1.8956   17.0599 H   0  0  0  0  0  0  0  0  0  0  0  0
    5.3064    1.3368   19.1500 C   0  0  0  0  0  0  0  0  0  0  0  0
    4.4160    1.9240   19.3523 H   0  0  0  0  0  0  0  0  0  0  0  0
    5.8963    0.5568   20.1519 C   0  0  0  0  0  0  0  0  0  0  0  0
    5.4593    0.5204   21.1435 H   0  0  0  0  0  0  0  0  0  0  0  0
    6.9175   -0.7203   23.0989 C   0  0  0  0  0  0  0  0  0  0  0  0
    6.3845   -1.1674   23.9390 H   0  0  0  0  0  0  0  0  0  0  0  0
    7.9203   -0.4485   23.4392 H   0  0  0  0  0  0  0  0  0  0  0  0
    6.4032    0.1949   22.8089 H   0  0  0  0  0  0  0  0  0  0  0  0
    5.7559   -2.4077   21.5455 C   0  0  0  0  0  0  0  0  0  0  0  0
    5.0203   -1.6449   21.3081 H   0  0  0  0  0  0  0  0  0  0  0  0
    5.3707   -3.0258   22.3555 H   0  0  0  0  0  0  0  0  0  0  0  0
    5.9517   -3.0173   20.6548 H   0  0  0  0  0  0  0  0  0  0  0  0
    7.2557   -3.7313   24.6231 S   0  0  0  0  0  0  0  0  0  0  0  0
    7.5756   -5.4339   24.7011 C   0  0  0  0  0  0  0  0  0  0  0  0
    7.3233   -6.0160   25.5750 H   0  0  0  0  0  0  0  0  0  0  0  0
  1  2  1  0
  2  3  1  0
  3  4  2  0
  4  5  1  0
  5  6  1  0
  5  7  1  0
  7  8  1  0
  8  9  1  0
  8 10  1  0
 10 11  2  0
 11 12  1  0
 11 13  1  0
 13 14  2  0
 14 15  1  0
 14 16  1  0
 16 17  1  0
 16 18  2  0
 18 19  1  0
  7 20  1  0
 20 21  1  0
 20 22  1  0
 20 23  1  0
  7 24  1  0
 24 25  1  0
 24 26  1  0
 24 27  1  0
  4 28  1  0
 28 29  1  0
 29 30  1  0
 29  2  2  0
 18 10  1  0
M  END
>  <cnnaffinity>  (1) 
-4.01041

>  <filename>  (1) 
CC(C)(Nc1cccnc1)Nc1nccs1

$$$$
