
     RDKit          3D

 47 51  0  0  0  0  0  0  0  0999 V2000
    8.5353    1.7847   25.6547 C   0  0  0  0  0  0  0  0  0  0  0  0
    8.5554    2.4801   24.2960 C   0  0  0  0  0  0  0  0  0  0  0  0
    7.4424    3.5121   24.1792 C   0  0  0  0  0  0  0  0  0  0  0  0
    7.6985    4.9172   24.6446 C   0  0  0  0  0  0  0  0  0  0  0  0
    7.5358    4.6253   23.1782 C   0  0  0  0  0  0  0  0  0  0  0  0
    8.4187    4.6752   22.5481 H   0  0  0  0  0  0  0  0  0  0  0  0
    6.6349    4.9541   22.6673 H   0  0  0  0  0  0  0  0  0  0  0  0
    6.9109    5.4685   25.1511 H   0  0  0  0  0  0  0  0  0  0  0  0
    8.6992    5.1467   25.0042 H   0  0  0  0  0  0  0  0  0  0  0  0
    6.4482    3.1083   24.3578 H   0  0  0  0  0  0  0  0  0  0  0  0
    8.5434    1.5266   23.1661 N   0  0  0  0  0  0  0  0  0  0  0  0
    7.4300    0.8225   22.8407 N   0  0  0  0  0  0  0  0  0  0  0  0
    7.8280    0.0874   21.8199 C   0  0  0  0  0  0  0  0  0  0  0  0
    6.9434   -0.8334   21.0272 C   0  0  0  0  0  0  0  0  0  0  0  0
    6.3338   -0.1567   19.8042 C   0  0  0  0  0  0  0  0  0  0  0  0
    5.2015    0.6560   19.9403 C   0  0  0  0  0  0  0  0  0  0  0  0
    4.7576    1.3849   18.8351 C   0  0  0  0  0  0  0  0  0  0  0  0
    5.4599    1.2759   17.6310 C   0  0  0  0  0  0  0  0  0  0  0  0
    6.5291    0.4819   17.4670 N   0  0  0  0  0  0  0  0  0  0  0  0
    6.9407   -0.2106   18.5363 C   0  0  0  0  0  0  0  0  0  0  0  0
    7.8175   -0.8419   18.3890 H   0  0  0  0  0  0  0  0  0  0  0  0
    5.1528    1.8427   16.7543 H   0  0  0  0  0  0  0  0  0  0  0  0
    3.9038    2.0510   18.8972 H   0  0  0  0  0  0  0  0  0  0  0  0
    4.6891    0.7226   20.9032 H   0  0  0  0  0  0  0  0  0  0  0  0
    6.1582   -1.2003   21.6938 H   0  0  0  0  0  0  0  0  0  0  0  0
    7.5566   -1.6901   20.7221 H   0  0  0  0  0  0  0  0  0  0  0  0
    9.1324    0.2431   21.4764 N   0  0  0  0  0  0  0  0  0  0  0  0
    9.5540    1.1461   22.3445 C   0  0  0  0  0  0  0  0  0  0  0  0
   10.8630    1.8398   22.4285 C   0  0  0  0  0  0  0  0  0  0  0  0
   10.9263    3.1813   22.1954 C   0  0  0  0  0  0  0  0  0  0  0  0
   12.1576    3.8716   22.2492 C   0  0  0  0  0  0  0  0  0  0  0  0
   12.5319    5.1867   22.1133 C   0  0  0  0  0  0  0  0  0  0  0  0
   13.9410    5.2509   22.2748 C   0  0  0  0  0  0  0  0  0  0  0  0
   14.3907    3.9756   22.4822 C   0  0  0  0  0  0  0  0  0  0  0  0
   13.3134    3.1183   22.5020 N   0  0  0  0  0  0  0  0  0  0  0  0
   13.3096    1.7399   22.8004 C   0  0  0  0  0  0  0  0  0  0  0  0
   14.2728    1.0707   23.1046 O   0  0  0  0  0  0  0  0  0  0  0  0
   12.0467    1.1625   22.7564 N   0  0  0  0  0  0  0  0  0  0  0  0
   12.1201    0.2153   23.0983 H   0  0  0  0  0  0  0  0  0  0  0  0
   15.3856    3.5761   22.5715 H   0  0  0  0  0  0  0  0  0  0  0  0
   14.5513    6.1425   22.2260 H   0  0  0  0  0  0  0  0  0  0  0  0
   11.8273    5.9763   21.9039 H   0  0  0  0  0  0  0  0  0  0  0  0
   10.0277    3.7423   22.0194 H   0  0  0  0  0  0  0  0  0  0  0  0
    9.5055    3.0145   24.2293 H   0  0  0  0  0  0  0  0  0  0  0  0
    8.5754    2.5441   26.4448 H   0  0  0  0  0  0  0  0  0  0  0  0
    7.6211    1.1938   25.7750 H   0  0  0  0  0  0  0  0  0  0  0  0
    9.4060    1.1334   25.7708 H   0  0  0  0  0  0  0  0  0  0  0  0
  1  2  1  0
  2  3  1  0
  3  4  1  0
  4  5  1  0
  5  6  1  0
  5  7  1  0
  4  8  1  0
  4  9  1  0
  3 10  1  0
  2 11  1  0
 11 12  1  0
 12 13  2  0
 13 14  1  0
 14 15  1  0
 15 16  2  0
 16 17  1  0
 17 18  2  0
 18 19  1  0
 19 20  2  0
 20 21  1  0
 18 22  1  0
 17 23  1  0
 16 24  1  0
 14 25  1  0
 14 26  1  0
 13 27  1  0
 27 28  2  0
 28 29  1  0
 29 30  2  0
 30 31  1  0
 31 32  2  0
 32 33  1  0
 33 34  2  0
 34 35  1  0
 35 36  1  0
 36 37  2  0
 36 38  1  0
 38 39  1  0
 34 40  1  0
 33 41  1  0
 32 42  1  0
 30 43  1  0
  2 44  1  0
  1 45  1  0
  1 46  1  0
  1 47  1  0
  5  3  1  0
 28 11  1  0
 38 29  1  0
 20 15  1  0
 35 31  1  0
M  END
>  <cnnaffinity>  (1) 
-6.57985

>  <filename>  (1) 
CC(C1CC1)n1nc(Cc2cccnc2)nc1-c1cc2cccn2c(=O)[nH]1

$$$$
