
     RDKit          3D

 30 31  0  0  0  0  0  0  0  0999 V2000
    7.2842    3.2903   24.8347 H   0  0  0  0  0  0  0  0  0  0  0  0
    8.0879    3.7819   24.5990 O   0  0  0  0  0  0  0  0  0  0  0  0
    8.3056    3.6437   23.2123 C   0  0  0  0  0  0  0  0  0  0  0  0
    7.4554    4.0475   22.6370 H   0  0  0  0  0  0  0  0  0  0  0  0
    9.1847    4.2741   22.9985 H   0  0  0  0  0  0  0  0  0  0  0  0
    8.6106    2.2054   22.6944 C   0  0  0  0  0  0  0  0  0  0  0  0
    7.1112    1.1623   23.1218 S   0  0  0  0  0  0  0  0  0  0  0  0
    7.5559   -0.3128   22.2701 C   0  0  0  0  0  0  0  0  0  0  0  0
    8.2683   -1.2793   22.8157 N   0  0  0  0  0  0  0  0  0  0  0  0
    8.4898   -2.1854   21.8446 N   0  0  0  0  0  0  0  0  0  0  0  0
    7.9627   -1.8225   20.7394 N   0  0  0  0  0  0  0  0  0  0  0  0
    7.3546   -0.6395   20.9623 N   0  0  0  0  0  0  0  0  0  0  0  0
    6.6500    0.0183   19.9083 C   0  0  0  0  0  0  0  0  0  0  0  0
    7.1783    0.0394   18.6035 C   0  0  0  0  0  0  0  0  0  0  0  0
    8.1169   -0.4655   18.3773 H   0  0  0  0  0  0  0  0  0  0  0  0
    6.5786    0.6606   17.5851 N   0  0  0  0  0  0  0  0  0  0  0  0
    5.4182    1.2910   17.8281 C   0  0  0  0  0  0  0  0  0  0  0  0
    4.9666    1.8119   16.9842 H   0  0  0  0  0  0  0  0  0  0  0  0
    4.8035    1.3049   19.0845 C   0  0  0  0  0  0  0  0  0  0  0  0
    3.8655    1.8360   19.2227 H   0  0  0  0  0  0  0  0  0  0  0  0
    5.4342    0.6553   20.1516 C   0  0  0  0  0  0  0  0  0  0  0  0
    4.9842    0.6427   21.1442 H   0  0  0  0  0  0  0  0  0  0  0  0
    8.7639    2.2148   21.1679 C   0  0  0  0  0  0  0  0  0  0  0  0
    9.5640    2.9003   20.8855 H   0  0  0  0  0  0  0  0  0  0  0  0
    9.0358    1.2210   20.7919 H   0  0  0  0  0  0  0  0  0  0  0  0
    7.8331    2.5172   20.6819 H   0  0  0  0  0  0  0  0  0  0  0  0
    9.8641    1.6017   23.3402 C   0  0  0  0  0  0  0  0  0  0  0  0
    9.7165    1.4139   24.4080 H   0  0  0  0  0  0  0  0  0  0  0  0
   10.1219    0.6581   22.8493 H   0  0  0  0  0  0  0  0  0  0  0  0
   10.7197    2.2779   23.2109 H   0  0  0  0  0  0  0  0  0  0  0  0
  1  2  1  0
  2  3  1  0
  3  4  1  0
  3  5  1  0
  3  6  1  0
  6  7  1  0
  7  8  1  0
  8  9  2  0
  9 10  1  0
 10 11  2  0
 11 12  1  0
 12 13  1  0
 13 14  2  0
 14 15  1  0
 14 16  1  0
 16 17  2  0
 17 18  1  0
 17 19  1  0
 19 20  1  0
 19 21  2  0
 21 22  1  0
  6 23  1  0
 23 24  1  0
 23 25  1  0
 23 26  1  0
  6 27  1  0
 27 28  1  0
 27 29  1  0
 27 30  1  0
 12  8  1  0
 21 13  1  0
M  END
>  <cnnaffinity>  (1) 
-4.54822

>  <filename>  (1) 
CC(C)(CO)Sc1nnnn1-c1cccnc1

$$$$
