
     RDKit          3D

 37 38  0  0  0  0  0  0  0  0999 V2000
    5.6865    1.6634   16.8959 H   0  0  0  0  0  0  0  0  0  0  0  0
    5.9753    1.2843   17.8744 C   0  0  0  0  0  0  0  0  0  0  0  0
    7.1191    0.5903   17.9272 N   0  0  0  0  0  0  0  0  0  0  0  0
    7.4953    0.1136   19.1220 C   0  0  0  0  0  0  0  0  0  0  0  0
    8.4499   -0.4128   19.1152 H   0  0  0  0  0  0  0  0  0  0  0  0
    6.7585    0.2600   20.3181 C   0  0  0  0  0  0  0  0  0  0  0  0
    7.1729   -0.4482   21.6080 C   0  0  0  0  0  0  0  0  0  0  0  0
    8.6511   -0.4708   21.5988 N   0  0  0  0  0  0  0  0  0  0  0  0
    9.0734    0.2374   21.0188 H   0  0  0  0  0  0  0  0  0  0  0  0
    9.3909   -0.9361   22.6044 C   0  0  0  0  0  0  0  0  0  0  0  0
    9.0963   -1.7383   23.4417 O   0  0  0  0  0  0  0  0  0  0  0  0
   12.1415   -0.3070   22.2885 S   0  0  0  0  0  0  0  0  0  0  0  0
   13.5407   -0.4298   22.7372 O   0  0  0  0  0  0  0  0  0  0  0  0
   11.7749   -0.6609   20.9100 O   0  0  0  0  0  0  0  0  0  0  0  0
   11.6229    1.4181   22.5290 C   0  0  0  0  0  0  0  0  0  0  0  0
   10.9812    1.8426   23.7005 C   0  0  0  0  0  0  0  0  0  0  0  0
   10.5667    1.1131   24.4066 H   0  0  0  0  0  0  0  0  0  0  0  0
   10.8450    3.2215   23.9242 C   0  0  0  0  0  0  0  0  0  0  0  0
   10.3654    3.5816   24.8285 H   0  0  0  0  0  0  0  0  0  0  0  0
   11.3222    4.1434   22.9822 C   0  0  0  0  0  0  0  0  0  0  0  0
   11.2874    5.2124   23.1821 H   0  0  0  0  0  0  0  0  0  0  0  0
   11.8583    3.6893   21.7739 C   0  0  0  0  0  0  0  0  0  0  0  0
   12.1782    4.3943   21.0109 H   0  0  0  0  0  0  0  0  0  0  0  0
   11.9612    2.3243   21.5150 C   0  0  0  0  0  0  0  0  0  0  0  0
   12.2859    1.9781   20.5387 H   0  0  0  0  0  0  0  0  0  0  0  0
    6.7247    0.3074   22.8769 C   0  0  0  0  0  0  0  0  0  0  0  0
    5.6376    0.3187   22.9652 H   0  0  0  0  0  0  0  0  0  0  0  0
    7.0916    1.3380   22.8517 H   0  0  0  0  0  0  0  0  0  0  0  0
    7.1395   -0.1688   23.7730 H   0  0  0  0  0  0  0  0  0  0  0  0
    6.6489   -1.8914   21.6370 C   0  0  0  0  0  0  0  0  0  0  0  0
    7.0423   -2.4414   20.7777 H   0  0  0  0  0  0  0  0  0  0  0  0
    5.5546   -1.8962   21.5955 H   0  0  0  0  0  0  0  0  0  0  0  0
    6.9742   -2.4081   22.5444 H   0  0  0  0  0  0  0  0  0  0  0  0
    5.5748    1.0056   20.2293 C   0  0  0  0  0  0  0  0  0  0  0  0
    4.9744    1.2039   21.1170 H   0  0  0  0  0  0  0  0  0  0  0  0
    5.1778    1.5201   18.9943 C   0  0  0  0  0  0  0  0  0  0  0  0
    4.2718    2.1058   18.8966 H   0  0  0  0  0  0  0  0  0  0  0  0
  1  2  1  0
  2  3  2  0
  3  4  1  0
  4  5  1  0
  4  6  2  0
  6  7  1  0
  7  8  1  0
  8  9  1  0
  8 10  1  0
 10 11  2  0
 10 12  1  0
 12 13  2  0
 12 14  2  0
 12 15  1  0
 15 16  2  0
 16 17  1  0
 16 18  1  0
 18 19  1  0
 18 20  2  0
 20 21  1  0
 20 22  1  0
 22 23  1  0
 22 24  2  0
 24 25  1  0
  7 26  1  0
 26 27  1  0
 26 28  1  0
 26 29  1  0
  7 30  1  0
 30 31  1  0
 30 32  1  0
 30 33  1  0
  6 34  1  0
 34 35  1  0
 34 36  2  0
 36 37  1  0
 36  2  1  0
 24 15  1  0
M  END
>  <cnnaffinity>  (1) 
-5.34037

>  <filename>  (1) 
CC(C)(NC(=O)S(=O)(=O)c1ccccc1)c1cccnc1

$$$$
