
     RDKit          3D

 41 42  0  0  0  0  0  0  0  0999 V2000
    5.9741   -2.8917   20.5079 C   0  0  0  0  0  0  0  0  0  0  0  0
    6.5428   -1.9485   21.5694 C   0  0  0  0  0  0  0  0  0  0  0  0
    7.3290   -2.7447   22.6221 C   0  0  0  0  0  0  0  0  0  0  0  0
    7.5502   -2.1584   23.5209 H   0  0  0  0  0  0  0  0  0  0  0  0
    8.2754   -3.0945   22.1966 H   0  0  0  0  0  0  0  0  0  0  0  0
    6.7692   -3.6292   22.9555 H   0  0  0  0  0  0  0  0  0  0  0  0
    7.3464   -0.7412   20.9880 C   0  0  0  0  0  0  0  0  0  0  0  0
    7.7351    0.2594   22.1340 C   0  0  0  0  0  0  0  0  0  0  0  0
    9.1545    0.1480   22.5870 N   0  0  0  0  0  4  0  0  0  0  0  0
   10.1524    0.8093   21.6633 C   0  0  0  0  0  0  0  0  0  0  0  0
   11.5542    0.4903   22.1196 C   0  0  0  0  0  0  0  0  0  0  0  0
   12.2484   -0.6490   21.6758 C   0  0  0  0  0  0  0  0  0  0  0  0
   13.5560   -0.8753   22.1236 C   0  0  0  0  0  0  0  0  0  0  0  0
   14.1987   -0.0724   22.9854 N   0  0  0  0  0  0  0  0  0  0  0  0
   13.5295    1.0068   23.4159 C   0  0  0  0  0  0  0  0  0  0  0  0
   12.2282    1.3297   23.0191 C   0  0  0  0  0  0  0  0  0  0  0  0
   11.7600    2.2294   23.4116 H   0  0  0  0  0  0  0  0  0  0  0  0
   14.0477    1.6608   24.1079 H   0  0  0  0  0  0  0  0  0  0  0  0
   14.1090   -1.7415   21.7673 H   0  0  0  0  0  0  0  0  0  0  0  0
   11.7944   -1.3479   20.9772 H   0  0  0  0  0  0  0  0  0  0  0  0
    9.9752    0.4458   20.6497 H   0  0  0  0  0  0  0  0  0  0  0  0
    9.9911    1.8920   21.6521 H   0  0  0  0  0  0  0  0  0  0  0  0
    9.4333   -0.8643   22.6408 H   0  0  0  0  0  0  0  0  0  0  0  0
    9.3302    0.5523   23.5379 H   0  0  0  0  0  0  0  0  0  0  0  0
    7.0777    0.1057   22.9936 H   0  0  0  0  0  0  0  0  0  0  0  0
    7.5350    1.2847   21.7995 H   0  0  0  0  0  0  0  0  0  0  0  0
    6.6088   -0.0036   19.8564 C   0  0  0  0  0  0  0  0  0  0  0  0
    5.3991    0.6734   20.0858 C   0  0  0  0  0  0  0  0  0  0  0  0
    4.7679    1.3407   19.0318 C   0  0  0  0  0  0  0  0  0  0  0  0
    5.3797    1.3282   17.7748 C   0  0  0  0  0  0  0  0  0  0  0  0
    6.5301    0.6912   17.5200 N   0  0  0  0  0  0  0  0  0  0  0  0
    7.1173    0.0493   18.5392 C   0  0  0  0  0  0  0  0  0  0  0  0
    8.0622   -0.4400   18.2958 H   0  0  0  0  0  0  0  0  0  0  0  0
    4.9220    1.8555   16.9390 H   0  0  0  0  0  0  0  0  0  0  0  0
    3.8383    1.8827   19.1761 H   0  0  0  0  0  0  0  0  0  0  0  0
    4.9631    0.7020   21.0861 H   0  0  0  0  0  0  0  0  0  0  0  0
    8.2651   -1.1673   20.5584 H   0  0  0  0  0  0  0  0  0  0  0  0
    5.6932   -1.4972   22.0681 H   0  0  0  0  0  0  0  0  0  0  0  0
    5.2618   -3.5997   20.9437 H   0  0  0  0  0  0  0  0  0  0  0  0
    6.7621   -3.4846   20.0393 H   0  0  0  0  0  0  0  0  0  0  0  0
    5.4498   -2.3495   19.7148 H   0  0  0  0  0  0  0  0  0  0  0  0
  1  2  1  0
  2  3  1  0
  3  4  1  0
  3  5  1  0
  3  6  1  0
  2  7  1  0
  7  8  1  0
  8  9  1  0
  9 10  1  0
 10 11  1  0
 11 12  2  0
 12 13  1  0
 13 14  2  0
 14 15  1  0
 15 16  2  0
 16 17  1  0
 15 18  1  0
 13 19  1  0
 12 20  1  0
 10 21  1  0
 10 22  1  0
  9 23  1  0
  9 24  1  0
  8 25  1  0
  8 26  1  0
  7 27  1  0
 27 28  2  0
 28 29  1  0
 29 30  2  0
 30 31  1  0
 31 32  2  0
 32 33  1  0
 30 34  1  0
 29 35  1  0
 28 36  1  0
  7 37  1  0
  2 38  1  0
  1 39  1  0
  1 40  1  0
  1 41  1  0
 16 11  1  0
 32 27  1  0
M  CHG  1   9   1
M  END
>  <cnnaffinity>  (1) 
-5.28776

>  <filename>  (1) 
CC(C)C(C[NH2+]Cc1ccncc1)c1cccnc1

$$$$
