
     RDKit          3D

 49 51  0  0  0  0  0  0  0  0999 V2000
    8.1503    1.1439   24.5517 C   0  0  0  0  0  0  0  0  0  0  0  0
    7.3478    1.5145   23.3046 C   0  0  0  0  0  0  0  0  0  0  0  0
    8.2192    1.5363   22.0387 C   0  0  0  0  0  0  0  0  0  0  0  0
    8.5982    0.1452   21.5133 C   0  0  0  0  0  0  0  0  0  0  0  0
    7.4205   -0.7043   20.9939 C   0  0  0  0  0  0  0  0  0  0  0  0
    6.6458   -0.0105   19.8997 C   0  0  0  0  0  0  0  0  0  0  0  0
    5.4366    0.6509   20.1539 C   0  0  0  0  0  0  0  0  0  0  0  0
    4.8024    1.3160   19.1011 C   0  0  0  0  0  0  0  0  0  0  0  0
    5.3970    1.2977   17.8341 C   0  0  0  0  0  0  0  0  0  0  0  0
    6.5614    0.6859   17.5734 N   0  0  0  0  0  0  0  0  0  0  0  0
    7.1614    0.0647   18.5945 C   0  0  0  0  0  0  0  0  0  0  0  0
    8.1121   -0.4169   18.3710 H   0  0  0  0  0  0  0  0  0  0  0  0
    4.9141    1.7868   16.9903 H   0  0  0  0  0  0  0  0  0  0  0  0
    3.8694    1.8479   19.2510 H   0  0  0  0  0  0  0  0  0  0  0  0
    5.0133    0.6421   21.1657 H   0  0  0  0  0  0  0  0  0  0  0  0
    6.7386   -0.9572   21.8184 H   0  0  0  0  0  0  0  0  0  0  0  0
    7.8103   -1.6598   20.6177 H   0  0  0  0  0  0  0  0  0  0  0  0
    9.1230   -0.4122   22.3008 H   0  0  0  0  0  0  0  0  0  0  0  0
    9.3174    0.2665   20.6949 H   0  0  0  0  0  0  0  0  0  0  0  0
    9.1355    2.1097   22.2323 H   0  0  0  0  0  0  0  0  0  0  0  0
    7.6911    2.1009   21.2596 H   0  0  0  0  0  0  0  0  0  0  0  0
    6.6398    2.8359   23.5010 N   0  0  0  0  0  4  0  0  0  0  0  0
    7.5316    4.0181   23.7623 C   0  0  0  0  0  0  0  0  0  0  0  0
    6.7202    5.3125   23.8546 C   0  0  0  0  0  0  0  0  0  0  0  0
    5.7571    5.3447   24.9640 N   0  0  0  0  0  0  0  0  0  0  0  0
    4.4198    4.9796   24.8497 C   0  0  0  0  0  0  0  0  0  0  0  0
    3.8751    4.7450   23.7968 O   0  0  0  0  0  0  0  0  0  0  0  0
    3.8822    4.8527   26.2354 C   0  0  0  0  0  0  0  0  0  0  0  0
    2.6108    4.5092   26.6959 C   0  0  0  0  0  0  0  0  0  0  0  0
    2.4164    4.4626   28.0803 C   0  0  0  0  0  0  0  0  0  0  0  0
    3.4747    4.7459   28.9736 C   0  0  0  0  0  0  0  0  0  0  0  0
    4.7474    5.0787   28.4989 C   0  0  0  0  0  0  0  0  0  0  0  0
    4.9283    5.1234   27.1166 C   0  0  0  0  0  0  0  0  0  0  0  0
    6.1382    5.4235   26.2974 C   0  0  0  0  0  0  0  0  0  0  0  0
    7.2670    5.6716   26.6565 O   0  0  0  0  0  0  0  0  0  0  0  0
    5.5700    5.2950   29.1794 H   0  0  0  0  0  0  0  0  0  0  0  0
    3.2968    4.7027   30.0452 H   0  0  0  0  0  0  0  0  0  0  0  0
    1.4367    4.2060   28.4754 H   0  0  0  0  0  0  0  0  0  0  0  0
    1.8014    4.2898   26.0003 H   0  0  0  0  0  0  0  0  0  0  0  0
    6.1782    5.4598   22.9190 H   0  0  0  0  0  0  0  0  0  0  0  0
    7.4122    6.1503   23.9600 H   0  0  0  0  0  0  0  0  0  0  0  0
    8.0814    3.8991   24.6991 H   0  0  0  0  0  0  0  0  0  0  0  0
    8.2850    4.1047   22.9731 H   0  0  0  0  0  0  0  0  0  0  0  0
    6.0386    3.0384   22.6585 H   0  0  0  0  0  0  0  0  0  0  0  0
    5.9918    2.7403   24.3187 H   0  0  0  0  0  0  0  0  0  0  0  0
    6.5528    0.7759   23.1787 H   0  0  0  0  0  0  0  0  0  0  0  0
    8.4560    0.0966   24.5170 H   0  0  0  0  0  0  0  0  0  0  0  0
    9.0610    1.7462   24.6507 H   0  0  0  0  0  0  0  0  0  0  0  0
    7.5638    1.2863   25.4650 H   0  0  0  0  0  0  0  0  0  0  0  0
  1  2  1  0
  2  3  1  0
  3  4  1  0
  4  5  1  0
  5  6  1  0
  6  7  2  0
  7  8  1  0
  8  9  2  0
  9 10  1  0
 10 11  2  0
 11 12  1  0
  9 13  1  0
  8 14  1  0
  7 15  1  0
  5 16  1  0
  5 17  1  0
  4 18  1  0
  4 19  1  0
  3 20  1  0
  3 21  1  0
  2 22  1  0
 22 23  1  0
 23 24  1  0
 24 25  1  0
 25 26  1  0
 26 27  2  0
 26 28  1  0
 28 29  2  0
 29 30  1  0
 30 31  2  0
 31 32  1  0
 32 33  2  0
 33 34  1  0
 34 35  2  0
 32 36  1  0
 31 37  1  0
 30 38  1  0
 29 39  1  0
 24 40  1  0
 24 41  1  0
 23 42  1  0
 23 43  1  0
 22 44  1  0
 22 45  1  0
  2 46  1  0
  1 47  1  0
  1 48  1  0
  1 49  1  0
 11  6  1  0
 34 25  1  0
 33 28  1  0
M  CHG  1  22   1
M  END
>  <cnnaffinity>  (1) 
-4.79212

>  <filename>  (1) 
CC(CCCc1cccnc1)[NH2+]CCN1C(=O)c2ccccc2C1=O

$$$$
