
     RDKit          3D

 38 40  0  0  0  0  0  0  0  0999 V2000
    5.2121    1.7992   16.8475 H   0  0  0  0  0  0  0  0  0  0  0  0
    5.6071    1.3311   17.7489 C   0  0  0  0  0  0  0  0  0  0  0  0
    6.7681    0.6735   17.6136 N   0  0  0  0  0  0  0  0  0  0  0  0
    7.2813    0.0946   18.7075 C   0  0  0  0  0  0  0  0  0  0  0  0
    8.2162   -0.4475   18.5551 H   0  0  0  0  0  0  0  0  0  0  0  0
    6.6542    0.1113   19.9557 C   0  0  0  0  0  0  0  0  0  0  0  0
    7.2132   -0.6621   21.0963 C   0  0  0  0  0  0  0  0  0  0  0  0
    6.4979   -1.3482   21.8117 O   0  0  0  0  0  0  0  0  0  0  0  0
    8.5553   -0.5320   21.2776 N   0  0  0  0  0  0  0  0  0  0  0  0
    9.0572    0.0419   20.6282 H   0  0  0  0  0  0  0  0  0  0  0  0
    9.3494   -1.3430   22.2247 C   0  0  0  0  0  0  0  0  0  0  0  0
   10.8376   -0.9394   22.1480 C   0  0  0  0  0  0  0  0  0  0  0  0
   11.8708   -1.8857   22.1588 C   0  0  0  0  0  0  0  0  0  0  0  0
   11.6309   -2.9400   22.1576 H   0  0  0  0  0  0  0  0  0  0  0  0
   13.2394   -1.5351   22.2015 C   0  0  0  0  0  0  0  0  0  0  0  0
   13.9910   -2.3224   22.1978 H   0  0  0  0  0  0  0  0  0  0  0  0
   13.6320   -0.2101   22.2953 C   0  0  0  0  0  0  0  0  0  0  0  0
   14.6759    0.0753   22.3872 H   0  0  0  0  0  0  0  0  0  0  0  0
   12.6099    0.7550   22.2767 C   0  0  0  0  0  0  0  0  0  0  0  0
   11.2322    0.4300   22.1904 C   0  0  0  0  0  0  0  0  0  0  0  0
   10.5323    1.6949   22.1907 C   0  0  0  0  0  0  0  0  0  0  0  0
    9.4585    1.8236   22.1691 H   0  0  0  0  0  0  0  0  0  0  0  0
   11.4686    2.6887   22.2681 C   0  0  0  0  0  0  0  0  0  0  0  0
   11.3578    3.7691   22.2982 H   0  0  0  0  0  0  0  0  0  0  0  0
   12.7196    2.1165   22.3215 N   0  0  0  0  0  0  0  0  0  0  0  0
   13.6094    2.5903   22.3638 H   0  0  0  0  0  0  0  0  0  0  0  0
    9.1524   -2.8154   21.8239 C   0  0  0  0  0  0  0  0  0  0  0  0
    9.6160   -3.4834   22.5541 H   0  0  0  0  0  0  0  0  0  0  0  0
    9.5937   -2.9788   20.8367 H   0  0  0  0  0  0  0  0  0  0  0  0
    8.0866   -3.0319   21.7662 H   0  0  0  0  0  0  0  0  0  0  0  0
    8.8341   -1.1326   23.6625 C   0  0  0  0  0  0  0  0  0  0  0  0
    7.7742   -1.3793   23.7026 H   0  0  0  0  0  0  0  0  0  0  0  0
    9.3889   -1.7699   24.3607 H   0  0  0  0  0  0  0  0  0  0  0  0
    8.9614   -0.0883   23.9681 H   0  0  0  0  0  0  0  0  0  0  0  0
    5.4242    0.7734   20.0793 C   0  0  0  0  0  0  0  0  0  0  0  0
    4.8947    0.7803   21.0349 H   0  0  0  0  0  0  0  0  0  0  0  0
    4.9019    1.4086   18.9567 C   0  0  0  0  0  0  0  0  0  0  0  0
    3.9728    1.9654   19.0013 H   0  0  0  0  0  0  0  0  0  0  0  0
  1  2  1  0
  2  3  2  0
  3  4  1  0
  4  5  1  0
  4  6  2  0
  6  7  1  0
  7  8  2  0
  7  9  1  0
  9 10  1  0
  9 11  1  0
 11 12  1  0
 12 13  2  0
 13 14  1  0
 13 15  1  0
 15 16  1  0
 15 17  2  0
 17 18  1  0
 17 19  1  0
 19 20  2  0
 20 21  1  0
 21 22  1  0
 21 23  2  0
 23 24  1  0
 23 25  1  0
 25 26  1  0
 11 27  1  0
 27 28  1  0
 27 29  1  0
 27 30  1  0
 11 31  1  0
 31 32  1  0
 31 33  1  0
 31 34  1  0
  6 35  1  0
 35 36  1  0
 35 37  2  0
 37 38  1  0
 37  2  1  0
 20 12  1  0
 25 19  1  0
M  END
>  <cnnaffinity>  (1) 
-5.86427

>  <filename>  (1) 
CC(C)(NC(=O)c1cccnc1)c1cccc2[nH]ccc12

$$$$
