
     RDKit          3D

 45 48  0  0  0  0  0  0  0  0999 V2000
    9.8412   -3.6568   23.3007 C   0  0  0  0  0  0  0  0  0  0  0  0
    9.9216   -2.4975   22.2906 C   0  0  0  0  0  0  0  0  0  0  0  0
   11.0635   -1.5523   22.6951 C   0  0  0  0  0  0  0  0  0  0  0  0
   10.8896   -1.1442   23.7011 H   0  0  0  0  0  0  0  0  0  0  0  0
   11.1767   -0.7262   21.9878 H   0  0  0  0  0  0  0  0  0  0  0  0
   12.0076   -2.1123   22.7071 H   0  0  0  0  0  0  0  0  0  0  0  0
    8.6489   -1.7735   22.0571 N   0  0  0  0  0  0  0  0  0  0  0  0
    8.3889   -1.3048   20.8097 N   0  0  0  0  0  0  0  0  0  0  0  0
    7.2634   -0.6295   20.9610 C   0  0  0  0  0  0  0  0  0  0  0  0
    6.5869    0.0613   19.8584 C   0  0  0  0  0  0  0  0  0  0  0  0
    5.3649    0.7367   20.0309 C   0  0  0  0  0  0  0  0  0  0  0  0
    4.7998    1.3681   18.9259 C   0  0  0  0  0  0  0  0  0  0  0  0
    5.4644    1.3066   17.6959 C   0  0  0  0  0  0  0  0  0  0  0  0
    6.6231    0.6542   17.5164 N   0  0  0  0  0  0  0  0  0  0  0  0
    7.1665    0.0501   18.5775 C   0  0  0  0  0  0  0  0  0  0  0  0
    8.1059   -0.4726   18.3966 H   0  0  0  0  0  0  0  0  0  0  0  0
    5.0488    1.7970   16.8177 H   0  0  0  0  0  0  0  0  0  0  0  0
    3.8653    1.9140   18.9993 H   0  0  0  0  0  0  0  0  0  0  0  0
    4.8764    0.7608   21.0084 H   0  0  0  0  0  0  0  0  0  0  0  0
    6.7863   -0.6296   22.2322 N   0  0  0  0  0  0  0  0  0  0  0  0
    7.6706   -1.3480   22.8977 C   0  0  0  0  0  0  0  0  0  0  0  0
    7.6950   -1.7009   24.3690 C   0  0  0  0  0  0  0  0  0  0  0  0
    6.7336   -1.0445   25.2542 N   0  0  0  0  0  0  0  0  0  0  0  0
    7.1304    0.1190   25.9099 C   0  0  0  0  0  0  0  0  0  0  0  0
    8.2618    0.5593   25.8530 O   0  0  0  0  0  0  0  0  0  0  0  0
    6.0576    0.7755   26.7782 C   0  0  0  0  0  0  0  0  0  0  0  0
    4.7237    0.6635   26.2758 O   0  0  0  0  0  0  0  0  0  0  0  0
    4.3935   -0.5791   25.7906 C   0  0  0  0  0  0  0  0  0  0  0  0
    3.0442   -0.9186   25.7302 C   0  0  0  0  0  0  0  0  0  0  0  0
    2.6482   -2.1534   25.2036 C   0  0  0  0  0  0  0  0  0  0  0  0
    3.6207   -3.0559   24.7669 C   0  0  0  0  0  0  0  0  0  0  0  0
    3.1243   -4.5698   24.0672 Cl  0  0  0  0  0  0  0  0  0  0  0  0
    4.9755   -2.7361   24.8402 C   0  0  0  0  0  0  0  0  0  0  0  0
    5.3797   -1.4722   25.2993 C   0  0  0  0  0  0  0  0  0  0  0  0
    5.7015   -3.4649   24.5091 H   0  0  0  0  0  0  0  0  0  0  0  0
    1.6010   -2.4203   25.1301 H   0  0  0  0  0  0  0  0  0  0  0  0
    2.3333   -0.1804   26.0946 H   0  0  0  0  0  0  0  0  0  0  0  0
    6.1299    0.3281   27.7798 H   0  0  0  0  0  0  0  0  0  0  0  0
    6.2997    1.8352   26.8379 H   0  0  0  0  0  0  0  0  0  0  0  0
    8.6938   -1.4528   24.7348 H   0  0  0  0  0  0  0  0  0  0  0  0
    7.5665   -2.7813   24.4621 H   0  0  0  0  0  0  0  0  0  0  0  0
   10.1348   -2.9016   21.3018 H   0  0  0  0  0  0  0  0  0  0  0  0
   10.8600   -3.9908   23.5297 H   0  0  0  0  0  0  0  0  0  0  0  0
    9.2624   -4.5147   22.9387 H   0  0  0  0  0  0  0  0  0  0  0  0
    9.4329   -3.3501   24.2600 H   0  0  0  0  0  0  0  0  0  0  0  0
  1  2  1  0
  2  3  1  0
  3  4  1  0
  3  5  1  0
  3  6  1  0
  2  7  1  0
  7  8  1  0
  8  9  2  0
  9 10  1  0
 10 11  2  0
 11 12  1  0
 12 13  2  0
 13 14  1  0
 14 15  2  0
 15 16  1  0
 13 17  1  0
 12 18  1  0
 11 19  1  0
  9 20  1  0
 20 21  2  0
 21 22  1  0
 22 23  1  0
 23 24  1  0
 24 25  2  0
 24 26  1  0
 26 27  1  0
 27 28  1  0
 28 29  2  0
 29 30  1  0
 30 31  2  0
 31 32  1  0
 31 33  1  0
 33 34  2  0
 33 35  1  0
 30 36  1  0
 29 37  1  0
 26 38  1  0
 26 39  1  0
 22 40  1  0
 22 41  1  0
  2 42  1  0
  1 43  1  0
  1 44  1  0
  1 45  1  0
 21  7  1  0
 34 23  1  0
 15 10  1  0
 34 28  1  0
M  END
>  <cnnaffinity>  (1) 
-5.80666

>  <filename>  (1) 
CC(C)n1nc(-c2cccnc2)nc1CN1C(=O)COc2ccc(Cl)cc21

$$$$
