
     RDKit          3D

 41 44  0  0  0  0  0  0  0  0999 V2000
   11.8702    2.9483   21.3505 C   0  0  0  0  0  0  0  0  0  0  0  0
   11.5815    1.6431   22.0984 C   0  0  0  0  0  0  0  0  0  0  0  0
   12.1744    1.6673   23.5107 C   0  0  0  0  0  0  0  0  0  0  0  0
   13.2482    1.8786   23.4395 H   0  0  0  0  0  0  0  0  0  0  0  0
   11.7265    2.4464   24.1365 H   0  0  0  0  0  0  0  0  0  0  0  0
   12.0600    0.6990   24.0054 H   0  0  0  0  0  0  0  0  0  0  0  0
   10.1463    1.2994   22.0803 N   0  0  0  0  0  0  0  0  0  0  0  0
    9.7194    0.2859   21.2770 N   0  0  0  0  0  0  0  0  0  0  0  0
    8.4266    0.2410   21.5045 C   0  0  0  0  0  0  0  0  0  0  0  0
    7.4936   -0.7287   20.8307 C   0  0  0  0  0  0  0  0  0  0  0  0
    6.6791   -0.0972   19.7055 C   0  0  0  0  0  0  0  0  0  0  0  0
    5.5014    0.6004   20.0032 C   0  0  0  0  0  0  0  0  0  0  0  0
    4.8468    1.2980   18.9869 C   0  0  0  0  0  0  0  0  0  0  0  0
    5.3978    1.2832   17.7043 C   0  0  0  0  0  0  0  0  0  0  0  0
    6.5082    0.5996   17.3862 N   0  0  0  0  0  0  0  0  0  0  0  0
    7.1197   -0.0733   18.3688 C   0  0  0  0  0  0  0  0  0  0  0  0
    8.0280   -0.6048   18.0790 H   0  0  0  0  0  0  0  0  0  0  0  0
    4.9316    1.8486   16.8994 H   0  0  0  0  0  0  0  0  0  0  0  0
    3.9467    1.8699   19.1793 H   0  0  0  0  0  0  0  0  0  0  0  0
    5.1285    0.6191   21.0289 H   0  0  0  0  0  0  0  0  0  0  0  0
    6.8246   -1.0989   21.6175 H   0  0  0  0  0  0  0  0  0  0  0  0
    8.0834   -1.5754   20.4674 H   0  0  0  0  0  0  0  0  0  0  0  0
    7.9818    1.1550   22.3997 N   0  0  0  0  0  0  0  0  0  0  0  0
    9.0779    1.8152   22.7390 C   0  0  0  0  0  0  0  0  0  0  0  0
    9.0584    2.9103   23.7576 C   0  0  0  0  0  0  0  0  0  0  0  0
    8.9424    2.5422   25.1295 C   0  0  0  0  0  0  0  0  0  0  0  0
    8.8464    3.4838   26.1342 C   0  0  0  0  0  0  0  0  0  0  0  0
    8.8336    4.8397   25.7689 C   0  0  0  0  0  0  0  0  0  0  0  0
    8.6689    6.0999   26.4301 C   0  0  0  0  0  0  0  0  0  0  0  0
    8.6335    7.0829   25.5803 N   0  0  0  0  0  0  0  0  0  0  0  0
    8.7792    6.5330   24.3049 O   0  0  0  0  0  0  0  0  0  0  0  0
    8.8960    5.1972   24.4218 C   0  0  0  0  0  0  0  0  0  0  0  0
    9.0060    4.2608   23.3835 C   0  0  0  0  0  0  0  0  0  0  0  0
    8.9655    4.5742   22.3444 H   0  0  0  0  0  0  0  0  0  0  0  0
    8.5747    6.2882   27.4947 H   0  0  0  0  0  0  0  0  0  0  0  0
    8.7379    3.1738   27.1653 H   0  0  0  0  0  0  0  0  0  0  0  0
    8.8818    1.4866   25.3734 H   0  0  0  0  0  0  0  0  0  0  0  0
   12.0517    0.8234   21.5470 H   0  0  0  0  0  0  0  0  0  0  0  0
   11.3874    3.8086   21.8248 H   0  0  0  0  0  0  0  0  0  0  0  0
   12.9445    3.1406   21.3702 H   0  0  0  0  0  0  0  0  0  0  0  0
   11.5515    2.8917   20.3061 H   0  0  0  0  0  0  0  0  0  0  0  0
  1  2  1  0
  2  3  1  0
  3  4  1  0
  3  5  1  0
  3  6  1  0
  2  7  1  0
  7  8  1  0
  8  9  2  0
  9 10  1  0
 10 11  1  0
 11 12  2  0
 12 13  1  0
 13 14  2  0
 14 15  1  0
 15 16  2  0
 16 17  1  0
 14 18  1  0
 13 19  1  0
 12 20  1  0
 10 21  1  0
 10 22  1  0
  9 23  1  0
 23 24  2  0
 24 25  1  0
 25 26  2  0
 26 27  1  0
 27 28  2  0
 28 29  1  0
 29 30  2  0
 30 31  1  0
 31 32  1  0
 32 33  2  0
 33 34  1  0
 29 35  1  0
 27 36  1  0
 26 37  1  0
  2 38  1  0
  1 39  1  0
  1 40  1  0
  1 41  1  0
 24  7  1  0
 33 25  1  0
 16 11  1  0
 32 28  1  0
M  END
>  <cnnaffinity>  (1) 
-6.16338

>  <filename>  (1) 
CC(C)n1nc(Cc2cccnc2)nc1-c1ccc2cnoc2c1

$$$$
