
     RDKit          3D

 48 52  0  0  0  0  0  0  0  0999 V2000
   12.0705   -0.7257   21.7143 C   0  0  0  0  0  0  0  0  0  0  0  0
   12.2188    0.6763   22.3224 C   0  0  0  0  0  0  0  0  0  0  0  0
   11.3014    1.7305   21.6602 C   0  0  0  0  0  0  0  0  0  0  0  0
    9.8782    1.4713   21.8550 N   0  0  0  0  0  0  0  0  0  0  0  0
    9.3388    0.5382   21.0378 N   0  0  0  0  0  0  0  0  0  0  0  0
    8.1933    0.2432   21.6174 C   0  0  0  0  0  0  0  0  0  0  0  0
    7.2746   -0.7346   20.9504 C   0  0  0  0  0  0  0  0  0  0  0  0
    6.5277   -0.1022   19.7815 C   0  0  0  0  0  0  0  0  0  0  0  0
    5.3534    0.6238   20.0103 C   0  0  0  0  0  0  0  0  0  0  0  0
    4.7799    1.3365   18.9555 C   0  0  0  0  0  0  0  0  0  0  0  0
    5.3965    1.2928   17.7019 C   0  0  0  0  0  0  0  0  0  0  0  0
    6.5083    0.5861   17.4503 N   0  0  0  0  0  0  0  0  0  0  0  0
    7.0494   -0.0876   18.4737 C   0  0  0  0  0  0  0  0  0  0  0  0
    7.9619   -0.6396   18.2448 H   0  0  0  0  0  0  0  0  0  0  0  0
    4.9774    1.8430   16.8615 H   0  0  0  0  0  0  0  0  0  0  0  0
    3.8854    1.9327   19.0944 H   0  0  0  0  0  0  0  0  0  0  0  0
    4.9014    0.6349   21.0045 H   0  0  0  0  0  0  0  0  0  0  0  0
    7.9037   -1.5619   20.6075 H   0  0  0  0  0  0  0  0  0  0  0  0
    6.5863   -1.1231   21.7069 H   0  0  0  0  0  0  0  0  0  0  0  0
    7.9666    0.8947   22.7755 N   0  0  0  0  0  0  0  0  0  0  0  0
    9.0259    1.6961   22.8940 C   0  0  0  0  0  0  0  0  0  0  0  0
    9.1649    2.6838   23.9935 C   0  0  0  0  0  0  0  0  0  0  0  0
    8.7761    2.3867   25.3232 C   0  0  0  0  0  0  0  0  0  0  0  0
    8.7183    3.3874   26.3092 C   0  0  0  0  0  0  0  0  0  0  0  0
    8.9917    4.6920   26.1078 N   0  0  0  0  0  0  0  0  0  0  0  0
    9.3617    4.9378   24.8511 C   0  0  0  0  0  0  0  0  0  0  0  0
    9.5374    4.0258   23.7831 C   0  0  0  0  0  0  0  0  0  0  0  0
    9.9815    4.7007   22.6637 N   0  0  0  0  0  0  0  0  0  0  0  0
   10.0099    5.9572   23.0132 C   0  0  0  0  0  0  0  0  0  0  0  0
    9.6652    6.1591   24.3184 N   0  0  0  0  0  0  0  0  0  0  0  0
    9.5731    7.0133   24.8328 H   0  0  0  0  0  0  0  0  0  0  0  0
   10.2661    6.7709   22.3440 H   0  0  0  0  0  0  0  0  0  0  0  0
    8.4116    3.1151   27.3162 H   0  0  0  0  0  0  0  0  0  0  0  0
    8.5006    1.3723   25.5912 H   0  0  0  0  0  0  0  0  0  0  0  0
   11.4419    1.7004   20.5793 H   0  0  0  0  0  0  0  0  0  0  0  0
   11.4987    2.7501   21.9985 H   0  0  0  0  0  0  0  0  0  0  0  0
   12.0102    0.6161   23.8292 C   0  0  0  0  0  0  0  0  0  0  0  0
   12.1592    1.8287   24.6990 C   0  0  0  0  0  0  0  0  0  0  0  0
   13.1670    0.7091   24.7705 C   0  0  0  0  0  0  0  0  0  0  0  0
   14.1440    0.8491   24.3132 H   0  0  0  0  0  0  0  0  0  0  0  0
   13.1984    0.0943   25.6631 H   0  0  0  0  0  0  0  0  0  0  0  0
   12.4429    2.7760   24.2385 H   0  0  0  0  0  0  0  0  0  0  0  0
   11.4491    1.9209   25.5217 H   0  0  0  0  0  0  0  0  0  0  0  0
   11.1790   -0.0254   24.1197 H   0  0  0  0  0  0  0  0  0  0  0  0
   13.2367    1.0339   22.1259 H   0  0  0  0  0  0  0  0  0  0  0  0
   12.0785   -0.7266   20.6210 H   0  0  0  0  0  0  0  0  0  0  0  0
   12.8622   -1.3937   22.0712 H   0  0  0  0  0  0  0  0  0  0  0  0
   11.1007   -1.1513   21.9815 H   0  0  0  0  0  0  0  0  0  0  0  0
  1  2  1  0
  2  3  1  0
  3  4  1  0
  4  5  1  0
  5  6  2  0
  6  7  1  0
  7  8  1  0
  8  9  2  0
  9 10  1  0
 10 11  2  0
 11 12  1  0
 12 13  2  0
 13 14  1  0
 11 15  1  0
 10 16  1  0
  9 17  1  0
  7 18  1  0
  7 19  1  0
  6 20  1  0
 20 21  2  0
 21 22  1  0
 22 23  2  0
 23 24  1  0
 24 25  2  0
 25 26  1  0
 26 27  2  0
 27 28  1  0
 28 29  2  0
 29 30  1  0
 30 31  1  0
 29 32  1  0
 24 33  1  0
 23 34  1  0
  3 35  1  0
  3 36  1  0
  2 37  1  0
 37 38  1  0
 38 39  1  0
 39 40  1  0
 39 41  1  0
 38 42  1  0
 38 43  1  0
 37 44  1  0
  2 45  1  0
  1 46  1  0
  1 47  1  0
  1 48  1  0
 21  4  1  0
 27 22  1  0
 39 37  1  0
 13  8  1  0
 30 26  1  0
M  END
>  <cnnaffinity>  (1) 
-6.85108

>  <filename>  (1) 
CC(Cn1nc(Cc2cccnc2)nc1-c1ccnc2[nH]cnc12)C1CC1

$$$$
