
     RDKit          3D

 38 40  0  0  0  0  0  0  0  0999 V2000
    8.4460   -6.2539   26.6356 C   0  0  0  0  0  0  0  0  0  0  0  0
    8.9474   -4.8341   26.8377 C   0  0  0  0  0  0  0  0  0  0  0  0
    7.9246   -4.1062   27.3777 F   0  0  0  0  0  0  0  0  0  0  0  0
    9.9271   -4.8636   27.7952 F   0  0  0  0  0  0  0  0  0  0  0  0
    9.4991   -4.1348   25.5514 C   0  0  0  0  0  0  0  0  0  0  0  0
   10.7299   -4.4679   25.1614 N   0  0  0  0  0  0  0  0  0  0  0  0
   11.2280   -3.8202   24.1051 C   0  0  0  0  0  0  0  0  0  0  0  0
   10.5153   -2.8781   23.4082 C   0  0  0  0  0  0  0  0  0  0  0  0
    9.2244   -2.6455   23.8727 C   0  0  0  0  0  0  0  0  0  0  0  0
    8.4212   -1.7217   23.2577 N   0  0  0  0  0  0  0  0  0  0  0  0
    8.9263   -0.5274   22.5848 C   0  0  0  0  0  0  0  0  0  0  0  0
    8.6256   -0.5942   21.0807 C   0  0  0  0  0  0  0  0  0  0  0  0
    7.1733   -0.7496   20.8406 N   0  0  0  0  0  0  0  0  0  0  0  0
    6.5615   -0.0393   19.7583 C   0  0  0  0  0  0  0  0  0  0  0  0
    5.3324    0.6082   19.9555 C   0  0  0  0  0  0  0  0  0  0  0  0
    4.8030    1.3581   18.9028 C   0  0  0  0  0  0  0  0  0  0  0  0
    5.4914    1.4132   17.6861 C   0  0  0  0  0  0  0  0  0  0  0  0
    6.6560    0.7799   17.4684 N   0  0  0  0  0  0  0  0  0  0  0  0
    7.1752    0.0875   18.4905 C   0  0  0  0  0  0  0  0  0  0  0  0
    8.1320   -0.3995   18.3061 H   0  0  0  0  0  0  0  0  0  0  0  0
    5.0863    1.9661   16.8434 H   0  0  0  0  0  0  0  0  0  0  0  0
    3.8648    1.8937   19.0141 H   0  0  0  0  0  0  0  0  0  0  0  0
    4.8277    0.5231   20.9196 H   0  0  0  0  0  0  0  0  0  0  0  0
    6.4362   -1.6717   21.5934 C   0  0  0  0  0  0  0  0  0  0  0  0
    5.3963   -2.1828   21.2284 O   0  0  0  0  0  0  0  0  0  0  0  0
    7.0074   -2.0244   22.9883 C   0  0  0  0  0  0  0  0  0  0  0  0
    6.3443   -1.5192   23.7017 H   0  0  0  0  0  0  0  0  0  0  0  0
    6.8062   -3.0918   23.1057 H   0  0  0  0  0  0  0  0  0  0  0  0
    8.9560    0.3383   20.6129 H   0  0  0  0  0  0  0  0  0  0  0  0
    9.1848   -1.4244   20.6149 H   0  0  0  0  0  0  0  0  0  0  0  0
   10.0028   -0.4196   22.7525 H   0  0  0  0  0  0  0  0  0  0  0  0
    8.4412    0.3724   22.9973 H   0  0  0  0  0  0  0  0  0  0  0  0
    8.6834   -3.3131   24.8901 N   0  0  0  0  0  0  0  0  0  0  0  0
   10.8888   -2.3789   22.5314 H   0  0  0  0  0  0  0  0  0  0  0  0
   12.2454   -4.0613   23.8154 H   0  0  0  0  0  0  0  0  0  0  0  0
    8.1540   -6.6332   27.6198 H   0  0  0  0  0  0  0  0  0  0  0  0
    7.5719   -6.2667   25.9787 H   0  0  0  0  0  0  0  0  0  0  0  0
    9.2382   -6.8823   26.2211 H   0  0  0  0  0  0  0  0  0  0  0  0
  1  2  1  0
  2  3  1  0
  2  4  1  0
  2  5  1  0
  5  6  2  0
  6  7  1  0
  7  8  2  0
  8  9  1  0
  9 10  1  0
 10 11  1  0
 11 12  1  0
 12 13  1  0
 13 14  1  0
 14 15  2  0
 15 16  1  0
 16 17  2  0
 17 18  1  0
 18 19  2  0
 19 20  1  0
 17 21  1  0
 16 22  1  0
 15 23  1  0
 13 24  1  0
 24 25  2  0
 24 26  1  0
 26 27  1  0
 26 28  1  0
 12 29  1  0
 12 30  1  0
 11 31  1  0
 11 32  1  0
  9 33  2  0
  8 34  1  0
  7 35  1  0
  1 36  1  0
  1 37  1  0
  1 38  1  0
 33  5  1  0
 26 10  1  0
 19 14  1  0
M  END
>  <cnnaffinity>  (1) 
-5.4363

>  <filename>  (1) 
CC(F)(F)c1nccc(N2CCN(c3cccnc3)C(=O)C2)n1

$$$$
