
     RDKit          3D

 38 39  0  0  0  0  0  0  0  0999 V2000
    5.3936    5.9855   24.1371 C   0  0  0  0  0  0  0  0  0  0  0  0
    6.0282    5.0895   25.1766 C   0  0  0  0  0  0  0  0  0  0  0  0
    6.1853    5.8106   26.3291 F   0  0  0  0  0  0  0  0  0  0  0  0
    7.3266    4.8179   24.7666 F   0  0  0  0  0  0  0  0  0  0  0  0
    5.2673    3.8279   25.5009 C   0  0  0  0  0  0  0  0  0  0  0  0
    4.2597    3.8320   26.4775 C   0  0  0  0  0  0  0  0  0  0  0  0
    3.5046    2.6764   26.6705 C   0  0  0  0  0  0  0  0  0  0  0  0
    3.7630    1.5708   25.8647 C   0  0  0  0  0  0  0  0  0  0  0  0
    4.6815    1.5750   24.9023 N   0  0  0  0  0  0  0  0  0  0  0  0
    5.4382    2.6473   24.7509 C   0  0  0  0  0  0  0  0  0  0  0  0
    6.3598    2.5704   23.7360 N   0  0  0  0  0  0  0  0  0  0  0  0
    7.0446    1.3806   23.5065 C   0  0  0  0  0  0  0  0  0  0  0  0
    7.0056    0.3691   24.1570 O   0  0  0  0  0  0  0  0  0  0  0  0
    7.8447    1.5665   22.3993 N   0  0  0  0  0  0  0  0  0  0  0  0
    8.4326    0.4076   21.7289 C   0  0  0  0  0  0  0  0  0  0  0  0
    7.4210   -0.5479   21.0627 C   0  0  0  0  0  0  0  0  0  0  0  0
    6.6465    0.0506   19.9127 C   0  0  0  0  0  0  0  0  0  0  0  0
    5.4145    0.6844   20.1252 C   0  0  0  0  0  0  0  0  0  0  0  0
    4.7891    1.3303   19.0556 C   0  0  0  0  0  0  0  0  0  0  0  0
    5.4084    1.3078   17.8018 C   0  0  0  0  0  0  0  0  0  0  0  0
    6.5609    0.6652   17.5593 N   0  0  0  0  0  0  0  0  0  0  0  0
    7.1462    0.0509   18.5971 C   0  0  0  0  0  0  0  0  0  0  0  0
    8.0683   -0.4846   18.3700 H   0  0  0  0  0  0  0  0  0  0  0  0
    4.9513    1.8168   16.9536 H   0  0  0  0  0  0  0  0  0  0  0  0
    3.8453    1.8490   19.1823 H   0  0  0  0  0  0  0  0  0  0  0  0
    4.9560    0.6597   21.1182 H   0  0  0  0  0  0  0  0  0  0  0  0
    6.7255   -0.8952   21.8364 H   0  0  0  0  0  0  0  0  0  0  0  0
    7.9754   -1.4246   20.7099 H   0  0  0  0  0  0  0  0  0  0  0  0
    8.9991   -0.1599   22.4751 H   0  0  0  0  0  0  0  0  0  0  0  0
    9.1529    0.7784   20.9887 H   0  0  0  0  0  0  0  0  0  0  0  0
    7.4219    2.2594   21.8036 H   0  0  0  0  0  0  0  0  0  0  0  0
    6.9863    3.3477   23.6972 H   0  0  0  0  0  0  0  0  0  0  0  0
    3.2202    0.6358   26.0085 H   0  0  0  0  0  0  0  0  0  0  0  0
    2.7277    2.6234   27.4200 H   0  0  0  0  0  0  0  0  0  0  0  0
    4.0524    4.7148   27.0868 H   0  0  0  0  0  0  0  0  0  0  0  0
    5.3281    5.4653   23.1795 H   0  0  0  0  0  0  0  0  0  0  0  0
    5.9881    6.8952   24.0173 H   0  0  0  0  0  0  0  0  0  0  0  0
    4.3900    6.2632   24.4640 H   0  0  0  0  0  0  0  0  0  0  0  0
  1  2  1  0
  2  3  1  0
  2  4  1  0
  2  5  1  0
  5  6  2  0
  6  7  1  0
  7  8  2  0
  8  9  1  0
  9 10  2  0
 10 11  1  0
 11 12  1  0
 12 13  2  0
 12 14  1  0
 14 15  1  0
 15 16  1  0
 16 17  1  0
 17 18  2  0
 18 19  1  0
 19 20  2  0
 20 21  1  0
 21 22  2  0
 22 23  1  0
 20 24  1  0
 19 25  1  0
 18 26  1  0
 16 27  1  0
 16 28  1  0
 15 29  1  0
 15 30  1  0
 14 31  1  0
 11 32  1  0
  8 33  1  0
  7 34  1  0
  6 35  1  0
  1 36  1  0
  1 37  1  0
  1 38  1  0
 10  5  1  0
 22 17  1  0
M  END
>  <cnnaffinity>  (1) 
-4.90838

>  <filename>  (1) 
CC(F)(F)c1cccnc1NC(=O)NCCc1cccnc1

$$$$
