
     RDKit          3D

 39 40  0  0  0  0  0  0  0  0999 V2000
    6.6275    3.1341   27.3381 C   0  0  0  0  0  0  0  0  0  0  0  0
    6.4296    1.6854   26.9218 C   0  0  0  0  0  0  0  0  0  0  0  0
    5.8883    1.0379   28.0181 F   0  0  0  0  0  0  0  0  0  0  0  0
    5.4835    1.6034   25.9447 F   0  0  0  0  0  0  0  0  0  0  0  0
    7.7280    0.9519   26.5075 C   0  0  0  0  0  0  0  0  0  0  0  0
    8.4876    0.3397   27.5100 C   0  0  0  0  0  0  0  0  0  0  0  0
    9.7140   -0.2329   27.1818 C   0  0  0  0  0  0  0  0  0  0  0  0
   10.1380   -0.1759   25.8567 C   0  0  0  0  0  0  0  0  0  0  0  0
    9.2692    0.3551   24.8932 C   0  0  0  0  0  0  0  0  0  0  0  0
    9.5982    0.2782   23.3998 C   0  0  0  0  0  0  0  0  0  0  0  0
    9.4008   -1.0894   22.7002 N   0  0  0  0  0  4  0  0  0  0  0  0
    7.9942   -1.6350   22.9482 C   0  0  0  0  0  0  0  0  0  0  0  0
    6.9813   -0.7833   22.1951 C   0  0  0  0  0  0  0  0  0  0  0  0
    7.4674   -0.6804   20.8509 O   0  0  0  0  0  0  0  0  0  0  0  0
    6.7016   -0.0205   19.9343 C   0  0  0  0  0  0  0  0  0  0  0  0
    5.4829    0.6205   20.1807 C   0  0  0  0  0  0  0  0  0  0  0  0
    4.8509    1.2801   19.1173 C   0  0  0  0  0  0  0  0  0  0  0  0
    5.4403    1.2831   17.8534 C   0  0  0  0  0  0  0  0  0  0  0  0
    6.6013    0.6485   17.6039 N   0  0  0  0  0  0  0  0  0  0  0  0
    7.2075    0.0209   18.6160 C   0  0  0  0  0  0  0  0  0  0  0  0
    8.1513   -0.4832   18.4126 H   0  0  0  0  0  0  0  0  0  0  0  0
    4.9798    1.8066   17.0153 H   0  0  0  0  0  0  0  0  0  0  0  0
    3.9155    1.8046   19.2634 H   0  0  0  0  0  0  0  0  0  0  0  0
    5.0476    0.6256   21.1794 H   0  0  0  0  0  0  0  0  0  0  0  0
    5.9979   -1.2584   22.1916 H   0  0  0  0  0  0  0  0  0  0  0  0
    6.8828    0.2196   22.6385 H   0  0  0  0  0  0  0  0  0  0  0  0
    7.7643   -1.6092   24.0138 H   0  0  0  0  0  0  0  0  0  0  0  0
    7.9161   -2.6677   22.6108 H   0  0  0  0  0  0  0  0  0  0  0  0
    9.4037   -0.9473   21.6521 H   0  0  0  0  0  0  0  0  0  0  0  0
   10.1495   -1.7805   22.9497 H   0  0  0  0  0  0  0  0  0  0  0  0
    8.9175    0.9880   22.9306 H   0  0  0  0  0  0  0  0  0  0  0  0
   10.6139    0.6242   23.2339 H   0  0  0  0  0  0  0  0  0  0  0  0
    8.1038    0.9456   25.2154 N   0  0  0  0  0  0  0  0  0  0  0  0
   11.1081   -0.5481   25.5532 H   0  0  0  0  0  0  0  0  0  0  0  0
   10.3215   -0.6687   27.9742 H   0  0  0  0  0  0  0  0  0  0  0  0
    8.1223    0.3243   28.5289 H   0  0  0  0  0  0  0  0  0  0  0  0
    7.0522    3.7255   26.5231 H   0  0  0  0  0  0  0  0  0  0  0  0
    7.2966    3.1739   28.2043 H   0  0  0  0  0  0  0  0  0  0  0  0
    5.6501    3.5419   27.6191 H   0  0  0  0  0  0  0  0  0  0  0  0
  1  2  1  0
  2  3  1  0
  2  4  1  0
  2  5  1  0
  5  6  2  0
  6  7  1  0
  7  8  2  0
  8  9  1  0
  9 10  1  0
 10 11  1  0
 11 12  1  0
 12 13  1  0
 13 14  1  0
 14 15  1  0
 15 16  2  0
 16 17  1  0
 17 18  2  0
 18 19  1  0
 19 20  2  0
 20 21  1  0
 18 22  1  0
 17 23  1  0
 16 24  1  0
 13 25  1  0
 13 26  1  0
 12 27  1  0
 12 28  1  0
 11 29  1  0
 11 30  1  0
 10 31  1  0
 10 32  1  0
  9 33  2  0
  8 34  1  0
  7 35  1  0
  6 36  1  0
  1 37  1  0
  1 38  1  0
  1 39  1  0
 33  5  1  0
 20 15  1  0
M  CHG  1  11   1
M  END
>  <cnnaffinity>  (1) 
-4.80092

>  <filename>  (1) 
CC(F)(F)c1cccc(C[NH2+]CCOc2cccnc2)n1

$$$$
