
     RDKit          3D

 41 44  0  0  0  0  0  0  0  0999 V2000
   11.0800   -0.4515   23.6762 C   0  0  0  0  0  0  0  0  0  0  0  0
   11.2626   -1.4346   22.5347 C   0  0  0  0  0  0  0  0  0  0  0  0
   11.5623   -0.7009   21.3922 F   0  0  0  0  0  0  0  0  0  0  0  0
   10.0642   -2.3401   22.2426 C   0  0  0  0  0  0  0  0  0  0  0  0
    8.7899   -1.6523   21.9215 C   0  0  0  0  0  0  0  0  0  0  0  0
    8.4787   -1.1862   20.7364 N   0  0  0  0  0  0  0  0  0  0  0  0
    7.2702   -0.5993   20.9438 C   0  0  0  0  0  0  0  0  0  0  0  0
    6.5430    0.0719   19.8895 C   0  0  0  0  0  0  0  0  0  0  0  0
    5.3194    0.7305   20.0827 C   0  0  0  0  0  0  0  0  0  0  0  0
    4.7607    1.3575   18.9732 C   0  0  0  0  0  0  0  0  0  0  0  0
    5.4365    1.3038   17.7441 C   0  0  0  0  0  0  0  0  0  0  0  0
    6.5923    0.6491   17.5570 N   0  0  0  0  0  0  0  0  0  0  0  0
    7.1243    0.0482   18.6221 C   0  0  0  0  0  0  0  0  0  0  0  0
    8.0571   -0.4937   18.4910 H   0  0  0  0  0  0  0  0  0  0  0  0
    5.0372    1.8112   16.8691 H   0  0  0  0  0  0  0  0  0  0  0  0
    3.8289    1.9063   19.0454 H   0  0  0  0  0  0  0  0  0  0  0  0
    4.8406    0.7464   21.0673 H   0  0  0  0  0  0  0  0  0  0  0  0
    6.8186   -0.6760   22.1739 N   0  0  0  0  0  0  0  0  0  0  0  0
    7.7620   -1.4317   22.7819 N   0  0  0  0  0  0  0  0  0  0  0  0
    7.6974   -1.6778   24.1725 C   0  0  0  0  0  0  0  0  0  0  0  0
    7.7948   -0.5999   25.0243 C   0  0  0  0  0  0  0  0  0  0  0  0
    7.9297   -0.8087   26.4158 C   0  0  0  0  0  0  0  0  0  0  0  0
    7.8786   -2.0858   26.9258 C   0  0  0  0  0  0  0  0  0  0  0  0
    7.6296   -3.2001   26.0799 C   0  0  0  0  0  0  0  0  0  0  0  0
    7.4360   -4.5216   26.5731 C   0  0  0  0  0  0  0  0  0  0  0  0
    7.2290   -5.5546   25.6960 C   0  0  0  0  0  0  0  0  0  0  0  0
    7.1906   -5.4041   24.3438 N   0  0  0  0  0  0  0  0  0  0  0  0
    7.3486   -4.1802   23.8632 C   0  0  0  0  0  0  0  0  0  0  0  0
    7.5635   -3.0146   24.6688 C   0  0  0  0  0  0  0  0  0  0  0  0
    7.3123   -4.0640   22.7817 H   0  0  0  0  0  0  0  0  0  0  0  0
    7.0794   -6.5709   26.0643 H   0  0  0  0  0  0  0  0  0  0  0  0
    7.4334   -4.6963   27.6427 H   0  0  0  0  0  0  0  0  0  0  0  0
    8.0660   -2.2833   27.9693 H   0  0  0  0  0  0  0  0  0  0  0  0
    8.0760    0.0506   27.0649 H   0  0  0  0  0  0  0  0  0  0  0  0
    7.7646    0.4041   24.6123 H   0  0  0  0  0  0  0  0  0  0  0  0
    9.9167   -3.0360   23.0771 H   0  0  0  0  0  0  0  0  0  0  0  0
   10.2957   -2.8958   21.3385 H   0  0  0  0  0  0  0  0  0  0  0  0
   12.1224   -2.0985   22.7029 H   0  0  0  0  0  0  0  0  0  0  0  0
   12.0099    0.1130   23.8070 H   0  0  0  0  0  0  0  0  0  0  0  0
   10.2681    0.2511   23.4533 H   0  0  0  0  0  0  0  0  0  0  0  0
   10.8266   -0.9668   24.6099 H   0  0  0  0  0  0  0  0  0  0  0  0
  1  2  1  0
  2  3  1  0
  2  4  1  0
  4  5  1  0
  5  6  2  0
  6  7  1  0
  7  8  1  0
  8  9  2  0
  9 10  1  0
 10 11  2  0
 11 12  1  0
 12 13  2  0
 13 14  1  0
 11 15  1  0
 10 16  1  0
  9 17  1  0
  7 18  2  0
 18 19  1  0
 19 20  1  0
 20 21  2  0
 21 22  1  0
 22 23  2  0
 23 24  1  0
 24 25  2  0
 25 26  1  0
 26 27  2  0
 27 28  1  0
 28 29  2  0
 28 30  1  0
 26 31  1  0
 25 32  1  0
 23 33  1  0
 22 34  1  0
 21 35  1  0
  4 36  1  0
  4 37  1  0
  2 38  1  0
  1 39  1  0
  1 40  1  0
  1 41  1  0
 19  5  1  0
 29 20  1  0
 13  8  1  0
 29 24  1  0
M  END
>  <cnnaffinity>  (1) 
-6.23243

>  <filename>  (1) 
CC(F)Cc1nc(-c2cccnc2)nn1-c1cccc2ccncc12

$$$$
