
     RDKit          3D

 39 41  0  0  0  0  0  0  0  0999 V2000
   10.6082   -6.0916   26.0971 C   0  0  0  0  0  0  0  0  0  0  0  0
    9.2019   -6.0418   25.5183 C   0  0  0  0  0  0  0  0  0  0  0  0
    8.4014   -6.8855   26.2244 F   0  0  0  0  0  0  0  0  0  0  0  0
    9.2341   -6.5360   24.2417 F   0  0  0  0  0  0  0  0  0  0  0  0
    8.5676   -4.6209   25.5319 C   0  0  0  0  0  0  0  0  0  0  0  0
    8.1641   -4.1262   26.7079 N   0  0  0  0  0  0  0  0  0  0  0  0
    7.6608   -2.8836   26.6953 C   0  0  0  0  0  0  0  0  0  0  0  0
    7.6338   -2.1006   25.5726 C   0  0  0  0  0  0  0  0  0  0  0  0
    8.1199   -2.7123   24.4194 C   0  0  0  0  0  0  0  0  0  0  0  0
    8.1944   -2.0477   23.2419 N   0  0  0  0  0  0  0  0  0  0  0  0
    7.8700   -2.7869   22.0207 C   0  0  0  0  0  0  0  0  0  0  0  0
    7.8927   -1.8971   20.7642 C   0  0  0  0  0  0  0  0  0  0  0  0
    7.3608   -0.5532   20.9686 N   0  0  0  0  0  0  0  0  0  0  0  0
    6.6802    0.0739   19.9228 C   0  0  0  0  0  0  0  0  0  0  0  0
    5.4631    0.7390   20.1504 C   0  0  0  0  0  0  0  0  0  0  0  0
    4.8187    1.3537   19.0725 C   0  0  0  0  0  0  0  0  0  0  0  0
    5.4080    1.3135   17.8062 C   0  0  0  0  0  0  0  0  0  0  0  0
    6.5622    0.6742   17.5578 N   0  0  0  0  0  0  0  0  0  0  0  0
    7.1619    0.0624   18.5892 C   0  0  0  0  0  0  0  0  0  0  0  0
    8.0886   -0.4664   18.3656 H   0  0  0  0  0  0  0  0  0  0  0  0
    4.9283    1.7999   16.9571 H   0  0  0  0  0  0  0  0  0  0  0  0
    3.8756    1.8671   19.2160 H   0  0  0  0  0  0  0  0  0  0  0  0
    5.0456    0.7442   21.1562 H   0  0  0  0  0  0  0  0  0  0  0  0
    7.5240    0.0975   22.2697 C   0  0  0  0  0  0  0  0  0  0  0  0
    8.5747   -0.6403   23.1102 C   0  0  0  0  0  0  0  0  0  0  0  0
    8.6683   -0.1695   24.0916 H   0  0  0  0  0  0  0  0  0  0  0  0
    9.5634   -0.5620   22.6259 H   0  0  0  0  0  0  0  0  0  0  0  0
    7.8301    1.1429   22.1284 H   0  0  0  0  0  0  0  0  0  0  0  0
    6.5766    0.0964   22.8344 H   0  0  0  0  0  0  0  0  0  0  0  0
    7.2498   -2.3786   20.0233 H   0  0  0  0  0  0  0  0  0  0  0  0
    8.9262   -1.8681   20.3796 H   0  0  0  0  0  0  0  0  0  0  0  0
    6.8844   -3.2702   22.1181 H   0  0  0  0  0  0  0  0  0  0  0  0
    8.5917   -3.6040   21.8948 H   0  0  0  0  0  0  0  0  0  0  0  0
    8.5057   -3.9818   24.3749 N   0  0  0  0  0  0  0  0  0  0  0  0
    7.2266   -1.1008   25.5503 H   0  0  0  0  0  0  0  0  0  0  0  0
    7.2877   -2.4836   27.6353 H   0  0  0  0  0  0  0  0  0  0  0  0
   10.6721   -5.5283   27.0360 H   0  0  0  0  0  0  0  0  0  0  0  0
   11.2980   -5.6710   25.3590 H   0  0  0  0  0  0  0  0  0  0  0  0
   10.8786   -7.1358   26.2915 H   0  0  0  0  0  0  0  0  0  0  0  0
  1  2  1  0
  2  3  1  0
  2  4  1  0
  2  5  1  0
  5  6  2  0
  6  7  1  0
  7  8  2  0
  8  9  1  0
  9 10  1  0
 10 11  1  0
 11 12  1  0
 12 13  1  0
 13 14  1  0
 14 15  2  0
 15 16  1  0
 16 17  2  0
 17 18  1  0
 18 19  2  0
 19 20  1  0
 17 21  1  0
 16 22  1  0
 15 23  1  0
 13 24  1  0
 24 25  1  0
 25 26  1  0
 25 27  1  0
 24 28  1  0
 24 29  1  0
 12 30  1  0
 12 31  1  0
 11 32  1  0
 11 33  1  0
  9 34  2  0
  8 35  1  0
  7 36  1  0
  1 37  1  0
  1 38  1  0
  1 39  1  0
 34  5  1  0
 25 10  1  0
 19 14  1  0
M  END
>  <cnnaffinity>  (1) 
-5.03623

>  <filename>  (1) 
CC(F)(F)c1nccc(N2CCN(c3cccnc3)CC2)n1

$$$$
