
     RDKit          3D

 50 53  0  0  0  0  0  0  0  0999 V2000
   11.8393    2.4370   21.0253 C   0  0  0  0  0  0  0  0  0  0  0  0
   11.3939    1.9544   22.3934 C   0  0  0  0  0  0  0  0  0  0  0  0
    9.9724    1.5604   22.3300 N   0  0  0  0  0  0  0  0  0  0  0  0
    9.5777    0.6676   21.3969 N   0  0  0  0  0  0  0  0  0  0  0  0
    8.3367    0.3833   21.7386 C   0  0  0  0  0  0  0  0  0  0  0  0
    7.5362   -0.6058   20.9324 C   0  0  0  0  0  0  0  0  0  0  0  0
    6.7448    0.0019   19.7751 C   0  0  0  0  0  0  0  0  0  0  0  0
    5.5367    0.6609   20.0413 C   0  0  0  0  0  0  0  0  0  0  0  0
    4.8700    1.3100   19.0013 C   0  0  0  0  0  0  0  0  0  0  0  0
    5.4305    1.2766   17.7218 C   0  0  0  0  0  0  0  0  0  0  0  0
    6.5618    0.6165   17.4297 N   0  0  0  0  0  0  0  0  0  0  0  0
    7.1852   -0.0065   18.4382 C   0  0  0  0  0  0  0  0  0  0  0  0
    8.0970   -0.5413   18.1683 H   0  0  0  0  0  0  0  0  0  0  0  0
    4.9470    1.7960   16.8954 H   0  0  0  0  0  0  0  0  0  0  0  0
    3.9419    1.8464   19.1677 H   0  0  0  0  0  0  0  0  0  0  0  0
    5.1354    0.6666   21.0570 H   0  0  0  0  0  0  0  0  0  0  0  0
    8.2266   -1.3749   20.5671 H   0  0  0  0  0  0  0  0  0  0  0  0
    6.8459   -1.0956   21.6247 H   0  0  0  0  0  0  0  0  0  0  0  0
    7.8934    1.0501   22.8325 N   0  0  0  0  0  0  0  0  0  0  0  0
    8.9355    1.8153   23.1686 C   0  0  0  0  0  0  0  0  0  0  0  0
    9.0360    2.8567   24.2509 C   0  0  0  0  0  0  0  0  0  0  0  0
    8.3147    2.6860   25.4748 C   0  0  0  0  0  0  0  0  0  0  0  0
    8.3884    3.6384   26.4848 C   0  0  0  0  0  0  0  0  0  0  0  0
    9.1867    4.7732   26.2131 C   0  0  0  0  0  0  0  0  0  0  0  0
    9.5040    5.9062   26.9018 N   0  0  0  0  0  0  0  0  0  0  0  0
   10.3418    6.7189   26.2182 N   0  0  0  0  0  0  0  0  0  0  0  0
   10.5786    6.1131   25.0717 C   0  0  0  0  0  0  0  0  0  0  0  0
    9.8752    4.8710   24.9775 C   0  0  0  0  0  0  0  0  0  0  0  0
    9.8330    3.9141   24.0235 N   0  0  0  0  0  0  0  0  0  0  0  0
   11.2293    6.5691   24.3408 H   0  0  0  0  0  0  0  0  0  0  0  0
    9.1465    6.2001   27.7960 H   0  0  0  0  0  0  0  0  0  0  0  0
    7.8598    3.5215   27.4284 H   0  0  0  0  0  0  0  0  0  0  0  0
    7.7153    1.7881   25.5983 H   0  0  0  0  0  0  0  0  0  0  0  0
   12.2974    0.8783   23.0958 C   0  0  0  0  0  0  0  0  0  0  0  0
   11.9111    0.8669   24.5954 C   0  0  0  0  0  0  0  0  0  0  0  0
   11.9586    1.8772   25.0254 H   0  0  0  0  0  0  0  0  0  0  0  0
   10.8902    0.5012   24.7437 H   0  0  0  0  0  0  0  0  0  0  0  0
   12.5743    0.2175   25.1778 H   0  0  0  0  0  0  0  0  0  0  0  0
   13.7811    1.2997   22.9668 C   0  0  0  0  0  0  0  0  0  0  0  0
   13.9229    2.3847   22.9409 H   0  0  0  0  0  0  0  0  0  0  0  0
   14.3651    0.9168   23.8055 H   0  0  0  0  0  0  0  0  0  0  0  0
   14.2447    0.8979   22.0599 H   0  0  0  0  0  0  0  0  0  0  0  0
   12.1182   -0.5255   22.4884 C   0  0  0  0  0  0  0  0  0  0  0  0
   11.1635   -0.9691   22.7832 H   0  0  0  0  0  0  0  0  0  0  0  0
   12.9317   -1.1888   22.8012 H   0  0  0  0  0  0  0  0  0  0  0  0
   12.1107   -0.4841   21.3941 H   0  0  0  0  0  0  0  0  0  0  0  0
   11.4289    2.8208   23.0423 H   0  0  0  0  0  0  0  0  0  0  0  0
   12.0304    1.6051   20.3575 H   0  0  0  0  0  0  0  0  0  0  0  0
   12.7241    3.0757   21.1035 H   0  0  0  0  0  0  0  0  0  0  0  0
   11.0456    3.0212   20.5750 H   0  0  0  0  0  0  0  0  0  0  0  0
  1  2  1  0
  2  3  1  0
  3  4  1  0
  4  5  2  0
  5  6  1  0
  6  7  1  0
  7  8  2  0
  8  9  1  0
  9 10  2  0
 10 11  1  0
 11 12  2  0
 12 13  1  0
 10 14  1  0
  9 15  1  0
  8 16  1  0
  6 17  1  0
  6 18  1  0
  5 19  1  0
 19 20  2  0
 20 21  1  0
 21 22  2  0
 22 23  1  0
 23 24  2  0
 24 25  1  0
 25 26  1  0
 26 27  2  0
 27 28  1  0
 28 29  2  0
 27 30  1  0
 25 31  1  0
 23 32  1  0
 22 33  1  0
  2 34  1  0
 34 35  1  0
 35 36  1  0
 35 37  1  0
 35 38  1  0
 34 39  1  0
 39 40  1  0
 39 41  1  0
 39 42  1  0
 34 43  1  0
 43 44  1  0
 43 45  1  0
 43 46  1  0
  2 47  1  0
  1 48  1  0
  1 49  1  0
  1 50  1  0
 20  3  1  0
 29 21  1  0
 12  7  1  0
 28 24  1  0
M  END
>  <cnnaffinity>  (1) 
-6.0313

>  <filename>  (1) 
CC(n1nc(Cc2cccnc2)nc1-c1ccc2[nH]ncc2n1)C(C)(C)C

$$$$
