
     RDKit          3D

 50 53  0  0  0  0  0  0  0  0999 V2000
   11.8429    2.4221   21.0728 C   0  0  0  0  0  0  0  0  0  0  0  0
   11.3945    1.9496   22.4399 C   0  0  0  0  0  0  0  0  0  0  0  0
    9.9747    1.5533   22.3627 N   0  0  0  0  0  0  0  0  0  0  0  0
    9.5824    0.6811   21.4092 N   0  0  0  0  0  0  0  0  0  0  0  0
    8.3416    0.3873   21.7398 C   0  0  0  0  0  0  0  0  0  0  0  0
    7.5555   -0.6041   20.9148 C   0  0  0  0  0  0  0  0  0  0  0  0
    6.7634    0.0071   19.7565 C   0  0  0  0  0  0  0  0  0  0  0  0
    5.5586    0.6724   20.0256 C   0  0  0  0  0  0  0  0  0  0  0  0
    4.8863    1.3142   18.9851 C   0  0  0  0  0  0  0  0  0  0  0  0
    5.4373    1.2688   17.7029 C   0  0  0  0  0  0  0  0  0  0  0  0
    6.5658    0.6050   17.4082 N   0  0  0  0  0  0  0  0  0  0  0  0
    7.1976   -0.0113   18.4163 C   0  0  0  0  0  0  0  0  0  0  0  0
    8.1080   -0.5472   18.1418 H   0  0  0  0  0  0  0  0  0  0  0  0
    4.9517    1.7844   16.8769 H   0  0  0  0  0  0  0  0  0  0  0  0
    3.9599    1.8521   19.1537 H   0  0  0  0  0  0  0  0  0  0  0  0
    5.1634    0.6871   21.0429 H   0  0  0  0  0  0  0  0  0  0  0  0
    6.8735   -1.1097   21.6062 H   0  0  0  0  0  0  0  0  0  0  0  0
    8.2632   -1.3580   20.5466 H   0  0  0  0  0  0  0  0  0  0  0  0
    7.8960    1.0314   22.8457 N   0  0  0  0  0  0  0  0  0  0  0  0
    8.9351    1.7960   23.2002 C   0  0  0  0  0  0  0  0  0  0  0  0
    8.9974    2.8472   24.2817 C   0  0  0  0  0  0  0  0  0  0  0  0
    8.1155    2.7992   25.3633 C   0  0  0  0  0  0  0  0  0  0  0  0
    8.1512    3.8681   26.2726 C   0  0  0  0  0  0  0  0  0  0  0  0
    9.0208    4.9512   26.0470 C   0  0  0  0  0  0  0  0  0  0  0  0
    9.8948    4.9104   24.9471 C   0  0  0  0  0  0  0  0  0  0  0  0
    9.9081    3.8560   24.1398 N   0  0  0  0  0  0  0  0  0  0  0  0
   10.5856    5.7223   24.7224 H   0  0  0  0  0  0  0  0  0  0  0  0
    8.7561    5.8386   27.0771 N   0  0  0  0  0  0  0  0  0  0  0  0
    7.7644    5.2680   27.8293 C   0  0  0  0  0  0  0  0  0  0  0  0
    7.3892    4.0994   27.3984 N   0  0  0  0  0  0  0  0  0  0  0  0
    7.3482    5.7819   28.6894 H   0  0  0  0  0  0  0  0  0  0  0  0
    9.0663    6.7938   27.1672 H   0  0  0  0  0  0  0  0  0  0  0  0
    7.4256    1.9759   25.4840 H   0  0  0  0  0  0  0  0  0  0  0  0
   12.2946    0.8639   23.1330 C   0  0  0  0  0  0  0  0  0  0  0  0
   12.0908   -0.5283   22.5080 C   0  0  0  0  0  0  0  0  0  0  0  0
   12.0608   -0.4792   21.4156 H   0  0  0  0  0  0  0  0  0  0  0  0
   11.1460   -0.9827   22.8145 H   0  0  0  0  0  0  0  0  0  0  0  0
   12.9029   -1.2021   22.7816 H   0  0  0  0  0  0  0  0  0  0  0  0
   11.9129    0.8470   24.6345 C   0  0  0  0  0  0  0  0  0  0  0  0
   11.9855    1.8596   25.0583 H   0  0  0  0  0  0  0  0  0  0  0  0
   10.8804    0.5048   24.7862 H   0  0  0  0  0  0  0  0  0  0  0  0
   12.5757    0.1829   25.2027 H   0  0  0  0  0  0  0  0  0  0  0  0
   13.7855    1.2659   22.9959 C   0  0  0  0  0  0  0  0  0  0  0  0
   14.2134    0.8890   22.0582 H   0  0  0  0  0  0  0  0  0  0  0  0
   14.3705    0.8292   23.8104 H   0  0  0  0  0  0  0  0  0  0  0  0
   13.9279    2.3536   23.0227 H   0  0  0  0  0  0  0  0  0  0  0  0
   11.4204    2.8121   23.0925 H   0  0  0  0  0  0  0  0  0  0  0  0
   12.7422    3.0341   21.1569 H   0  0  0  0  0  0  0  0  0  0  0  0
   12.0103    1.5805   20.4104 H   0  0  0  0  0  0  0  0  0  0  0  0
   11.0676    3.0329   20.6250 H   0  0  0  0  0  0  0  0  0  0  0  0
  1  2  1  0
  2  3  1  0
  3  4  1  0
  4  5  2  0
  5  6  1  0
  6  7  1  0
  7  8  2  0
  8  9  1  0
  9 10  2  0
 10 11  1  0
 11 12  2  0
 12 13  1  0
 10 14  1  0
  9 15  1  0
  8 16  1  0
  6 17  1  0
  6 18  1  0
  5 19  1  0
 19 20  2  0
 20 21  1  0
 21 22  2  0
 22 23  1  0
 23 24  2  0
 24 25  1  0
 25 26  2  0
 25 27  1  0
 24 28  1  0
 28 29  1  0
 29 30  2  0
 29 31  1  0
 28 32  1  0
 22 33  1  0
  2 34  1  0
 34 35  1  0
 35 36  1  0
 35 37  1  0
 35 38  1  0
 34 39  1  0
 39 40  1  0
 39 41  1  0
 39 42  1  0
 34 43  1  0
 43 44  1  0
 43 45  1  0
 43 46  1  0
  2 47  1  0
  1 48  1  0
  1 49  1  0
  1 50  1  0
 20  3  1  0
 26 21  1  0
 12  7  1  0
 30 23  1  0
M  END
>  <cnnaffinity>  (1) 
-6.36361

>  <filename>  (1) 
CC(n1nc(Cc2cccnc2)nc1-c1cc2nc[nH]c2cn1)C(C)(C)C

$$$$
