
     RDKit          3D

 40 42  0  0  0  0  0  0  0  0999 V2000
    7.7769   -3.1335   25.0431 C   0  0  0  0  0  0  0  0  0  0  0  0
    7.0751   -1.9434   24.4024 C   0  0  0  0  0  0  0  0  0  0  0  0
    7.2699   -0.7668   25.2731 N   0  0  0  0  0  0  0  0  0  0  0  0
    6.3523    0.2625   25.3255 C   0  0  0  0  0  0  0  0  0  0  0  0
    5.1542    0.0863   25.2801 O   0  0  0  0  0  0  0  0  0  0  0  0
    6.9843    1.6398   25.4139 C   0  0  0  0  0  0  0  0  0  0  0  0
    7.5105    2.1026   24.0496 C   0  0  0  0  0  0  0  0  0  0  0  0
    6.5934    2.6746   23.1605 C   0  0  0  0  0  0  0  0  0  0  0  0
    7.0601    3.2489   21.9156 C   0  0  0  0  0  0  0  0  0  0  0  0
    8.3730    3.2655   21.7202 C   0  0  0  0  0  0  0  0  0  0  0  0
   10.6399    1.7277   21.5253 Cl  0  0  0  0  0  0  0  0  0  0  0  0
    9.4273    2.7379   22.5456 C   0  0  0  0  0  0  0  0  0  0  0  0
    8.8446    1.9796   23.7031 C   0  0  0  0  0  0  0  0  0  0  0  0
    9.5270    1.3625   24.2701 H   0  0  0  0  0  0  0  0  0  0  0  0
   10.0957    3.5640   22.9101 H   0  0  0  0  0  0  0  0  0  0  0  0
    6.2974    3.6271   21.2105 H   0  0  0  0  0  0  0  0  0  0  0  0
    5.5378    2.7251   23.4145 H   0  0  0  0  0  0  0  0  0  0  0  0
    7.7904    1.6470   26.1534 H   0  0  0  0  0  0  0  0  0  0  0  0
    6.1988    2.3120   25.7661 H   0  0  0  0  0  0  0  0  0  0  0  0
    8.2219   -0.4461   25.3370 H   0  0  0  0  0  0  0  0  0  0  0  0
    7.5113   -1.6404   22.9660 C   0  0  0  0  0  0  0  0  0  0  0  0
    6.7220   -1.1094   22.0839 N   0  0  0  0  0  0  0  0  0  0  0  0
    7.4099   -0.7154   20.9598 C   0  0  0  0  0  0  0  0  0  0  0  0
    6.6997    0.0147   19.9051 C   0  0  0  0  0  0  0  0  0  0  0  0
    5.4862    0.6862   20.1318 C   0  0  0  0  0  0  0  0  0  0  0  0
    4.8680    1.3202   19.0568 C   0  0  0  0  0  0  0  0  0  0  0  0
    5.4898    1.2882   17.8034 C   0  0  0  0  0  0  0  0  0  0  0  0
    6.6573    0.6694   17.5771 N   0  0  0  0  0  0  0  0  0  0  0  0
    7.2416    0.0624   18.6130 C   0  0  0  0  0  0  0  0  0  0  0  0
    8.1922   -0.4215   18.3877 H   0  0  0  0  0  0  0  0  0  0  0  0
    5.0292    1.7739   16.9449 H   0  0  0  0  0  0  0  0  0  0  0  0
    3.9187    1.8314   19.1688 H   0  0  0  0  0  0  0  0  0  0  0  0
    5.0408    0.6842   21.1280 H   0  0  0  0  0  0  0  0  0  0  0  0
    8.7398   -1.0053   20.9679 C   0  0  0  0  0  0  0  0  0  0  0  0
    9.1717   -1.7775   22.4466 S   0  0  0  0  0  0  0  0  0  0  0  0
    9.4819   -0.7511   20.2236 H   0  0  0  0  0  0  0  0  0  0  0  0
    5.9931   -2.1150   24.3430 H   0  0  0  0  0  0  0  0  0  0  0  0
    7.3751   -3.2785   26.0501 H   0  0  0  0  0  0  0  0  0  0  0  0
    7.6113   -4.0501   24.4687 H   0  0  0  0  0  0  0  0  0  0  0  0
    8.8566   -2.9573   25.1181 H   0  0  0  0  0  0  0  0  0  0  0  0
  1  2  1  0
  2  3  1  0
  3  4  1  0
  4  5  2  0
  4  6  1  0
  6  7  1  0
  7  8  2  0
  8  9  1  0
  9 10  2  0
 10 11  1  0
 10 12  1  0
 12 13  2  0
 13 14  1  0
 12 15  1  0
  9 16  1  0
  8 17  1  0
  6 18  1  0
  6 19  1  0
  3 20  1  0
  2 21  1  0
 21 22  2  0
 22 23  1  0
 23 24  1  0
 24 25  2  0
 25 26  1  0
 26 27  2  0
 27 28  1  0
 28 29  2  0
 29 30  1  0
 27 31  1  0
 26 32  1  0
 25 33  1  0
 23 34  2  0
 34 35  1  0
 34 36  1  0
  2 37  1  0
  1 38  1  0
  1 39  1  0
  1 40  1  0
 13  7  1  0
 35 21  1  0
 29 24  1  0
M  END
>  <cnnaffinity>  (1) 
-5.6613

>  <filename>  (1) 
CC(NC(=O)Cc1ccc(Cl)cc1)c1nc(-c2cccnc2)cs1

$$$$
