
     RDKit          3D

 43 46  0  0  0  0  0  0  0  0999 V2000
   11.8819    2.4175   20.9955 C   0  0  0  0  0  0  0  0  0  0  0  0
   11.4753    1.7238   22.2898 C   0  0  0  0  0  0  0  0  0  0  0  0
   10.0507    1.3892   22.2425 N   0  0  0  0  0  0  0  0  0  0  0  0
    9.6112    0.4491   21.3722 N   0  0  0  0  0  0  0  0  0  0  0  0
    8.3482    0.2904   21.7289 C   0  0  0  0  0  0  0  0  0  0  0  0
    7.4451   -0.6511   20.9849 C   0  0  0  0  0  0  0  0  0  0  0  0
    6.6796   -0.0019   19.8374 C   0  0  0  0  0  0  0  0  0  0  0  0
    5.4683    0.6525   20.0900 C   0  0  0  0  0  0  0  0  0  0  0  0
    4.8230    1.3166   19.0469 C   0  0  0  0  0  0  0  0  0  0  0  0
    5.4118    1.2962   17.7799 C   0  0  0  0  0  0  0  0  0  0  0  0
    6.5560    0.6501   17.5061 N   0  0  0  0  0  0  0  0  0  0  0  0
    7.1598    0.0140   18.5168 C   0  0  0  0  0  0  0  0  0  0  0  0
    8.0797   -0.5219   18.2712 H   0  0  0  0  0  0  0  0  0  0  0  0
    4.9445    1.8108   16.9428 H   0  0  0  0  0  0  0  0  0  0  0  0
    3.8919    1.8484   19.2045 H   0  0  0  0  0  0  0  0  0  0  0  0
    5.0519    0.6317   21.0989 H   0  0  0  0  0  0  0  0  0  0  0  0
    6.7340   -1.0587   21.7124 H   0  0  0  0  0  0  0  0  0  0  0  0
    8.0662   -1.4748   20.6160 H   0  0  0  0  0  0  0  0  0  0  0  0
    7.9473    1.0635   22.7717 N   0  0  0  0  0  0  0  0  0  0  0  0
    9.0200    1.7906   23.0268 C   0  0  0  0  0  0  0  0  0  0  0  0
    9.1414    2.9025   23.9639 C   0  0  0  0  0  0  0  0  0  0  0  0
    8.7030    2.6523   25.2930 C   0  0  0  0  0  0  0  0  0  0  0  0
    8.7404    3.5480   26.2454 N   0  0  0  0  0  0  0  0  0  0  0  0
    9.2082    4.7913   25.9438 C   0  0  0  0  0  0  0  0  0  0  0  0
    9.2330    5.7471   26.9786 C   0  0  0  0  0  0  0  0  0  0  0  0
    9.7214    6.9900   26.6974 C   0  0  0  0  0  0  0  0  0  0  0  0
   10.1672    7.3611   25.4650 N   0  0  0  0  0  0  0  0  0  0  0  0
   10.1298    6.4823   24.4886 C   0  0  0  0  0  0  0  0  0  0  0  0
    9.6662    5.1482   24.6446 C   0  0  0  0  0  0  0  0  0  0  0  0
    9.6115    4.1588   23.6319 C   0  0  0  0  0  0  0  0  0  0  0  0
    9.9056    4.3942   22.6041 H   0  0  0  0  0  0  0  0  0  0  0  0
   10.4805    6.8219   23.5095 H   0  0  0  0  0  0  0  0  0  0  0  0
    9.7862    7.7603   27.4633 H   0  0  0  0  0  0  0  0  0  0  0  0
    8.8511    5.4515   27.9449 H   0  0  0  0  0  0  0  0  0  0  0  0
    8.3278    1.6610   25.5552 H   0  0  0  0  0  0  0  0  0  0  0  0
   12.3172    0.4618   22.6279 C   0  0  0  0  0  0  0  0  0  0  0  0
   12.0318   -0.6015   21.8751 F   0  0  0  0  0  0  0  0  0  0  0  0
   13.6276    0.7311   22.4495 F   0  0  0  0  0  0  0  0  0  0  0  0
   12.1695    0.1130   23.9212 F   0  0  0  0  0  0  0  0  0  0  0  0
   11.6361    2.3971   23.1343 H   0  0  0  0  0  0  0  0  0  0  0  0
   12.1278    1.6773   20.2519 H   0  0  0  0  0  0  0  0  0  0  0  0
   11.0478    2.9841   20.5931 H   0  0  0  0  0  0  0  0  0  0  0  0
   12.7300    3.0891   21.1335 H   0  0  0  0  0  0  0  0  0  0  0  0
  1  2  1  0
  2  3  1  0
  3  4  1  0
  4  5  2  0
  5  6  1  0
  6  7  1  0
  7  8  2  0
  8  9  1  0
  9 10  2  0
 10 11  1  0
 11 12  2  0
 12 13  1  0
 10 14  1  0
  9 15  1  0
  8 16  1  0
  6 17  1  0
  6 18  1  0
  5 19  1  0
 19 20  2  0
 20 21  1  0
 21 22  2  0
 22 23  1  0
 23 24  2  0
 24 25  1  0
 25 26  2  0
 26 27  1  0
 27 28  2  0
 28 29  1  0
 29 30  2  0
 30 31  1  0
 28 32  1  0
 26 33  1  0
 25 34  1  0
 22 35  1  0
  2 36  1  0
 36 37  1  0
 36 38  1  0
 36 39  1  0
  2 40  1  0
  1 41  1  0
  1 42  1  0
  1 43  1  0
 20  3  1  0
 30 21  1  0
 12  7  1  0
 29 24  1  0
M  END
>  <cnnaffinity>  (1) 
-6.21693

>  <filename>  (1) 
CC(n1nc(Cc2cccnc2)nc1-c1cnc2ccncc2c1)C(F)(F)F

$$$$
