
     RDKit          3D

 32 33  0  0  0  0  0  0  0  0999 V2000
    7.4842   -3.9829   24.0018 C   0  0  0  0  0  0  0  0  0  0  0  0
    7.1140   -2.5094   24.1361 C   0  0  0  0  0  0  0  0  0  0  0  0
    7.6072   -1.7784   22.9559 N   0  0  0  0  0  0  0  0  0  0  0  0
    6.8918   -1.7080   21.7956 C   0  0  0  0  0  0  0  0  0  0  0  0
    5.6416   -2.7005   21.3590 S   0  0  0  0  0  0  0  0  0  0  0  0
    7.3839   -0.6893   21.0240 N   0  0  0  0  0  0  0  0  0  0  0  0
    6.6959   -0.0250   19.9688 C   0  0  0  0  0  0  0  0  0  0  0  0
    5.4666    0.6078   20.1965 C   0  0  0  0  0  0  0  0  0  0  0  0
    4.8603    1.2657   19.1200 C   0  0  0  0  0  0  0  0  0  0  0  0
    5.4865    1.2541   17.8675 C   0  0  0  0  0  0  0  0  0  0  0  0
    6.6583    0.6400   17.6382 N   0  0  0  0  0  0  0  0  0  0  0  0
    7.2397    0.0211   18.6727 C   0  0  0  0  0  0  0  0  0  0  0  0
    8.1913   -0.4801   18.4996 H   0  0  0  0  0  0  0  0  0  0  0  0
    5.0227    1.7357   17.0093 H   0  0  0  0  0  0  0  0  0  0  0  0
    3.9188    1.7888   19.2395 H   0  0  0  0  0  0  0  0  0  0  0  0
    5.0314    0.5976   21.1976 H   0  0  0  0  0  0  0  0  0  0  0  0
    8.3457   -0.4408   21.2020 H   0  0  0  0  0  0  0  0  0  0  0  0
    8.0489   -0.8936   23.1594 H   0  0  0  0  0  0  0  0  0  0  0  0
    7.6078   -1.8541   25.4265 C   0  0  0  0  0  0  0  0  0  0  0  0
    8.9722   -1.7630   25.7822 C   0  0  0  0  0  0  0  0  0  0  0  0
    9.3456   -1.1058   26.9576 C   0  0  0  0  0  0  0  0  0  0  0  0
    8.4591   -0.5493   27.7930 N   0  0  0  0  0  0  0  0  0  0  0  0
    7.1738   -0.6847   27.5097 C   0  0  0  0  0  0  0  0  0  0  0  0
    6.0442   -0.0494   28.6610 Cl  0  0  0  0  0  0  0  0  0  0  0  0
    6.6912   -1.3460   26.3614 C   0  0  0  0  0  0  0  0  0  0  0  0
    5.3709   -1.5290   26.1904 F   0  0  0  0  0  0  0  0  0  0  0  0
   10.3842   -1.0214   27.2705 H   0  0  0  0  0  0  0  0  0  0  0  0
    9.7538   -2.2052   25.1706 H   0  0  0  0  0  0  0  0  0  0  0  0
    6.0200   -2.4438   24.1554 H   0  0  0  0  0  0  0  0  0  0  0  0
    7.1495   -4.5393   24.8820 H   0  0  0  0  0  0  0  0  0  0  0  0
    8.5671   -4.1059   23.8834 H   0  0  0  0  0  0  0  0  0  0  0  0
    6.9809   -4.3824   23.1158 H   0  0  0  0  0  0  0  0  0  0  0  0
  1  2  1  0
  2  3  1  0
  3  4  1  0
  4  5  2  0
  4  6  1  0
  6  7  1  0
  7  8  2  0
  8  9  1  0
  9 10  2  0
 10 11  1  0
 11 12  2  0
 12 13  1  0
 10 14  1  0
  9 15  1  0
  8 16  1  0
  6 17  1  0
  3 18  1  0
  2 19  1  0
 19 20  2  0
 20 21  1  0
 21 22  2  0
 22 23  1  0
 23 24  1  0
 23 25  2  0
 25 26  1  0
 21 27  1  0
 20 28  1  0
  2 29  1  0
  1 30  1  0
  1 31  1  0
  1 32  1  0
 12  7  1  0
 25 19  1  0
M  END
>  <cnnaffinity>  (1) 
-5.47069

>  <filename>  (1) 
CC(NC(=S)Nc1cccnc1)c1ccnc(Cl)c1F

$$$$
