
     RDKit          3D

 50 53  0  0  0  0  0  0  0  0999 V2000
    8.8327    2.1073   25.3994 C   0  0  0  0  0  0  0  0  0  0  0  0
    8.7802    2.8951   24.0899 C   0  0  0  0  0  0  0  0  0  0  0  0
    8.8250    1.9406   22.9638 N   0  0  0  0  0  0  0  0  0  0  0  0
    7.7779    1.1369   22.6629 N   0  0  0  0  0  0  0  0  0  0  0  0
    8.2721    0.3065   21.7641 C   0  0  0  0  0  0  0  0  0  0  0  0
    7.4105   -0.6763   21.0225 C   0  0  0  0  0  0  0  0  0  0  0  0
    6.6347   -0.0262   19.8693 C   0  0  0  0  0  0  0  0  0  0  0  0
    5.4234    0.6406   20.1128 C   0  0  0  0  0  0  0  0  0  0  0  0
    4.7855    1.3098   19.0640 C   0  0  0  0  0  0  0  0  0  0  0  0
    5.3891    1.2990   17.8051 C   0  0  0  0  0  0  0  0  0  0  0  0
    6.5422    0.6668   17.5407 N   0  0  0  0  0  0  0  0  0  0  0  0
    7.1427    0.0328   18.5565 C   0  0  0  0  0  0  0  0  0  0  0  0
    8.0915   -0.4467   18.3078 H   0  0  0  0  0  0  0  0  0  0  0  0
    4.9343    1.8337   16.9738 H   0  0  0  0  0  0  0  0  0  0  0  0
    3.8561    1.8554   19.2103 H   0  0  0  0  0  0  0  0  0  0  0  0
    4.9974    0.6561   21.1172 H   0  0  0  0  0  0  0  0  0  0  0  0
    6.7168   -1.1270   21.7439 H   0  0  0  0  0  0  0  0  0  0  0  0
    8.0741   -1.4735   20.6696 H   0  0  0  0  0  0  0  0  0  0  0  0
    9.5946    0.4720   21.5165 N   0  0  0  0  0  0  0  0  0  0  0  0
    9.9075    1.5219   22.2690 C   0  0  0  0  0  0  0  0  0  0  0  0
   11.2277    2.1372   22.4019 C   0  0  0  0  0  0  0  0  0  0  0  0
   11.5252    3.5018   22.2990 C   0  0  0  0  0  0  0  0  0  0  0  0
   12.8562    3.9833   22.3149 C   0  0  0  0  0  0  0  0  0  0  0  0
   13.9189    3.1363   22.5707 C   0  0  0  0  0  0  0  0  0  0  0  0
   13.6402    1.7638   22.7308 C   0  0  0  0  0  0  0  0  0  0  0  0
   12.3341    1.2851   22.5845 C   0  0  0  0  0  0  0  0  0  0  0  0
   12.4744   -0.0491   22.7209 N   0  0  0  0  0  0  0  0  0  0  0  0
   13.7564   -0.3839   22.9442 N   0  0  0  0  0  0  0  0  0  0  0  0
   14.4667    0.6840   22.9528 N   0  0  0  0  0  0  0  0  0  0  0  0
   11.7589   -0.7573   22.6461 H   0  0  0  0  0  0  0  0  0  0  0  0
   14.9396    3.4901   22.5620 H   0  0  0  0  0  0  0  0  0  0  0  0
   13.0547    5.0311   22.1086 H   0  0  0  0  0  0  0  0  0  0  0  0
   10.7416    4.2423   22.1907 H   0  0  0  0  0  0  0  0  0  0  0  0
    7.6170    3.9472   23.9806 C   0  0  0  0  0  0  0  0  0  0  0  0
    6.2477    3.3394   24.3341 C   0  0  0  0  0  0  0  0  0  0  0  0
    6.2192    2.9808   25.3696 H   0  0  0  0  0  0  0  0  0  0  0  0
    5.4569    4.0914   24.2330 H   0  0  0  0  0  0  0  0  0  0  0  0
    6.0056    2.5013   23.6751 H   0  0  0  0  0  0  0  0  0  0  0  0
    7.9070    5.1116   24.9490 C   0  0  0  0  0  0  0  0  0  0  0  0
    7.9138    4.7934   25.9973 H   0  0  0  0  0  0  0  0  0  0  0  0
    8.8750    5.5819   24.7384 H   0  0  0  0  0  0  0  0  0  0  0  0
    7.1384    5.8870   24.8555 H   0  0  0  0  0  0  0  0  0  0  0  0
    7.5621    4.5084   22.5464 C   0  0  0  0  0  0  0  0  0  0  0  0
    7.3431    3.7130   21.8294 H   0  0  0  0  0  0  0  0  0  0  0  0
    8.5125    4.9734   22.2541 H   0  0  0  0  0  0  0  0  0  0  0  0
    6.7822    5.2729   22.4578 H   0  0  0  0  0  0  0  0  0  0  0  0
    9.7058    3.4708   24.0183 H   0  0  0  0  0  0  0  0  0  0  0  0
    8.8368    2.7781   26.2626 H   0  0  0  0  0  0  0  0  0  0  0  0
    9.7431    1.5009   25.4454 H   0  0  0  0  0  0  0  0  0  0  0  0
    7.9780    1.4295   25.4852 H   0  0  0  0  0  0  0  0  0  0  0  0
  1  2  1  0
  2  3  1  0
  3  4  1  0
  4  5  2  0
  5  6  1  0
  6  7  1  0
  7  8  2  0
  8  9  1  0
  9 10  2  0
 10 11  1  0
 11 12  2  0
 12 13  1  0
 10 14  1  0
  9 15  1  0
  8 16  1  0
  6 17  1  0
  6 18  1  0
  5 19  1  0
 19 20  2  0
 20 21  1  0
 21 22  2  0
 22 23  1  0
 23 24  2  0
 24 25  1  0
 25 26  2  0
 26 27  1  0
 27 28  1  0
 28 29  2  0
 27 30  1  0
 24 31  1  0
 23 32  1  0
 22 33  1  0
  2 34  1  0
 34 35  1  0
 35 36  1  0
 35 37  1  0
 35 38  1  0
 34 39  1  0
 39 40  1  0
 39 41  1  0
 39 42  1  0
 34 43  1  0
 43 44  1  0
 43 45  1  0
 43 46  1  0
  2 47  1  0
  1 48  1  0
  1 49  1  0
  1 50  1  0
 20  3  1  0
 26 21  1  0
 12  7  1  0
 29 25  1  0
M  END
>  <cnnaffinity>  (1) 
-6.68895

>  <filename>  (1) 
CC(n1nc(Cc2cccnc2)nc1-c1cccc2nn[nH]c12)C(C)(C)C

$$$$
