
     RDKit          3D

 38 40  0  0  0  0  0  0  0  0999 V2000
    7.4465   -3.8968   24.1232 C   0  0  0  0  0  0  0  0  0  0  0  0
    7.0525   -2.4257   24.2438 C   0  0  0  0  0  0  0  0  0  0  0  0
    7.5314   -1.7016   23.0563 N   0  0  0  0  0  0  0  0  0  0  0  0
    6.8938   -1.7273   21.8516 C   0  0  0  0  0  0  0  0  0  0  0  0
    5.7470   -2.8134   21.3695 S   0  0  0  0  0  0  0  0  0  0  0  0
    7.3788   -0.7120   21.0694 N   0  0  0  0  0  0  0  0  0  0  0  0
    6.7008   -0.0530   20.0040 C   0  0  0  0  0  0  0  0  0  0  0  0
    5.4729    0.5901   20.2144 C   0  0  0  0  0  0  0  0  0  0  0  0
    4.8779    1.2423   19.1272 C   0  0  0  0  0  0  0  0  0  0  0  0
    5.5210    1.2236   17.8835 C   0  0  0  0  0  0  0  0  0  0  0  0
    6.6941    0.6089   17.6715 N   0  0  0  0  0  0  0  0  0  0  0  0
    7.2651   -0.0057   18.7153 C   0  0  0  0  0  0  0  0  0  0  0  0
    8.2164   -0.5068   18.5489 H   0  0  0  0  0  0  0  0  0  0  0  0
    5.0775    1.7172   17.0214 H   0  0  0  0  0  0  0  0  0  0  0  0
    3.9406    1.7744   19.2358 H   0  0  0  0  0  0  0  0  0  0  0  0
    5.0250    0.5925   21.2105 H   0  0  0  0  0  0  0  0  0  0  0  0
    8.3070   -0.4032   21.3134 H   0  0  0  0  0  0  0  0  0  0  0  0
    7.8569   -0.7713   23.2577 H   0  0  0  0  0  0  0  0  0  0  0  0
    7.6041   -1.7340   25.4814 C   0  0  0  0  0  0  0  0  0  0  0  0
    8.9670   -1.5894   25.7005 C   0  0  0  0  0  0  0  0  0  0  0  0
    9.4597   -0.8845   26.8292 C   0  0  0  0  0  0  0  0  0  0  0  0
    8.6031   -0.3550   27.7677 C   0  0  0  0  0  0  0  0  0  0  0  0
    7.1989   -0.5159   27.6145 C   0  0  0  0  0  0  0  0  0  0  0  0
    6.2573   -0.0549   28.5851 C   0  0  0  0  0  0  0  0  0  0  0  0
    4.9226   -0.2947   28.3783 C   0  0  0  0  0  0  0  0  0  0  0  0
    4.5179   -0.9779   27.1990 C   0  0  0  0  0  0  0  0  0  0  0  0
    5.3449   -1.4079   26.2755 N   0  0  0  0  0  0  0  0  0  0  0  0
    6.6897   -1.2085   26.4602 C   0  0  0  0  0  0  0  0  0  0  0  0
    3.4608   -1.1828   27.0402 H   0  0  0  0  0  0  0  0  0  0  0  0
    4.1783    0.0122   29.1034 H   0  0  0  0  0  0  0  0  0  0  0  0
    6.6133    0.4525   29.4846 H   0  0  0  0  0  0  0  0  0  0  0  0
    8.9832    0.1838   28.6348 H   0  0  0  0  0  0  0  0  0  0  0  0
   10.5280   -0.7451   26.9535 H   0  0  0  0  0  0  0  0  0  0  0  0
    9.6827   -2.0064   24.9888 H   0  0  0  0  0  0  0  0  0  0  0  0
    5.9565   -2.3564   24.2932 H   0  0  0  0  0  0  0  0  0  0  0  0
    6.9664   -4.3116   23.2319 H   0  0  0  0  0  0  0  0  0  0  0  0
    8.5327   -4.0067   24.0149 H   0  0  0  0  0  0  0  0  0  0  0  0
    7.1137   -4.4573   25.0028 H   0  0  0  0  0  0  0  0  0  0  0  0
  1  2  1  0
  2  3  1  0
  3  4  1  0
  4  5  2  0
  4  6  1  0
  6  7  1  0
  7  8  2  0
  8  9  1  0
  9 10  2  0
 10 11  1  0
 11 12  2  0
 12 13  1  0
 10 14  1  0
  9 15  1  0
  8 16  1  0
  6 17  1  0
  3 18  1  0
  2 19  1  0
 19 20  2  0
 20 21  1  0
 21 22  2  0
 22 23  1  0
 23 24  2  0
 24 25  1  0
 25 26  2  0
 26 27  1  0
 27 28  2  0
 26 29  1  0
 25 30  1  0
 24 31  1  0
 22 32  1  0
 21 33  1  0
 20 34  1  0
  2 35  1  0
  1 36  1  0
  1 37  1  0
  1 38  1  0
 12  7  1  0
 28 19  1  0
 28 23  1  0
M  END
>  <cnnaffinity>  (1) 
-5.17891

>  <filename>  (1) 
CC(NC(=S)Nc1cccnc1)c1cccc2cccnc12

$$$$
