
     RDKit          3D

 31 32  0  0  0  0  0  0  0  0999 V2000
    8.7668   -0.0996   21.2819 C   0  0  0  0  0  0  0  0  0  0  0  0
    7.3951   -0.7604   21.0594 C   0  0  0  0  0  0  0  0  0  0  0  0
    7.4955   -2.1777   20.7919 N   0  0  0  0  0  0  0  0  0  0  0  0
    7.7915   -3.1415   21.7129 C   0  0  0  0  0  0  0  0  0  0  0  0
    7.9162   -4.4768   21.3071 C   0  0  0  0  0  0  0  0  0  0  0  0
    8.3147   -5.3956   22.2687 C   0  0  0  0  0  0  0  0  0  0  0  0
    8.5246   -5.1134   23.5576 N   0  0  0  0  0  0  0  0  0  0  0  0
    8.2995   -3.8524   23.9613 C   0  0  0  0  0  0  0  0  0  0  0  0
    8.4504   -3.6322   25.4639 C   0  0  0  0  0  0  0  0  0  0  0  0
    9.3400   -2.6267   25.7246 F   0  0  0  0  0  0  0  0  0  0  0  0
    7.2676   -3.2553   26.0388 F   0  0  0  0  0  0  0  0  0  0  0  0
    8.7979   -4.5666   25.9220 H   0  0  0  0  0  0  0  0  0  0  0  0
    7.9556   -2.8366   23.0736 C   0  0  0  0  0  0  0  0  0  0  0  0
    7.8209   -1.8217   23.4042 H   0  0  0  0  0  0  0  0  0  0  0  0
    8.4837   -6.4392   22.0166 H   0  0  0  0  0  0  0  0  0  0  0  0
    7.6504   -4.7852   20.3028 H   0  0  0  0  0  0  0  0  0  0  0  0
    7.4829   -2.4687   19.8288 H   0  0  0  0  0  0  0  0  0  0  0  0
    6.6285   -0.0959   19.9401 C   0  0  0  0  0  0  0  0  0  0  0  0
    5.4289    0.5954   20.1548 C   0  0  0  0  0  0  0  0  0  0  0  0
    4.8425    1.2657   19.0801 C   0  0  0  0  0  0  0  0  0  0  0  0
    5.4753    1.2231   17.8328 C   0  0  0  0  0  0  0  0  0  0  0  0
    6.6065    0.5395   17.5999 N   0  0  0  0  0  0  0  0  0  0  0  0
    7.1517   -0.1083   18.6410 C   0  0  0  0  0  0  0  0  0  0  0  0
    8.0804   -0.6412   18.4342 H   0  0  0  0  0  0  0  0  0  0  0  0
    5.0547    1.7622   16.9860 H   0  0  0  0  0  0  0  0  0  0  0  0
    3.9225    1.8293   19.1995 H   0  0  0  0  0  0  0  0  0  0  0  0
    4.9633    0.6179   21.1449 H   0  0  0  0  0  0  0  0  0  0  0  0
    6.8022   -0.6491   21.9790 H   0  0  0  0  0  0  0  0  0  0  0  0
    9.2939   -0.5734   22.1166 H   0  0  0  0  0  0  0  0  0  0  0  0
    8.6285    0.9606   21.5149 H   0  0  0  0  0  0  0  0  0  0  0  0
    9.3989   -0.1729   20.3875 H   0  0  0  0  0  0  0  0  0  0  0  0
  1  2  1  0
  2  3  1  0
  3  4  1  0
  4  5  2  0
  5  6  1  0
  6  7  2  0
  7  8  1  0
  8  9  1  0
  9 10  1  0
  9 11  1  0
  9 12  1  0
  8 13  2  0
 13 14  1  0
  6 15  1  0
  5 16  1  0
  3 17  1  0
  2 18  1  0
 18 19  2  0
 19 20  1  0
 20 21  2  0
 21 22  1  0
 22 23  2  0
 23 24  1  0
 21 25  1  0
 20 26  1  0
 19 27  1  0
  2 28  1  0
  1 29  1  0
  1 30  1  0
  1 31  1  0
 13  4  1  0
 23 18  1  0
M  END
>  <cnnaffinity>  (1) 
-4.71731

>  <filename>  (1) 
CC(Nc1ccnc(C(F)F)c1)c1cccnc1

$$$$
