
     RDKit          3D

 42 45  0  0  0  0  0  0  0  0999 V2000
   11.7917    2.5710   20.8498 C   0  0  0  0  0  0  0  0  0  0  0  0
   11.4019    2.1013   22.2463 C   0  0  0  0  0  0  0  0  0  0  0  0
   10.0132    1.6029   22.2592 N   0  0  0  0  0  0  0  0  0  0  0  0
    9.6551    0.5982   21.4326 N   0  0  0  0  0  0  0  0  0  0  0  0
    8.3808    0.3990   21.7261 C   0  0  0  0  0  0  0  0  0  0  0  0
    7.5384   -0.6006   20.9813 C   0  0  0  0  0  0  0  0  0  0  0  0
    6.7384    0.0129   19.8342 C   0  0  0  0  0  0  0  0  0  0  0  0
    5.5220    0.6563   20.1033 C   0  0  0  0  0  0  0  0  0  0  0  0
    4.8522    1.3066   19.0651 C   0  0  0  0  0  0  0  0  0  0  0  0
    5.4245    1.2841   17.7902 C   0  0  0  0  0  0  0  0  0  0  0  0
    6.5698    0.6460   17.5006 N   0  0  0  0  0  0  0  0  0  0  0  0
    7.1953    0.0224   18.5064 C   0  0  0  0  0  0  0  0  0  0  0  0
    8.1140   -0.5093   18.2500 H   0  0  0  0  0  0  0  0  0  0  0  0
    4.9411    1.7880   16.9564 H   0  0  0  0  0  0  0  0  0  0  0  0
    3.9122    1.8256   19.2290 H   0  0  0  0  0  0  0  0  0  0  0  0
    5.1229    0.6373   21.1195 H   0  0  0  0  0  0  0  0  0  0  0  0
    8.1964   -1.4007   20.6223 H   0  0  0  0  0  0  0  0  0  0  0  0
    6.8416   -1.0405   21.7041 H   0  0  0  0  0  0  0  0  0  0  0  0
    7.8884    1.2143   22.6872 N   0  0  0  0  0  0  0  0  0  0  0  0
    8.9203    1.9837   22.9947 C   0  0  0  0  0  0  0  0  0  0  0  0
    8.9354    3.0597   23.9766 C   0  0  0  0  0  0  0  0  0  0  0  0
    7.9450    3.3382   24.8856 C   0  0  0  0  0  0  0  0  0  0  0  0
    6.7434    2.8247   25.0621 F   0  0  0  0  0  0  0  0  0  0  0  0
    8.3777    4.3394   25.7019 N   0  0  0  0  0  0  0  0  0  0  0  0
    7.8132    4.9434   26.8228 C   0  0  0  0  0  0  0  0  0  0  0  0
    8.5647    5.8308   27.5346 C   0  0  0  0  0  0  0  0  0  0  0  0
    9.8979    6.1753   27.0895 C   0  0  0  0  0  0  0  0  0  0  0  0
   10.4199    5.6302   25.9504 C   0  0  0  0  0  0  0  0  0  0  0  0
    9.6637    4.6564   25.2262 C   0  0  0  0  0  0  0  0  0  0  0  0
    9.9913    3.9156   24.1960 N   0  0  0  0  0  0  0  0  0  0  0  0
   11.4034    5.8687   25.5584 H   0  0  0  0  0  0  0  0  0  0  0  0
   10.4833    6.9028   27.6512 H   0  0  0  0  0  0  0  0  0  0  0  0
    8.1769    6.2605   28.4551 H   0  0  0  0  0  0  0  0  0  0  0  0
    6.7945    4.6476   27.0591 H   0  0  0  0  0  0  0  0  0  0  0  0
   12.3801    1.0958   22.8928 C   0  0  0  0  0  0  0  0  0  0  0  0
   12.0124    0.8341   24.1580 F   0  0  0  0  0  0  0  0  0  0  0  0
   12.5179   -0.0663   22.2449 F   0  0  0  0  0  0  0  0  0  0  0  0
   13.6061    1.6617   22.9474 F   0  0  0  0  0  0  0  0  0  0  0  0
   11.4288    2.9486   22.9270 H   0  0  0  0  0  0  0  0  0  0  0  0
   12.6160    3.2892   20.8670 H   0  0  0  0  0  0  0  0  0  0  0  0
   10.9294    3.0196   20.3715 H   0  0  0  0  0  0  0  0  0  0  0  0
   12.0586    1.7333   20.2264 H   0  0  0  0  0  0  0  0  0  0  0  0
  1  2  1  0
  2  3  1  0
  3  4  1  0
  4  5  2  0
  5  6  1  0
  6  7  1  0
  7  8  2  0
  8  9  1  0
  9 10  2  0
 10 11  1  0
 11 12  2  0
 12 13  1  0
 10 14  1  0
  9 15  1  0
  8 16  1  0
  6 17  1  0
  6 18  1  0
  5 19  1  0
 19 20  2  0
 20 21  1  0
 21 22  2  0
 22 23  1  0
 22 24  1  0
 24 25  1  0
 25 26  2  0
 26 27  1  0
 27 28  2  0
 28 29  1  0
 29 30  2  0
 28 31  1  0
 27 32  1  0
 26 33  1  0
 25 34  1  0
  2 35  1  0
 35 36  1  0
 35 37  1  0
 35 38  1  0
  2 39  1  0
  1 40  1  0
  1 41  1  0
  1 42  1  0
 20  3  1  0
 30 21  1  0
 12  7  1  0
 29 24  1  0
M  END
>  <cnnaffinity>  (1) 
-6.0121

>  <filename>  (1) 
CC(n1nc(Cc2cccnc2)nc1-c1nc2ccccn2c1F)C(F)(F)F

$$$$
