
     RDKit          3D

 43 46  0  0  0  0  0  0  0  0999 V2000
   11.7890    3.2762   22.3019 C   0  0  0  0  0  0  0  0  0  0  0  0
   11.5676    1.7722   22.0972 C   0  0  0  0  0  0  0  0  0  0  0  0
   10.1424    1.3880   22.1193 N   0  0  0  0  0  0  0  0  0  0  0  0
    9.7450    0.3527   21.3288 N   0  0  0  0  0  0  0  0  0  0  0  0
    8.4604    0.2348   21.6074 C   0  0  0  0  0  0  0  0  0  0  0  0
    7.4990   -0.7001   20.9226 C   0  0  0  0  0  0  0  0  0  0  0  0
    6.6898   -0.0399   19.8084 C   0  0  0  0  0  0  0  0  0  0  0  0
    5.4849    0.6191   20.0897 C   0  0  0  0  0  0  0  0  0  0  0  0
    4.8288    1.3017   19.0610 C   0  0  0  0  0  0  0  0  0  0  0  0
    5.4019    1.3011   17.7858 C   0  0  0  0  0  0  0  0  0  0  0  0
    6.5432    0.6609   17.4885 N   0  0  0  0  0  0  0  0  0  0  0  0
    7.1554    0.0087   18.4840 C   0  0  0  0  0  0  0  0  0  0  0  0
    8.0803   -0.5060   18.2228 H   0  0  0  0  0  0  0  0  0  0  0  0
    4.9247    1.8298   16.9619 H   0  0  0  0  0  0  0  0  0  0  0  0
    3.8983    1.8323   19.2341 H   0  0  0  0  0  0  0  0  0  0  0  0
    5.0812    0.6032   21.1053 H   0  0  0  0  0  0  0  0  0  0  0  0
    6.8045   -1.0539   21.6940 H   0  0  0  0  0  0  0  0  0  0  0  0
    8.0607   -1.5588   20.5437 H   0  0  0  0  0  0  0  0  0  0  0  0
    8.0109    1.0927   22.5526 N   0  0  0  0  0  0  0  0  0  0  0  0
    9.0699    1.8135   22.8532 C   0  0  0  0  0  0  0  0  0  0  0  0
    9.0159    2.8905   23.8711 C   0  0  0  0  0  0  0  0  0  0  0  0
    9.0551    2.5297   25.2459 C   0  0  0  0  0  0  0  0  0  0  0  0
    8.9375    3.4671   26.2483 C   0  0  0  0  0  0  0  0  0  0  0  0
    8.8395    4.8200   25.8655 C   0  0  0  0  0  0  0  0  0  0  0  0
    8.7966    5.9490   26.6103 N   0  0  0  0  0  0  0  0  0  0  0  0
    8.6817    7.0680   25.8410 N   0  0  0  0  0  0  0  0  0  0  0  0
    8.6307    6.6326   24.6026 C   0  0  0  0  0  0  0  0  0  0  0  0
    8.4932    7.5452   23.6284 O   0  0  0  0  0  0  0  0  0  0  0  0
    8.3476    8.3369   24.1705 H   0  0  0  0  0  0  0  0  0  0  0  0
    8.7392    5.2141   24.5070 C   0  0  0  0  0  0  0  0  0  0  0  0
    8.8192    4.2250   23.5024 C   0  0  0  0  0  0  0  0  0  0  0  0
    8.7239    4.4700   22.4479 H   0  0  0  0  0  0  0  0  0  0  0  0
    9.0095    6.0091   27.5914 H   0  0  0  0  0  0  0  0  0  0  0  0
    8.8530    3.1749   27.2825 H   0  0  0  0  0  0  0  0  0  0  0  0
    9.1689    1.4835   25.5219 H   0  0  0  0  0  0  0  0  0  0  0  0
   12.4095    0.9547   23.0995 C   0  0  0  0  0  0  0  0  0  0  0  0
   12.0784    1.2488   24.3752 F   0  0  0  0  0  0  0  0  0  0  0  0
   12.2918   -0.3635   22.9362 F   0  0  0  0  0  0  0  0  0  0  0  0
   13.7150    1.2649   22.9422 F   0  0  0  0  0  0  0  0  0  0  0  0
   11.9156    1.4552   21.1088 H   0  0  0  0  0  0  0  0  0  0  0  0
   10.9228    3.8365   21.9641 H   0  0  0  0  0  0  0  0  0  0  0  0
   11.9328    3.5321   23.3566 H   0  0  0  0  0  0  0  0  0  0  0  0
   12.6584    3.6318   21.7447 H   0  0  0  0  0  0  0  0  0  0  0  0
  1  2  1  0
  2  3  1  0
  3  4  1  0
  4  5  2  0
  5  6  1  0
  6  7  1  0
  7  8  2  0
  8  9  1  0
  9 10  2  0
 10 11  1  0
 11 12  2  0
 12 13  1  0
 10 14  1  0
  9 15  1  0
  8 16  1  0
  6 17  1  0
  6 18  1  0
  5 19  1  0
 19 20  2  0
 20 21  1  0
 21 22  2  0
 22 23  1  0
 23 24  2  0
 24 25  1  0
 25 26  1  0
 26 27  2  0
 27 28  1  0
 28 29  1  0
 27 30  1  0
 30 31  2  0
 31 32  1  0
 25 33  1  0
 23 34  1  0
 22 35  1  0
  2 36  1  0
 36 37  1  0
 36 38  1  0
 36 39  1  0
  2 40  1  0
  1 41  1  0
  1 42  1  0
  1 43  1  0
 20  3  1  0
 31 21  1  0
 12  7  1  0
 30 24  1  0
M  END
>  <cnnaffinity>  (1) 
-5.96826

>  <filename>  (1) 
CC(n1nc(Cc2cccnc2)nc1-c1ccc2[nH]nc(O)c2c1)C(F)(F)F

$$$$
