
     RDKit          3D

 53 56  0  0  0  0  0  0  0  0999 V2000
    9.1394    2.9953   24.7615 C   0  0  0  0  0  0  0  0  0  0  0  0
    7.8175    2.7707   24.0290 C   0  0  0  0  0  0  0  0  0  0  0  0
    7.9441    1.6825   23.0206 N   0  0  0  0  0  0  0  0  0  0  0  0
    6.8144    1.0218   22.6286 N   0  0  0  0  0  0  0  0  0  0  0  0
    7.2323    0.2653   21.6319 C   0  0  0  0  0  0  0  0  0  0  0  0
    6.3607   -0.6145   20.7852 C   0  0  0  0  0  0  0  0  0  0  0  0
    5.9279    0.0303   19.4726 C   0  0  0  0  0  0  0  0  0  0  0  0
    4.8861    0.9704   19.4593 C   0  0  0  0  0  0  0  0  0  0  0  0
    4.5361    1.5812   18.2561 C   0  0  0  0  0  0  0  0  0  0  0  0
    5.2560    1.2483   17.1090 C   0  0  0  0  0  0  0  0  0  0  0  0
    6.2583    0.3567   17.0901 N   0  0  0  0  0  0  0  0  0  0  0  0
    6.5738   -0.2349   18.2499 C   0  0  0  0  0  0  0  0  0  0  0  0
    7.3866   -0.9655   18.2036 H   0  0  0  0  0  0  0  0  0  0  0  0
    5.0173    1.7340   16.1697 H   0  0  0  0  0  0  0  0  0  0  0  0
    3.7417    2.3201   18.1945 H   0  0  0  0  0  0  0  0  0  0  0  0
    4.3693    1.2265   20.3866 H   0  0  0  0  0  0  0  0  0  0  0  0
    6.9458   -1.5217   20.5937 H   0  0  0  0  0  0  0  0  0  0  0  0
    5.4873   -0.8893   21.3828 H   0  0  0  0  0  0  0  0  0  0  0  0
    8.5558    0.3649   21.3679 N   0  0  0  0  0  0  0  0  0  0  0  0
    8.9915    1.2098   22.2856 C   0  0  0  0  0  0  0  0  0  0  0  0
   10.4320    1.6164   22.3454 C   0  0  0  0  0  0  0  0  0  0  0  0
   10.8397    2.5334   21.3857 C   0  0  0  0  0  0  0  0  0  0  0  0
   12.1223    3.1068   21.3916 C   0  0  0  0  0  0  0  0  0  0  0  0
   13.0372    2.6995   22.3478 C   0  0  0  0  0  0  0  0  0  0  0  0
   12.7073    1.6894   23.2661 C   0  0  0  0  0  0  0  0  0  0  0  0
   11.3955    1.1582   23.2914 C   0  0  0  0  0  0  0  0  0  0  0  0
   11.0944    0.2083   24.3907 C   0  0  0  0  0  0  0  0  0  0  0  0
   10.0352   -0.3285   24.6430 O   0  0  0  0  0  0  0  0  0  0  0  0
   12.1455   -0.0676   25.2379 N   0  0  0  0  0  0  0  0  0  0  0  0
   13.3963    0.4246   25.0598 C   0  0  0  0  0  0  0  0  0  0  0  0
   13.7044    1.2597   24.1464 N   0  0  0  0  0  0  0  0  0  0  0  0
   14.1567    0.0749   25.7577 H   0  0  0  0  0  0  0  0  0  0  0  0
   11.8736   -0.6878   25.9763 H   0  0  0  0  0  0  0  0  0  0  0  0
   14.0360    3.1142   22.4329 H   0  0  0  0  0  0  0  0  0  0  0  0
   12.3921    3.8676   20.6571 H   0  0  0  0  0  0  0  0  0  0  0  0
   10.1102    2.8122   20.6385 H   0  0  0  0  0  0  0  0  0  0  0  0
    7.1827    4.1153   23.4714 C   0  0  0  0  0  0  0  0  0  0  0  0
    5.7349    3.8469   23.0157 C   0  0  0  0  0  0  0  0  0  0  0  0
    5.6989    3.1668   22.1610 H   0  0  0  0  0  0  0  0  0  0  0  0
    5.1547    3.3895   23.8259 H   0  0  0  0  0  0  0  0  0  0  0  0
    5.2446    4.7842   22.7255 H   0  0  0  0  0  0  0  0  0  0  0  0
    7.9868    4.6938   22.2938 C   0  0  0  0  0  0  0  0  0  0  0  0
    8.0702    3.9774   21.4720 H   0  0  0  0  0  0  0  0  0  0  0  0
    9.0031    4.9857   22.5840 H   0  0  0  0  0  0  0  0  0  0  0  0
    7.4902    5.5923   21.9075 H   0  0  0  0  0  0  0  0  0  0  0  0
    7.1293    5.1701   24.6053 C   0  0  0  0  0  0  0  0  0  0  0  0
    6.4998    6.0199   24.3153 H   0  0  0  0  0  0  0  0  0  0  0  0
    6.7228    4.7509   25.5352 H   0  0  0  0  0  0  0  0  0  0  0  0
    8.1215    5.5793   24.8283 H   0  0  0  0  0  0  0  0  0  0  0  0
    7.0768    2.3650   24.7317 H   0  0  0  0  0  0  0  0  0  0  0  0
    9.8646    3.5033   24.1181 H   0  0  0  0  0  0  0  0  0  0  0  0
    9.5594    2.0446   25.0861 H   0  0  0  0  0  0  0  0  0  0  0  0
    9.0087    3.6269   25.6448 H   0  0  0  0  0  0  0  0  0  0  0  0
  1  2  1  0
  2  3  1  0
  3  4  1  0
  4  5  2  0
  5  6  1  0
  6  7  1  0
  7  8  2  0
  8  9  1  0
  9 10  2  0
 10 11  1  0
 11 12  2  0
 12 13  1  0
 10 14  1  0
  9 15  1  0
  8 16  1  0
  6 17  1  0
  6 18  1  0
  5 19  1  0
 19 20  2  0
 20 21  1  0
 21 22  2  0
 22 23  1  0
 23 24  2  0
 24 25  1  0
 25 26  2  0
 26 27  1  0
 27 28  2  0
 27 29  1  0
 29 30  1  0
 30 31  2  0
 30 32  1  0
 29 33  1  0
 24 34  1  0
 23 35  1  0
 22 36  1  0
  2 37  1  0
 37 38  1  0
 38 39  1  0
 38 40  1  0
 38 41  1  0
 37 42  1  0
 42 43  1  0
 42 44  1  0
 42 45  1  0
 37 46  1  0
 46 47  1  0
 46 48  1  0
 46 49  1  0
  2 50  1  0
  1 51  1  0
  1 52  1  0
  1 53  1  0
 20  3  1  0
 26 21  1  0
 12  7  1  0
 31 25  1  0
M  END
>  <cnnaffinity>  (1) 
-6.21786

>  <filename>  (1) 
CC(n1nc(Cc2cccnc2)nc1-c1cccc2nc[nH]c(=O)c12)C(C)(C)C

$$$$
