
     RDKit          3D

 33 35  0  0  0  0  0  0  0  0999 V2000
    7.4300   -2.1363   20.9749 C   0  0  0  0  0  0  0  0  0  0  0  0
    7.1876   -0.6408   21.2476 C   0  0  0  0  0  0  0  0  0  0  0  0
    8.4583    0.0214   21.4942 N   0  0  0  0  0  0  0  0  0  0  0  0
    9.2379   -0.1845   22.5798 C   0  0  0  0  0  0  0  0  0  0  0  0
    8.7276   -0.9547   23.5300 N   0  0  0  0  0  0  0  0  0  0  0  0
    9.4272   -1.1033   24.6828 C   0  0  0  0  0  0  0  0  0  0  0  0
   10.6674   -0.5577   24.9040 C   0  0  0  0  0  0  0  0  0  0  0  0
   11.3102    0.1769   23.8558 C   0  0  0  0  0  0  0  0  0  0  0  0
   12.6492    0.6565   23.9267 C   0  0  0  0  0  0  0  0  0  0  0  0
   13.1262    1.4637   22.9149 C   0  0  0  0  0  0  0  0  0  0  0  0
   12.2777    1.7656   21.8169 C   0  0  0  0  0  0  0  0  0  0  0  0
   11.0626    1.2779   21.6786 N   0  0  0  0  0  0  0  0  0  0  0  0
   10.5763    0.4604   22.6684 C   0  0  0  0  0  0  0  0  0  0  0  0
   12.6073    2.4110   21.0050 H   0  0  0  0  0  0  0  0  0  0  0  0
   14.1265    1.8769   22.9301 H   0  0  0  0  0  0  0  0  0  0  0  0
   13.2715    0.3634   24.7698 H   0  0  0  0  0  0  0  0  0  0  0  0
   11.1451   -0.6456   25.8690 H   0  0  0  0  0  0  0  0  0  0  0  0
    8.9291   -1.7151   25.4337 H   0  0  0  0  0  0  0  0  0  0  0  0
    8.8811    0.6006   20.7873 H   0  0  0  0  0  0  0  0  0  0  0  0
    6.5353    0.1062   20.1117 C   0  0  0  0  0  0  0  0  0  0  0  0
    5.3087    0.7868   20.2007 C   0  0  0  0  0  0  0  0  0  0  0  0
    4.7916    1.3810   19.0450 C   0  0  0  0  0  0  0  0  0  0  0  0
    5.5212    1.2940   17.8559 C   0  0  0  0  0  0  0  0  0  0  0  0
    6.7019    0.6639   17.7597 N   0  0  0  0  0  0  0  0  0  0  0  0
    7.1912    0.1145   18.8764 C   0  0  0  0  0  0  0  0  0  0  0  0
    8.1609   -0.3795   18.7720 H   0  0  0  0  0  0  0  0  0  0  0  0
    5.1454    1.7345   16.9337 H   0  0  0  0  0  0  0  0  0  0  0  0
    3.8473    1.9173   19.0469 H   0  0  0  0  0  0  0  0  0  0  0  0
    4.7765    0.8716   21.1523 H   0  0  0  0  0  0  0  0  0  0  0  0
    6.5709   -0.5532   22.1554 H   0  0  0  0  0  0  0  0  0  0  0  0
    7.5350   -2.6465   21.9353 H   0  0  0  0  0  0  0  0  0  0  0  0
    6.6245   -2.5895   20.3884 H   0  0  0  0  0  0  0  0  0  0  0  0
    8.3811   -2.2633   20.4487 H   0  0  0  0  0  0  0  0  0  0  0  0
  1  2  1  0
  2  3  1  0
  3  4  1  0
  4  5  2  0
  5  6  1  0
  6  7  2  0
  7  8  1  0
  8  9  2  0
  9 10  1  0
 10 11  2  0
 11 12  1  0
 12 13  2  0
 11 14  1  0
 10 15  1  0
  9 16  1  0
  7 17  1  0
  6 18  1  0
  3 19  1  0
  2 20  1  0
 20 21  2  0
 21 22  1  0
 22 23  2  0
 23 24  1  0
 24 25  2  0
 25 26  1  0
 23 27  1  0
 22 28  1  0
 21 29  1  0
  2 30  1  0
  1 31  1  0
  1 32  1  0
  1 33  1  0
 13  4  1  0
 25 20  1  0
 13  8  1  0
M  END
>  <cnnaffinity>  (1) 
-4.93322

>  <filename>  (1) 
CC(Nc1nccc2cccnc12)c1cccnc1

$$$$
