
     RDKit          3D

 38 40  0  0  0  0  0  0  0  0999 V2000
    7.9831    3.9313   23.7759 C   0  0  0  0  0  0  0  0  0  0  0  0
    8.9243    2.7622   24.0891 C   0  0  0  0  0  0  0  0  0  0  0  0
    8.9736    1.8072   22.9694 N   0  0  0  0  0  0  0  0  0  0  0  0
    7.8807    1.0639   22.6841 N   0  0  0  0  0  0  0  0  0  0  0  0
    8.2877    0.2954   21.6917 C   0  0  0  0  0  0  0  0  0  0  0  0
    7.3574   -0.6626   20.9977 C   0  0  0  0  0  0  0  0  0  0  0  0
    6.5838   -0.0271   19.8481 C   0  0  0  0  0  0  0  0  0  0  0  0
    5.3753    0.6405   20.0753 C   0  0  0  0  0  0  0  0  0  0  0  0
    4.7701    1.3292   19.0211 C   0  0  0  0  0  0  0  0  0  0  0  0
    5.3936    1.3101   17.7701 C   0  0  0  0  0  0  0  0  0  0  0  0
    6.5346    0.6482   17.5187 N   0  0  0  0  0  0  0  0  0  0  0  0
    7.1011   -0.0023   18.5414 C   0  0  0  0  0  0  0  0  0  0  0  0
    8.0273   -0.5369   18.3203 H   0  0  0  0  0  0  0  0  0  0  0  0
    4.9589    1.8455   16.9285 H   0  0  0  0  0  0  0  0  0  0  0  0
    3.8472    1.8831   19.1594 H   0  0  0  0  0  0  0  0  0  0  0  0
    4.9282    0.6185   21.0708 H   0  0  0  0  0  0  0  0  0  0  0  0
    6.6616   -1.0417   21.7557 H   0  0  0  0  0  0  0  0  0  0  0  0
    7.9554   -1.5003   20.6231 H   0  0  0  0  0  0  0  0  0  0  0  0
    9.5817    0.4881   21.3146 N   0  0  0  0  0  0  0  0  0  0  0  0
    9.9859    1.4503   22.1228 C   0  0  0  0  0  0  0  0  0  0  0  0
   11.3284    2.0873   22.2389 C   0  0  0  0  0  0  0  0  0  0  0  0
   11.5116    3.4888   22.2471 C   0  0  0  0  0  0  0  0  0  0  0  0
   12.7707    4.0353   22.5063 C   0  0  0  0  0  0  0  0  0  0  0  0
   13.8446    3.2896   22.7963 N   0  0  0  0  0  0  0  0  0  0  0  0
   13.6974    1.9570   22.7811 C   0  0  0  0  0  0  0  0  0  0  0  0
   12.4793    1.3247   22.4905 C   0  0  0  0  0  0  0  0  0  0  0  0
   12.4219   -0.0102   22.5311 F   0  0  0  0  0  0  0  0  0  0  0  0
   14.5544    1.3277   23.0160 H   0  0  0  0  0  0  0  0  0  0  0  0
   12.9089    5.1130   22.5153 H   0  0  0  0  0  0  0  0  0  0  0  0
   10.6793    4.1709   22.1185 H   0  0  0  0  0  0  0  0  0  0  0  0
    8.6482    2.0559   25.4384 C   0  0  0  0  0  0  0  0  0  0  0  0
    7.4292    1.5178   25.5335 F   0  0  0  0  0  0  0  0  0  0  0  0
    8.7585    2.9743   26.4285 F   0  0  0  0  0  0  0  0  0  0  0  0
    9.5528    1.1002   25.7006 F   0  0  0  0  0  0  0  0  0  0  0  0
    9.9341    3.1487   24.2348 H   0  0  0  0  0  0  0  0  0  0  0  0
    6.9479    3.5965   23.6519 H   0  0  0  0  0  0  0  0  0  0  0  0
    8.0227    4.6904   24.5636 H   0  0  0  0  0  0  0  0  0  0  0  0
    8.2976    4.4052   22.8386 H   0  0  0  0  0  0  0  0  0  0  0  0
  1  2  1  0
  2  3  1  0
  3  4  1  0
  4  5  2  0
  5  6  1  0
  6  7  1  0
  7  8  2  0
  8  9  1  0
  9 10  2  0
 10 11  1  0
 11 12  2  0
 12 13  1  0
 10 14  1  0
  9 15  1  0
  8 16  1  0
  6 17  1  0
  6 18  1  0
  5 19  1  0
 19 20  2  0
 20 21  1  0
 21 22  2  0
 22 23  1  0
 23 24  2  0
 24 25  1  0
 25 26  2  0
 26 27  1  0
 25 28  1  0
 23 29  1  0
 22 30  1  0
  2 31  1  0
 31 32  1  0
 31 33  1  0
 31 34  1  0
  2 35  1  0
  1 36  1  0
  1 37  1  0
  1 38  1  0
 20  3  1  0
 26 21  1  0
 12  7  1  0
M  END
>  <cnnaffinity>  (1) 
-6.00471

>  <filename>  (1) 
CC(n1nc(Cc2cccnc2)nc1-c1ccncc1F)C(F)(F)F

$$$$
