
     RDKit          3D

 42 45  0  0  0  0  0  0  0  0999 V2000
   11.4523    1.5530   24.6063 C   0  0  0  0  0  0  0  0  0  0  0  0
   11.1717    2.4773   23.4125 C   0  0  0  0  0  0  0  0  0  0  0  0
    9.8142    2.2213   22.9041 N   0  0  0  0  0  0  0  0  0  0  0  0
    9.6666    1.2670   21.9631 N   0  0  0  0  0  0  0  0  0  0  0  0
    8.3839    0.9902   22.0084 C   0  0  0  0  0  0  0  0  0  0  0  0
    7.8706   -0.0931   21.0932 C   0  0  0  0  0  0  0  0  0  0  0  0
    7.0306    0.3552   19.9012 C   0  0  0  0  0  0  0  0  0  0  0  0
    5.8075    1.0076   20.1021 C   0  0  0  0  0  0  0  0  0  0  0  0
    5.0496    1.3674   18.9835 C   0  0  0  0  0  0  0  0  0  0  0  0
    5.5505    1.0843   17.7097 C   0  0  0  0  0  0  0  0  0  0  0  0
    6.7224    0.4700   17.4916 N   0  0  0  0  0  0  0  0  0  0  0  0
    7.4320    0.1201   18.5720 C   0  0  0  0  0  0  0  0  0  0  0  0
    8.3831   -0.3764   18.3794 H   0  0  0  0  0  0  0  0  0  0  0  0
    4.9808    1.3560   16.8235 H   0  0  0  0  0  0  0  0  0  0  0  0
    4.0972    1.8758   19.0851 H   0  0  0  0  0  0  0  0  0  0  0  0
    5.4679    1.2309   21.1163 H   0  0  0  0  0  0  0  0  0  0  0  0
    8.7533   -0.6405   20.7394 H   0  0  0  0  0  0  0  0  0  0  0  0
    7.2998   -0.7919   21.7155 H   0  0  0  0  0  0  0  0  0  0  0  0
    7.6884    1.6724   22.9544 N   0  0  0  0  0  0  0  0  0  0  0  0
    8.6069    2.4651   23.5019 C   0  0  0  0  0  0  0  0  0  0  0  0
    8.4642    3.4945   24.5597 C   0  0  0  0  0  0  0  0  0  0  0  0
    7.5510    3.5773   25.5975 C   0  0  0  0  0  0  0  0  0  0  0  0
    7.9205    4.6735   26.3445 N   0  0  0  0  0  0  0  0  0  0  0  0
    7.4083    5.2028   27.5215 C   0  0  0  0  0  0  0  0  0  0  0  0
    7.9810    6.3140   28.0643 C   0  0  0  0  0  0  0  0  0  0  0  0
    9.1221    6.9296   27.4258 C   0  0  0  0  0  0  0  0  0  0  0  0
    9.6302    6.4047   26.2712 C   0  0  0  0  0  0  0  0  0  0  0  0
    9.0282    5.2343   25.7043 C   0  0  0  0  0  0  0  0  0  0  0  0
    9.3655    4.5262   24.6450 N   0  0  0  0  0  0  0  0  0  0  0  0
   10.4865    6.8214   25.7522 H   0  0  0  0  0  0  0  0  0  0  0  0
    9.5548    7.8317   27.8586 H   0  0  0  0  0  0  0  0  0  0  0  0
    7.5734    6.7429   28.9752 H   0  0  0  0  0  0  0  0  0  0  0  0
    6.5615    4.6635   27.9375 H   0  0  0  0  0  0  0  0  0  0  0  0
    6.7152    2.9562   25.8732 H   0  0  0  0  0  0  0  0  0  0  0  0
   12.1971    2.3871   22.2698 C   0  0  0  0  0  0  0  0  0  0  0  0
   12.3423    1.1547   21.7767 F   0  0  0  0  0  0  0  0  0  0  0  0
   11.8948    3.2154   21.2650 F   0  0  0  0  0  0  0  0  0  0  0  0
   13.4053    2.7838   22.7375 F   0  0  0  0  0  0  0  0  0  0  0  0
   11.1861    3.5237   23.7233 H   0  0  0  0  0  0  0  0  0  0  0  0
   11.4148    0.4951   24.3149 H   0  0  0  0  0  0  0  0  0  0  0  0
   10.6972    1.7257   25.3817 H   0  0  0  0  0  0  0  0  0  0  0  0
   12.4261    1.7720   25.0475 H   0  0  0  0  0  0  0  0  0  0  0  0
  1  2  1  0
  2  3  1  0
  3  4  1  0
  4  5  2  0
  5  6  1  0
  6  7  1  0
  7  8  2  0
  8  9  1  0
  9 10  2  0
 10 11  1  0
 11 12  2  0
 12 13  1  0
 10 14  1  0
  9 15  1  0
  8 16  1  0
  6 17  1  0
  6 18  1  0
  5 19  1  0
 19 20  2  0
 20 21  1  0
 21 22  2  0
 22 23  1  0
 23 24  1  0
 24 25  2  0
 25 26  1  0
 26 27  2  0
 27 28  1  0
 28 29  2  0
 27 30  1  0
 26 31  1  0
 25 32  1  0
 24 33  1  0
 22 34  1  0
  2 35  1  0
 35 36  1  0
 35 37  1  0
 35 38  1  0
  2 39  1  0
  1 40  1  0
  1 41  1  0
  1 42  1  0
 20  3  1  0
 29 21  1  0
 12  7  1  0
 28 23  1  0
M  END
>  <cnnaffinity>  (1) 
-5.85318

>  <filename>  (1) 
CC(n1nc(Cc2cccnc2)nc1-c1cn2ccccc2n1)C(F)(F)F

$$$$
