
     RDKit          3D

 35 36  0  0  0  0  0  0  0  0999 V2000
    8.7056   -0.2658   21.3506 C   0  0  0  0  0  0  0  0  0  0  0  0
    7.2893   -0.8156   21.1244 C   0  0  0  0  0  0  0  0  0  0  0  0
    7.2750   -2.2320   20.8600 N   0  0  0  0  0  0  0  0  0  0  0  0
    7.4934   -3.2213   21.7867 C   0  0  0  0  0  0  0  0  0  0  0  0
    7.5774   -4.5546   21.3528 C   0  0  0  0  0  0  0  0  0  0  0  0
    7.8565   -5.5675   22.2666 C   0  0  0  0  0  0  0  0  0  0  0  0
    8.0489   -5.2830   23.6258 C   0  0  0  0  0  0  0  0  0  0  0  0
    7.8786   -3.9624   24.0695 C   0  0  0  0  0  0  0  0  0  0  0  0
    8.0878   -3.5686   25.5200 C   0  0  0  0  0  0  0  0  0  0  0  0
    7.8886   -4.6342   26.3566 F   0  0  0  0  0  0  0  0  0  0  0  0
    7.1769   -2.6168   25.8945 F   0  0  0  0  0  0  0  0  0  0  0  0
    9.4756   -3.0429   25.8556 C   0  0  0  0  0  0  0  0  0  0  0  0
    9.8080   -1.9745   25.0449 F   0  0  0  0  0  0  0  0  0  0  0  0
   10.2159   -3.8319   25.7128 H   0  0  0  0  0  0  0  0  0  0  0  0
    9.4739   -2.7228   26.9028 H   0  0  0  0  0  0  0  0  0  0  0  0
    7.6113   -2.9375   23.1555 C   0  0  0  0  0  0  0  0  0  0  0  0
    7.4877   -1.9182   23.5004 H   0  0  0  0  0  0  0  0  0  0  0  0
    8.3258   -6.0688   24.3279 H   0  0  0  0  0  0  0  0  0  0  0  0
    7.8949   -6.5948   21.9172 H   0  0  0  0  0  0  0  0  0  0  0  0
    7.4102   -4.7589   20.2982 H   0  0  0  0  0  0  0  0  0  0  0  0
    7.4069   -2.4978   19.8997 H   0  0  0  0  0  0  0  0  0  0  0  0
    6.5987   -0.1511   19.9577 C   0  0  0  0  0  0  0  0  0  0  0  0
    5.4241    0.5886   20.1153 C   0  0  0  0  0  0  0  0  0  0  0  0
    4.8928    1.2518   19.0072 C   0  0  0  0  0  0  0  0  0  0  0  0
    5.5473    1.1427   17.7775 C   0  0  0  0  0  0  0  0  0  0  0  0
    6.6462    0.3943   17.5967 N   0  0  0  0  0  0  0  0  0  0  0  0
    7.1436   -0.2415   18.6667 C   0  0  0  0  0  0  0  0  0  0  0  0
    8.0412   -0.8317   18.4630 H   0  0  0  0  0  0  0  0  0  0  0  0
    5.1807    1.6762   16.8998 H   0  0  0  0  0  0  0  0  0  0  0  0
    4.0069    1.8694   19.0938 H   0  0  0  0  0  0  0  0  0  0  0  0
    4.9429    0.6508   21.0937 H   0  0  0  0  0  0  0  0  0  0  0  0
    6.6987   -0.6325   22.0367 H   0  0  0  0  0  0  0  0  0  0  0  0
    8.6567    0.7797   21.6720 H   0  0  0  0  0  0  0  0  0  0  0  0
    9.2292   -0.8425   22.1209 H   0  0  0  0  0  0  0  0  0  0  0  0
    9.2898   -0.3146   20.4236 H   0  0  0  0  0  0  0  0  0  0  0  0
  1  2  1  0
  2  3  1  0
  3  4  1  0
  4  5  2  0
  5  6  1  0
  6  7  2  0
  7  8  1  0
  8  9  1  0
  9 10  1  0
  9 11  1  0
  9 12  1  0
 12 13  1  0
 12 14  1  0
 12 15  1  0
  8 16  2  0
 16 17  1  0
  7 18  1  0
  6 19  1  0
  5 20  1  0
  3 21  1  0
  2 22  1  0
 22 23  2  0
 23 24  1  0
 24 25  2  0
 25 26  1  0
 26 27  2  0
 27 28  1  0
 25 29  1  0
 24 30  1  0
 23 31  1  0
  2 32  1  0
  1 33  1  0
  1 34  1  0
  1 35  1  0
 16  4  1  0
 27 22  1  0
M  END
>  <cnnaffinity>  (1) 
-4.62134

>  <filename>  (1) 
CC(Nc1cccc(C(F)(F)CF)c1)c1cccnc1

$$$$
