
     RDKit          3D

 44 47  0  0  0  0  0  0  0  0999 V2000
   11.8497    3.1269   22.1892 C   0  0  0  0  0  0  0  0  0  0  0  0
   11.6524    1.6130   22.1624 C   0  0  0  0  0  0  0  0  0  0  0  0
   10.2243    1.2613   22.1624 N   0  0  0  0  0  0  0  0  0  0  0  0
    9.7713    0.2898   21.3296 N   0  0  0  0  0  0  0  0  0  0  0  0
    8.4939    0.1886   21.6484 C   0  0  0  0  0  0  0  0  0  0  0  0
    7.5043   -0.7001   20.9386 C   0  0  0  0  0  0  0  0  0  0  0  0
    6.7027   -0.0286   19.8171 C   0  0  0  0  0  0  0  0  0  0  0  0
    5.4912    0.6240   20.0887 C   0  0  0  0  0  0  0  0  0  0  0  0
    4.8310    1.2998   19.0584 C   0  0  0  0  0  0  0  0  0  0  0  0
    5.4014    1.3017   17.7830 C   0  0  0  0  0  0  0  0  0  0  0  0
    6.5393    0.6558   17.4867 N   0  0  0  0  0  0  0  0  0  0  0  0
    7.1588    0.0121   18.4844 C   0  0  0  0  0  0  0  0  0  0  0  0
    8.0760   -0.5063   18.2037 H   0  0  0  0  0  0  0  0  0  0  0  0
    4.9268    1.8444   16.9657 H   0  0  0  0  0  0  0  0  0  0  0  0
    3.8997    1.8298   19.2322 H   0  0  0  0  0  0  0  0  0  0  0  0
    5.0657    0.6020   21.0947 H   0  0  0  0  0  0  0  0  0  0  0  0
    6.8089   -1.0642   21.7051 H   0  0  0  0  0  0  0  0  0  0  0  0
    8.0569   -1.5594   20.5495 H   0  0  0  0  0  0  0  0  0  0  0  0
    8.1072    0.9893   22.6668 N   0  0  0  0  0  0  0  0  0  0  0  0
    9.1906    1.7007   22.9365 C   0  0  0  0  0  0  0  0  0  0  0  0
    9.1832    2.8207   23.9043 C   0  0  0  0  0  0  0  0  0  0  0  0
    8.9959    4.1856   23.7058 C   0  0  0  0  0  0  0  0  0  0  0  0
    8.5876    4.7027   24.9612 C   0  0  0  0  0  0  0  0  0  0  0  0
    8.6066    3.6896   25.8976 C   0  0  0  0  0  0  0  0  0  0  0  0
    8.0610    4.1936   27.1168 C   0  0  0  0  0  0  0  0  0  0  0  0
    7.7313    5.5040   26.8459 C   0  0  0  0  0  0  0  0  0  0  0  0
    8.0325    5.8307   25.5372 N   0  0  0  0  0  0  0  0  0  0  0  0
    7.5999    6.9961   24.7979 C   0  0  0  0  0  0  0  0  0  0  0  0
    7.4600    7.8358   25.4832 H   0  0  0  0  0  0  0  0  0  0  0  0
    6.6573    6.8138   24.2644 H   0  0  0  0  0  0  0  0  0  0  0  0
    8.3657    7.2606   24.0622 H   0  0  0  0  0  0  0  0  0  0  0  0
    7.2823    6.2392   27.4974 H   0  0  0  0  0  0  0  0  0  0  0  0
    7.9072    3.6692   28.0462 H   0  0  0  0  0  0  0  0  0  0  0  0
    8.9976    2.5325   25.2479 N   0  0  0  0  0  0  0  0  0  0  0  0
    9.0800    1.6249   25.6735 H   0  0  0  0  0  0  0  0  0  0  0  0
    9.0991    4.7296   22.7769 H   0  0  0  0  0  0  0  0  0  0  0  0
   12.4112    0.9425   23.3174 C   0  0  0  0  0  0  0  0  0  0  0  0
   13.7191    1.2658   23.2678 F   0  0  0  0  0  0  0  0  0  0  0  0
   12.3359   -0.3852   23.2894 F   0  0  0  0  0  0  0  0  0  0  0  0
   11.9318    1.3624   24.5080 F   0  0  0  0  0  0  0  0  0  0  0  0
   12.0605    1.1724   21.2485 H   0  0  0  0  0  0  0  0  0  0  0  0
   11.0791    3.5921   21.5822 H   0  0  0  0  0  0  0  0  0  0  0  0
   12.8256    3.4172   21.7954 H   0  0  0  0  0  0  0  0  0  0  0  0
   11.7574    3.5271   23.2031 H   0  0  0  0  0  0  0  0  0  0  0  0
  1  2  1  0
  2  3  1  0
  3  4  1  0
  4  5  2  0
  5  6  1  0
  6  7  1  0
  7  8  2  0
  8  9  1  0
  9 10  2  0
 10 11  1  0
 11 12  2  0
 12 13  1  0
 10 14  1  0
  9 15  1  0
  8 16  1  0
  6 17  1  0
  6 18  1  0
  5 19  1  0
 19 20  2  0
 20 21  1  0
 21 22  2  0
 22 23  1  0
 23 24  2  0
 24 25  1  0
 25 26  2  0
 26 27  1  0
 27 28  1  0
 28 29  1  0
 28 30  1  0
 28 31  1  0
 26 32  1  0
 25 33  1  0
 24 34  1  0
 34 35  1  0
 22 36  1  0
  2 37  1  0
 37 38  1  0
 37 39  1  0
 37 40  1  0
  2 41  1  0
  1 42  1  0
  1 43  1  0
  1 44  1  0
 20  3  1  0
 34 21  1  0
 12  7  1  0
 27 23  1  0
M  END
>  <cnnaffinity>  (1) 
-6.11223

>  <filename>  (1) 
CC(n1nc(Cc2cccnc2)nc1-c1cc2c(ccn2C)[nH]1)C(F)(F)F

$$$$
