
     RDKit          3D

 29 30  0  0  0  0  0  0  0  0999 V2000
    6.9872   -1.9942   21.1406 C   0  0  0  0  0  0  0  0  0  0  0  0
    7.2849   -0.5160   21.1566 C   0  0  0  0  0  0  0  0  0  0  0  0
    8.7261   -0.3059   20.9740 N   0  0  0  0  0  0  0  0  0  0  0  0
    9.3297    0.8648   21.3912 C   0  0  0  0  0  0  0  0  0  0  0  0
   10.7156    0.9930   21.3802 C   0  0  0  0  0  0  0  0  0  0  0  0
   11.3136    2.1687   21.8624 C   0  0  0  0  0  0  0  0  0  0  0  0
   10.5202    3.2082   22.3712 C   0  0  0  0  0  0  0  0  0  0  0  0
   11.1009    4.3270   22.8676 F   0  0  0  0  0  0  0  0  0  0  0  0
    9.1214    3.0858   22.3437 C   0  0  0  0  0  0  0  0  0  0  0  0
    7.9837    4.4916   22.9713 Br  0  0  0  0  0  0  0  0  0  0  0  0
    8.5417    1.9181   21.8495 C   0  0  0  0  0  0  0  0  0  0  0  0
    7.4629    1.8112   21.8369 H   0  0  0  0  0  0  0  0  0  0  0  0
   12.3951    2.2797   21.8553 H   0  0  0  0  0  0  0  0  0  0  0  0
   11.3128    0.1654   21.0159 H   0  0  0  0  0  0  0  0  0  0  0  0
    9.3045   -1.0539   20.5966 H   0  0  0  0  0  0  0  0  0  0  0  0
    6.5782    0.1383   20.0237 C   0  0  0  0  0  0  0  0  0  0  0  0
    5.3486    0.7751   20.1813 C   0  0  0  0  0  0  0  0  0  0  0  0
    4.7841    1.3567   19.0481 C   0  0  0  0  0  0  0  0  0  0  0  0
    5.4564    1.2939   17.8188 C   0  0  0  0  0  0  0  0  0  0  0  0
    6.6346    0.6628   17.6753 N   0  0  0  0  0  0  0  0  0  0  0  0
    7.1743    0.0963   18.7640 C   0  0  0  0  0  0  0  0  0  0  0  0
    8.1210   -0.4245   18.6707 H   0  0  0  0  0  0  0  0  0  0  0  0
    5.0084    1.7620   16.9470 H   0  0  0  0  0  0  0  0  0  0  0  0
    3.8295    1.8638   19.1064 H   0  0  0  0  0  0  0  0  0  0  0  0
    4.8471    0.8203   21.1473 H   0  0  0  0  0  0  0  0  0  0  0  0
    6.9527   -0.0938   22.1133 H   0  0  0  0  0  0  0  0  0  0  0  0
    5.9598   -2.1742   21.4648 H   0  0  0  0  0  0  0  0  0  0  0  0
    7.6542   -2.5041   21.8318 H   0  0  0  0  0  0  0  0  0  0  0  0
    7.1330   -2.3975   20.1341 H   0  0  0  0  0  0  0  0  0  0  0  0
  1  2  1  0
  2  3  1  0
  3  4  1  0
  4  5  2  0
  5  6  1  0
  6  7  2  0
  7  8  1  0
  7  9  1  0
  9 10  1  0
  9 11  2  0
 11 12  1  0
  6 13  1  0
  5 14  1  0
  3 15  1  0
  2 16  1  0
 16 17  2  0
 17 18  1  0
 18 19  2  0
 19 20  1  0
 20 21  2  0
 21 22  1  0
 19 23  1  0
 18 24  1  0
 17 25  1  0
  2 26  1  0
  1 27  1  0
  1 28  1  0
  1 29  1  0
 11  4  1  0
 21 16  1  0
M  END
>  <cnnaffinity>  (1) 
-4.91033

>  <filename>  (1) 
CC(Nc1ccc(F)c(Br)c1)c1cccnc1

$$$$
