
     RDKit          3D

 45 48  0  0  0  0  0  0  0  0999 V2000
   11.8396    2.4184   21.1728 C   0  0  0  0  0  0  0  0  0  0  0  0
   11.4216    1.6809   22.4519 C   0  0  0  0  0  0  0  0  0  0  0  0
   10.0116    1.2781   22.3986 N   0  0  0  0  0  0  0  0  0  0  0  0
    9.6448    0.3134   21.5239 N   0  0  0  0  0  0  0  0  0  0  0  0
    8.3359    0.2444   21.6896 C   0  0  0  0  0  0  0  0  0  0  0  0
    7.4869   -0.7030   20.8847 C   0  0  0  0  0  0  0  0  0  0  0  0
    6.7091   -0.0464   19.7419 C   0  0  0  0  0  0  0  0  0  0  0  0
    5.5232    0.6480   20.0209 C   0  0  0  0  0  0  0  0  0  0  0  0
    4.8682    1.3178   18.9851 C   0  0  0  0  0  0  0  0  0  0  0  0
    5.4262    1.2808   17.7056 C   0  0  0  0  0  0  0  0  0  0  0  0
    6.5524    0.6142   17.4087 N   0  0  0  0  0  0  0  0  0  0  0  0
    7.1650   -0.0312   18.4094 C   0  0  0  0  0  0  0  0  0  0  0  0
    8.0877   -0.5501   18.1432 H   0  0  0  0  0  0  0  0  0  0  0  0
    4.9496    1.8072   16.8808 H   0  0  0  0  0  0  0  0  0  0  0  0
    3.9551    1.8770   19.1562 H   0  0  0  0  0  0  0  0  0  0  0  0
    5.1424    0.6796   21.0439 H   0  0  0  0  0  0  0  0  0  0  0  0
    6.7832   -1.1729   21.5845 H   0  0  0  0  0  0  0  0  0  0  0  0
    8.1527   -1.4887   20.5118 H   0  0  0  0  0  0  0  0  0  0  0  0
    7.8366    1.0951   22.6170 N   0  0  0  0  0  0  0  0  0  0  0  0
    8.9035    1.7628   23.0307 C   0  0  0  0  0  0  0  0  0  0  0  0
    8.9512    2.8707   24.0097 C   0  0  0  0  0  0  0  0  0  0  0  0
    9.6558    4.0802   23.7309 C   0  0  0  0  0  0  0  0  0  0  0  0
    9.6295    5.1615   24.6017 C   0  0  0  0  0  0  0  0  0  0  0  0
    8.9347    5.0039   25.8122 C   0  0  0  0  0  0  0  0  0  0  0  0
    8.2077    3.8278   26.1036 C   0  0  0  0  0  0  0  0  0  0  0  0
    8.2269    2.7556   25.2036 C   0  0  0  0  0  0  0  0  0  0  0  0
    7.6750    1.8521   25.4525 H   0  0  0  0  0  0  0  0  0  0  0  0
    7.5544    3.9626   27.3203 N   0  0  0  0  0  0  0  0  0  0  0  0
    7.8977    5.1473   27.7374 C   0  0  0  0  0  0  0  0  0  0  0  0
    8.7428    5.8317   26.9005 N   0  0  0  0  0  0  0  0  0  0  0  0
    9.3126    7.1484   27.1279 C   0  0  0  0  0  0  0  0  0  0  0  0
    8.7457    7.9332   26.6131 H   0  0  0  0  0  0  0  0  0  0  0  0
    9.3147    7.3582   28.2019 H   0  0  0  0  0  0  0  0  0  0  0  0
   10.3510    7.1659   26.7865 H   0  0  0  0  0  0  0  0  0  0  0  0
    7.5866    5.5899   28.6799 H   0  0  0  0  0  0  0  0  0  0  0  0
   10.1201    6.0918   24.3486 H   0  0  0  0  0  0  0  0  0  0  0  0
   10.2158    4.1831   22.8023 H   0  0  0  0  0  0  0  0  0  0  0  0
   12.3301    0.4740   22.7770 C   0  0  0  0  0  0  0  0  0  0  0  0
   13.6253    0.8506   22.6895 F   0  0  0  0  0  0  0  0  0  0  0  0
   12.1712   -0.5592   21.9511 F   0  0  0  0  0  0  0  0  0  0  0  0
   12.1443    0.0589   24.0447 F   0  0  0  0  0  0  0  0  0  0  0  0
   11.5488    2.3144   23.3291 H   0  0  0  0  0  0  0  0  0  0  0  0
   12.1451    1.7050   20.4109 H   0  0  0  0  0  0  0  0  0  0  0  0
   12.6696    3.1006   21.3702 H   0  0  0  0  0  0  0  0  0  0  0  0
   11.0058    2.9741   20.7439 H   0  0  0  0  0  0  0  0  0  0  0  0
  1  2  1  0
  2  3  1  0
  3  4  1  0
  4  5  2  0
  5  6  1  0
  6  7  1  0
  7  8  2  0
  8  9  1  0
  9 10  2  0
 10 11  1  0
 11 12  2  0
 12 13  1  0
 10 14  1  0
  9 15  1  0
  8 16  1  0
  6 17  1  0
  6 18  1  0
  5 19  1  0
 19 20  2  0
 20 21  1  0
 21 22  2  0
 22 23  1  0
 23 24  2  0
 24 25  1  0
 25 26  2  0
 26 27  1  0
 25 28  1  0
 28 29  2  0
 29 30  1  0
 30 31  1  0
 31 32  1  0
 31 33  1  0
 31 34  1  0
 29 35  1  0
 23 36  1  0
 22 37  1  0
  2 38  1  0
 38 39  1  0
 38 40  1  0
 38 41  1  0
  2 42  1  0
  1 43  1  0
  1 44  1  0
  1 45  1  0
 20  3  1  0
 26 21  1  0
 12  7  1  0
 30 24  1  0
M  END
>  <cnnaffinity>  (1) 
-5.96494

>  <filename>  (1) 
CC(n1nc(Cc2cccnc2)nc1-c1ccc2c(c1)ncn2C)C(F)(F)F

$$$$
