
     RDKit          3D

 42 45  0  0  0  0  0  0  0  0999 V2000
   11.8973    2.3679   21.0615 C   0  0  0  0  0  0  0  0  0  0  0  0
   11.4748    1.6450   22.3394 C   0  0  0  0  0  0  0  0  0  0  0  0
   10.0362    1.3470   22.2793 N   0  0  0  0  0  0  0  0  0  0  0  0
    9.6076    0.4639   21.3499 N   0  0  0  0  0  0  0  0  0  0  0  0
    8.3387    0.2873   21.6633 C   0  0  0  0  0  0  0  0  0  0  0  0
    7.4715   -0.6667   20.8966 C   0  0  0  0  0  0  0  0  0  0  0  0
    6.6882   -0.0249   19.7643 C   0  0  0  0  0  0  0  0  0  0  0  0
    5.4851    0.6314   20.0543 C   0  0  0  0  0  0  0  0  0  0  0  0
    4.8251    1.3111   19.0313 C   0  0  0  0  0  0  0  0  0  0  0  0
    5.3925    1.3081   17.7533 C   0  0  0  0  0  0  0  0  0  0  0  0
    6.5256    0.6563   17.4449 N   0  0  0  0  0  0  0  0  0  0  0  0
    7.1428    0.0029   18.4366 C   0  0  0  0  0  0  0  0  0  0  0  0
    8.0535   -0.5365   18.1694 H   0  0  0  0  0  0  0  0  0  0  0  0
    4.9193    1.8481   16.9363 H   0  0  0  0  0  0  0  0  0  0  0  0
    3.8971    1.8429   19.2131 H   0  0  0  0  0  0  0  0  0  0  0  0
    5.0892    0.6005   21.0725 H   0  0  0  0  0  0  0  0  0  0  0  0
    6.7628   -1.0871   21.6161 H   0  0  0  0  0  0  0  0  0  0  0  0
    8.1163   -1.4708   20.5256 H   0  0  0  0  0  0  0  0  0  0  0  0
    7.9066    1.0275   22.7095 N   0  0  0  0  0  0  0  0  0  0  0  0
    8.9845    1.7233   23.0593 C   0  0  0  0  0  0  0  0  0  0  0  0
    9.1295    2.8293   24.0587 C   0  0  0  0  0  0  0  0  0  0  0  0
    9.6235    4.0810   23.7131 C   0  0  0  0  0  0  0  0  0  0  0  0
    9.7057    5.0948   24.7067 C   0  0  0  0  0  0  0  0  0  0  0  0
   10.1228    6.4072   24.7734 C   0  0  0  0  0  0  0  0  0  0  0  0
    9.9120    6.8653   26.0935 C   0  0  0  0  0  0  0  0  0  0  0  0
    9.3710    5.8380   26.8207 C   0  0  0  0  0  0  0  0  0  0  0  0
    9.2449    4.7478   25.9919 N   0  0  0  0  0  0  0  0  0  0  0  0
    8.7840    3.4731   26.2522 C   0  0  0  0  0  0  0  0  0  0  0  0
    8.7321    2.5378   25.3507 N   0  0  0  0  0  0  0  0  0  0  0  0
    8.4556    3.2693   27.2668 H   0  0  0  0  0  0  0  0  0  0  0  0
    9.0445    5.7881   27.8475 H   0  0  0  0  0  0  0  0  0  0  0  0
   10.1315    7.8508   26.4798 H   0  0  0  0  0  0  0  0  0  0  0  0
   10.5300    6.9757   23.9494 H   0  0  0  0  0  0  0  0  0  0  0  0
    9.8981    4.3338   22.7014 H   0  0  0  0  0  0  0  0  0  0  0  0
   12.2724    0.3529   22.6771 C   0  0  0  0  0  0  0  0  0  0  0  0
   12.1506    0.0532   23.9857 F   0  0  0  0  0  0  0  0  0  0  0  0
   13.5873    0.5581   22.4523 F   0  0  0  0  0  0  0  0  0  0  0  0
   11.9146   -0.7288   21.9884 F   0  0  0  0  0  0  0  0  0  0  0  0
   11.6681    2.2909   23.1999 H   0  0  0  0  0  0  0  0  0  0  0  0
   11.0949    3.0319   20.7517 H   0  0  0  0  0  0  0  0  0  0  0  0
   12.7973    2.9648   21.2147 H   0  0  0  0  0  0  0  0  0  0  0  0
   12.0489    1.6712   20.2473 H   0  0  0  0  0  0  0  0  0  0  0  0
  1  2  1  0
  2  3  1  0
  3  4  1  0
  4  5  2  0
  5  6  1  0
  6  7  1  0
  7  8  2  0
  8  9  1  0
  9 10  2  0
 10 11  1  0
 11 12  2  0
 12 13  1  0
 10 14  1  0
  9 15  1  0
  8 16  1  0
  6 17  1  0
  6 18  1  0
  5 19  1  0
 19 20  2  0
 20 21  1  0
 21 22  2  0
 22 23  1  0
 23 24  2  0
 24 25  1  0
 25 26  2  0
 26 27  1  0
 27 28  1  0
 28 29  2  0
 28 30  1  0
 26 31  1  0
 25 32  1  0
 24 33  1  0
 22 34  1  0
  2 35  1  0
 35 36  1  0
 35 37  1  0
 35 38  1  0
  2 39  1  0
  1 40  1  0
  1 41  1  0
  1 42  1  0
 20  3  1  0
 29 21  1  0
 12  7  1  0
 27 23  1  0
M  END
>  <cnnaffinity>  (1) 
-5.91308

>  <filename>  (1) 
CC(n1nc(Cc2cccnc2)nc1-c1cc2cccn2cn1)C(F)(F)F

$$$$
