
     RDKit          3D

 32 33  0  0  0  0  0  0  0  0999 V2000
   10.9136   -2.8836   23.1231 C   0  0  0  0  0  0  0  0  0  0  0  0
   10.6644   -1.6406   22.2863 C   0  0  0  0  0  0  0  0  0  0  0  0
    9.2457   -1.5778   21.9635 N   0  0  0  0  0  0  0  0  0  0  0  0
    8.7983   -0.6686   21.0611 C   0  0  0  0  0  0  0  0  0  0  0  0
    9.5348    0.0441   20.3995 O   0  0  0  0  0  0  0  0  0  0  0  0
    7.4193   -0.7106   20.9258 N   0  0  0  0  0  0  0  0  0  0  0  0
    6.7082   -0.0407   19.9003 C   0  0  0  0  0  0  0  0  0  0  0  0
    5.4871    0.5841   20.1792 C   0  0  0  0  0  0  0  0  0  0  0  0
    4.8355    1.2652   19.1443 C   0  0  0  0  0  0  0  0  0  0  0  0
    5.4125    1.2770   17.8716 C   0  0  0  0  0  0  0  0  0  0  0  0
    6.5688    0.6588   17.5790 N   0  0  0  0  0  0  0  0  0  0  0  0
    7.2047    0.0305   18.5720 C   0  0  0  0  0  0  0  0  0  0  0  0
    8.1669   -0.4306   18.3509 H   0  0  0  0  0  0  0  0  0  0  0  0
    4.9376    1.7953   17.0442 H   0  0  0  0  0  0  0  0  0  0  0  0
    3.9068    1.7998   19.3103 H   0  0  0  0  0  0  0  0  0  0  0  0
    5.0862    0.5748   21.1923 H   0  0  0  0  0  0  0  0  0  0  0  0
    6.9155   -1.0921   21.7103 H   0  0  0  0  0  0  0  0  0  0  0  0
    8.5710   -2.0301   22.5498 H   0  0  0  0  0  0  0  0  0  0  0  0
   11.1720   -0.3818   22.9905 C   0  0  0  0  0  0  0  0  0  0  0  0
   12.3227    0.3240   22.5951 C   0  0  0  0  0  0  0  0  0  0  0  0
   12.6914    1.4857   23.2707 C   0  0  0  0  0  0  0  0  0  0  0  0
   11.9985    1.9811   24.3063 N   0  0  0  0  0  0  0  0  0  0  0  0
   10.9138    1.3205   24.6853 C   0  0  0  0  0  0  0  0  0  0  0  0
    9.9357    2.0117   25.9297 Cl  0  0  0  0  0  0  0  0  0  0  0  0
   10.4890    0.1136   24.0981 C   0  0  0  0  0  0  0  0  0  0  0  0
    9.4286   -0.5446   24.6026 F   0  0  0  0  0  0  0  0  0  0  0  0
   13.5707    2.0447   22.9671 H   0  0  0  0  0  0  0  0  0  0  0  0
   12.9238   -0.0239   21.7662 H   0  0  0  0  0  0  0  0  0  0  0  0
   11.1934   -1.7140   21.3286 H   0  0  0  0  0  0  0  0  0  0  0  0
   10.2676   -3.7008   22.7957 H   0  0  0  0  0  0  0  0  0  0  0  0
   10.6985   -2.7102   24.1811 H   0  0  0  0  0  0  0  0  0  0  0  0
   11.9543   -3.2020   23.0343 H   0  0  0  0  0  0  0  0  0  0  0  0
  1  2  1  0
  2  3  1  0
  3  4  1  0
  4  5  2  0
  4  6  1  0
  6  7  1  0
  7  8  2  0
  8  9  1  0
  9 10  2  0
 10 11  1  0
 11 12  2  0
 12 13  1  0
 10 14  1  0
  9 15  1  0
  8 16  1  0
  6 17  1  0
  3 18  1  0
  2 19  1  0
 19 20  2  0
 20 21  1  0
 21 22  2  0
 22 23  1  0
 23 24  1  0
 23 25  2  0
 25 26  1  0
 21 27  1  0
 20 28  1  0
  2 29  1  0
  1 30  1  0
  1 31  1  0
  1 32  1  0
 12  7  1  0
 25 19  1  0
M  END
>  <cnnaffinity>  (1) 
-5.06314

>  <filename>  (1) 
CC(NC(=O)Nc1cccnc1)c1ccnc(Cl)c1F

$$$$
