
     RDKit          3D

 33 35  0  0  0  0  0  0  0  0999 V2000
    7.8204    0.2246   22.1026 C   0  0  0  0  0  0  0  0  0  0  0  0
    7.5158   -0.7072   20.9414 C   0  0  0  0  0  0  0  0  0  0  0  0
    6.6723   -1.8232   21.3523 N   0  0  0  0  0  0  0  0  0  0  0  0
    7.1091   -2.8744   22.1570 C   0  0  0  0  0  0  0  0  0  0  0  0
    8.4440   -2.8878   22.3288 N   0  0  0  0  0  0  0  0  0  0  0  0
    8.9898   -3.8433   23.0894 C   0  0  0  0  0  0  0  0  0  0  0  0
    8.2222   -4.8197   23.7305 C   0  0  0  0  0  0  0  0  0  0  0  0
    6.8266   -4.7970   23.6109 C   0  0  0  0  0  0  0  0  0  0  0  0
    6.0406   -5.7152   24.3041 C   0  0  0  0  0  0  0  0  0  0  0  0
    4.6709   -5.7640   24.0519 C   0  0  0  0  0  0  0  0  0  0  0  0
    3.5836   -7.1536   24.8138 Br  0  0  0  0  0  0  0  0  0  0  0  0
    4.1129   -4.8198   23.1756 C   0  0  0  0  0  0  0  0  0  0  0  0
    4.8523   -3.8735   22.5580 N   0  0  0  0  0  0  0  0  0  0  0  0
    6.2124   -3.8408   22.7605 C   0  0  0  0  0  0  0  0  0  0  0  0
    3.0435   -4.8519   22.9848 H   0  0  0  0  0  0  0  0  0  0  0  0
    6.4960   -6.3896   25.0207 H   0  0  0  0  0  0  0  0  0  0  0  0
    8.7147   -5.6031   24.3042 H   0  0  0  0  0  0  0  0  0  0  0  0
   10.0711   -3.8766   23.2058 H   0  0  0  0  0  0  0  0  0  0  0  0
    5.6910   -1.5906   21.4386 H   0  0  0  0  0  0  0  0  0  0  0  0
    6.6980   -0.0090   19.9036 C   0  0  0  0  0  0  0  0  0  0  0  0
    5.4739    0.6264   20.1738 C   0  0  0  0  0  0  0  0  0  0  0  0
    4.8371    1.2723   19.1159 C   0  0  0  0  0  0  0  0  0  0  0  0
    5.4216    1.2603   17.8458 C   0  0  0  0  0  0  0  0  0  0  0  0
    6.5738    0.6157   17.5853 N   0  0  0  0  0  0  0  0  0  0  0  0
    7.1917   -0.0047   18.6014 C   0  0  0  0  0  0  0  0  0  0  0  0
    8.1344   -0.5069   18.4044 H   0  0  0  0  0  0  0  0  0  0  0  0
    4.9313    1.8069   17.0469 H   0  0  0  0  0  0  0  0  0  0  0  0
    3.9042    1.8065   19.2643 H   0  0  0  0  0  0  0  0  0  0  0  0
    5.0367    0.6327   21.1730 H   0  0  0  0  0  0  0  0  0  0  0  0
    8.4645   -1.0620   20.5194 H   0  0  0  0  0  0  0  0  0  0  0  0
    8.4280   -0.2805   22.8584 H   0  0  0  0  0  0  0  0  0  0  0  0
    6.8871    0.5587   22.5593 H   0  0  0  0  0  0  0  0  0  0  0  0
    8.3740    1.1009   21.7503 H   0  0  0  0  0  0  0  0  0  0  0  0
  1  2  1  0
  2  3  1  0
  3  4  1  0
  4  5  2  0
  5  6  1  0
  6  7  2  0
  7  8  1  0
  8  9  2  0
  9 10  1  0
 10 11  1  0
 10 12  2  0
 12 13  1  0
 13 14  2  0
 12 15  1  0
  9 16  1  0
  7 17  1  0
  6 18  1  0
  3 19  1  0
  2 20  1  0
 20 21  2  0
 21 22  1  0
 22 23  2  0
 23 24  1  0
 24 25  2  0
 25 26  1  0
 23 27  1  0
 22 28  1  0
 21 29  1  0
  2 30  1  0
  1 31  1  0
  1 32  1  0
  1 33  1  0
 14  4  1  0
 25 20  1  0
 14  8  1  0
M  END
>  <cnnaffinity>  (1) 
-5.61081

>  <filename>  (1) 
CC(Nc1nccc2cc(Br)cnc12)c1cccnc1

$$$$
