
     RDKit          3D

 34 36  0  0  0  0  0  0  0  0999 V2000
    8.7290   -0.0230   21.4150 C   0  0  0  0  0  0  0  0  0  0  0  0
    7.4195   -0.7526   21.0980 C   0  0  0  0  0  0  0  0  0  0  0  0
    7.7388   -2.1380   20.7063 N   0  0  0  0  0  0  0  0  0  0  0  0
    7.8126   -3.0596   21.7666 C   0  0  0  0  0  0  0  0  0  0  0  0
    8.9944   -3.3527   22.4208 C   0  0  0  0  0  0  0  0  0  0  0  0
    9.0212   -4.3051   23.4748 C   0  0  0  0  0  0  0  0  0  0  0  0
    7.8558   -4.8997   23.9001 C   0  0  0  0  0  0  0  0  0  0  0  0
    6.6146   -4.5480   23.3006 C   0  0  0  0  0  0  0  0  0  0  0  0
    5.3689   -5.0564   23.7477 C   0  0  0  0  0  0  0  0  0  0  0  0
    4.2168   -4.6673   23.1095 C   0  0  0  0  0  0  0  0  0  0  0  0
    4.1938   -3.8515   22.0217 N   0  0  0  0  0  0  0  0  0  0  0  0
    5.3432   -3.3629   21.5887 C   0  0  0  0  0  0  0  0  0  0  0  0
    6.5948   -3.6439   22.2026 C   0  0  0  0  0  0  0  0  0  0  0  0
    5.3273   -2.7311   20.6971 H   0  0  0  0  0  0  0  0  0  0  0  0
    3.2422   -5.0037   23.4662 H   0  0  0  0  0  0  0  0  0  0  0  0
    5.3475   -5.7454   24.5838 H   0  0  0  0  0  0  0  0  0  0  0  0
    7.8529   -5.6351   24.6980 H   0  0  0  0  0  0  0  0  0  0  0  0
    9.9630   -4.5581   23.9568 H   0  0  0  0  0  0  0  0  0  0  0  0
    9.9064   -2.8410   22.1233 H   0  0  0  0  0  0  0  0  0  0  0  0
    8.6259   -2.1343   20.2171 H   0  0  0  0  0  0  0  0  0  0  0  0
    6.6510   -0.0972   19.9768 C   0  0  0  0  0  0  0  0  0  0  0  0
    5.4696    0.6335   20.1701 C   0  0  0  0  0  0  0  0  0  0  0  0
    4.9009    1.2905   19.0758 C   0  0  0  0  0  0  0  0  0  0  0  0
    5.5220    1.1847   17.8273 C   0  0  0  0  0  0  0  0  0  0  0  0
    6.6277    0.4559   17.6161 N   0  0  0  0  0  0  0  0  0  0  0  0
    7.1581   -0.1736   18.6722 C   0  0  0  0  0  0  0  0  0  0  0  0
    8.0514   -0.7634   18.4625 H   0  0  0  0  0  0  0  0  0  0  0  0
    5.1122    1.6963   16.9575 H   0  0  0  0  0  0  0  0  0  0  0  0
    4.0022    1.8872   19.1791 H   0  0  0  0  0  0  0  0  0  0  0  0
    5.0067    0.6906   21.1583 H   0  0  0  0  0  0  0  0  0  0  0  0
    6.7797   -0.7738   21.9954 H   0  0  0  0  0  0  0  0  0  0  0  0
    9.2857   -0.5404   22.2056 H   0  0  0  0  0  0  0  0  0  0  0  0
    8.5465    1.0061   21.7358 H   0  0  0  0  0  0  0  0  0  0  0  0
    9.3658   -0.0100   20.5205 H   0  0  0  0  0  0  0  0  0  0  0  0
  1  2  1  0
  2  3  1  0
  3  4  1  0
  4  5  2  0
  5  6  1  0
  6  7  2  0
  7  8  1  0
  8  9  2  0
  9 10  1  0
 10 11  2  0
 11 12  1  0
 12 13  2  0
 12 14  1  0
 10 15  1  0
  9 16  1  0
  7 17  1  0
  6 18  1  0
  5 19  1  0
  3 20  1  0
  2 21  1  0
 21 22  2  0
 22 23  1  0
 23 24  2  0
 24 25  1  0
 25 26  2  0
 26 27  1  0
 24 28  1  0
 23 29  1  0
 22 30  1  0
  2 31  1  0
  1 32  1  0
  1 33  1  0
  1 34  1  0
 13  4  1  0
 26 21  1  0
 13  8  1  0
M  END
>  <cnnaffinity>  (1) 
-4.99875

>  <filename>  (1) 
CC(Nc1cccc2ccncc12)c1cccnc1

$$$$
