
     RDKit          3D

 33 35  0  0  0  0  0  0  0  0999 V2000
    7.5791   -2.0661   20.8411 C   0  0  0  0  0  0  0  0  0  0  0  0
    7.2764   -0.6297   21.1804 C   0  0  0  0  0  0  0  0  0  0  0  0
    8.5772   -0.0006   21.2901 N   0  0  0  0  0  0  0  0  0  0  0  0
    9.2364    0.2260   22.4840 C   0  0  0  0  0  0  0  0  0  0  0  0
    8.8234   -0.5187   23.5879 C   0  0  0  0  0  0  0  0  0  0  0  0
    9.3939   -0.2972   24.8338 C   0  0  0  0  0  0  0  0  0  0  0  0
   10.3419    0.6263   25.0069 N   0  0  0  0  0  0  0  0  0  0  0  0
   10.7547    1.3351   23.9313 C   0  0  0  0  0  0  0  0  0  0  0  0
   11.7236    2.2954   24.1467 C   0  0  0  0  0  0  0  0  0  0  0  0
   12.1956    3.0772   23.0830 C   0  0  0  0  0  0  0  0  0  0  0  0
   13.5380    4.4094   23.3862 Br  0  0  0  0  0  0  0  0  0  0  0  0
   11.6751    2.8668   21.7960 C   0  0  0  0  0  0  0  0  0  0  0  0
   10.7340    1.9328   21.5569 N   0  0  0  0  0  0  0  0  0  0  0  0
   10.2669    1.1831   22.6110 C   0  0  0  0  0  0  0  0  0  0  0  0
   12.0342    3.4755   20.9707 H   0  0  0  0  0  0  0  0  0  0  0  0
   12.0777    2.4065   25.1602 H   0  0  0  0  0  0  0  0  0  0  0  0
    9.0725   -0.8693   25.6995 H   0  0  0  0  0  0  0  0  0  0  0  0
    8.0519   -1.2719   23.4758 H   0  0  0  0  0  0  0  0  0  0  0  0
    9.0229    0.2806   20.4237 H   0  0  0  0  0  0  0  0  0  0  0  0
    6.6085    0.0594   20.0396 C   0  0  0  0  0  0  0  0  0  0  0  0
    5.3833    0.7064   20.2176 C   0  0  0  0  0  0  0  0  0  0  0  0
    4.8149    1.3128   19.1036 C   0  0  0  0  0  0  0  0  0  0  0  0
    5.4765    1.2657   17.8732 C   0  0  0  0  0  0  0  0  0  0  0  0
    6.6535    0.6335   17.6984 N   0  0  0  0  0  0  0  0  0  0  0  0
    7.2101    0.0477   18.7704 C   0  0  0  0  0  0  0  0  0  0  0  0
    8.1578   -0.4701   18.6291 H   0  0  0  0  0  0  0  0  0  0  0  0
    5.0167    1.7577   17.0250 H   0  0  0  0  0  0  0  0  0  0  0  0
    3.8655    1.8304   19.1810 H   0  0  0  0  0  0  0  0  0  0  0  0
    4.8977    0.7383   21.1927 H   0  0  0  0  0  0  0  0  0  0  0  0
    6.6829   -0.5387   22.1037 H   0  0  0  0  0  0  0  0  0  0  0  0
    7.9000   -2.5989   21.7405 H   0  0  0  0  0  0  0  0  0  0  0  0
    8.4050   -2.0667   20.1270 H   0  0  0  0  0  0  0  0  0  0  0  0
    6.6977   -2.5451   20.4018 H   0  0  0  0  0  0  0  0  0  0  0  0
  1  2  1  0
  2  3  1  0
  3  4  1  0
  4  5  2  0
  5  6  1  0
  6  7  2  0
  7  8  1  0
  8  9  2  0
  9 10  1  0
 10 11  1  0
 10 12  2  0
 12 13  1  0
 13 14  2  0
 12 15  1  0
  9 16  1  0
  6 17  1  0
  5 18  1  0
  3 19  1  0
  2 20  1  0
 20 21  2  0
 21 22  1  0
 22 23  2  0
 23 24  1  0
 24 25  2  0
 25 26  1  0
 23 27  1  0
 22 28  1  0
 21 29  1  0
  2 30  1  0
  1 31  1  0
  1 32  1  0
  1 33  1  0
 14  4  1  0
 25 20  1  0
 14  8  1  0
M  END
>  <cnnaffinity>  (1) 
-5.45184

>  <filename>  (1) 
CC(Nc1ccnc2cc(Br)cnc12)c1cccnc1

$$$$
