
     RDKit          3D

 40 41  0  0  0  0  0  0  0  0999 V2000
    8.7749   -0.0851   21.2887 C   0  0  0  0  0  0  0  0  0  0  0  0
    7.3761   -0.6805   21.0744 C   0  0  0  0  0  0  0  0  0  0  0  0
    7.4082   -2.1187   20.8657 N   0  0  0  0  0  0  0  0  0  0  0  0
    7.9214   -2.9501   21.8204 C   0  0  0  0  0  0  0  0  0  0  0  0
    8.2042   -2.6169   22.9557 O   0  0  0  0  0  0  0  0  0  0  0  0
    8.0705   -4.2332   21.3218 N   0  0  0  0  0  0  0  0  0  0  0  0
    8.1896   -5.3226   22.2839 C   0  0  0  0  0  0  0  0  0  0  0  0
    6.9167   -5.5896   23.0521 C   0  0  0  0  0  0  0  0  0  0  0  0
    5.7597   -6.0598   22.5761 C   0  0  0  0  0  0  0  0  0  0  0  0
    4.5373   -6.2857   23.3864 C   0  0  0  0  0  0  0  0  0  0  0  0
    4.4118   -5.8943   24.7311 C   0  0  0  0  0  0  0  0  0  0  0  0
    3.2856   -6.2611   25.4731 C   0  0  0  0  0  0  0  0  0  0  0  0
    2.2318   -6.9576   24.8716 C   0  0  0  0  0  0  0  0  0  0  0  0
    2.2990   -7.2759   23.5141 C   0  0  0  0  0  0  0  0  0  0  0  0
    3.4500   -6.9528   22.7912 C   0  0  0  0  0  0  0  0  0  0  0  0
    3.5097   -7.2099   21.7404 H   0  0  0  0  0  0  0  0  0  0  0  0
    1.4733   -7.7865   23.0200 H   0  0  0  0  0  0  0  0  0  0  0  0
    1.3585   -7.2445   25.4516 H   0  0  0  0  0  0  0  0  0  0  0  0
    3.2279   -5.9945   26.5215 H   0  0  0  0  0  0  0  0  0  0  0  0
    5.1822   -5.2841   25.1982 H   0  0  0  0  0  0  0  0  0  0  0  0
    5.6574   -6.3598   21.5295 H   0  0  0  0  0  0  0  0  0  0  0  0
    6.9888   -5.3613   24.1117 H   0  0  0  0  0  0  0  0  0  0  0  0
    8.5295   -6.2097   21.7362 H   0  0  0  0  0  0  0  0  0  0  0  0
    8.9832   -5.0667   22.9913 H   0  0  0  0  0  0  0  0  0  0  0  0
    7.3708   -4.3827   20.6108 H   0  0  0  0  0  0  0  0  0  0  0  0
    7.5006   -2.4430   19.9199 H   0  0  0  0  0  0  0  0  0  0  0  0
    6.6343   -0.0622   19.9160 C   0  0  0  0  0  0  0  0  0  0  0  0
    5.4199    0.6060   20.1079 C   0  0  0  0  0  0  0  0  0  0  0  0
    4.8348    1.2690   19.0299 C   0  0  0  0  0  0  0  0  0  0  0  0
    5.4748    1.2219   17.7882 C   0  0  0  0  0  0  0  0  0  0  0  0
    6.6029    0.5316   17.5661 N   0  0  0  0  0  0  0  0  0  0  0  0
    7.1517   -0.1055   18.6112 C   0  0  0  0  0  0  0  0  0  0  0  0
    8.0638   -0.6634   18.3809 H   0  0  0  0  0  0  0  0  0  0  0  0
    5.0654    1.7591   16.9352 H   0  0  0  0  0  0  0  0  0  0  0  0
    3.9189    1.8348   19.1475 H   0  0  0  0  0  0  0  0  0  0  0  0
    4.9494    0.5999   21.0931 H   0  0  0  0  0  0  0  0  0  0  0  0
    6.8006   -0.4984   21.9930 H   0  0  0  0  0  0  0  0  0  0  0  0
    9.4131   -0.2306   20.4093 H   0  0  0  0  0  0  0  0  0  0  0  0
    8.7010    0.9868   21.4942 H   0  0  0  0  0  0  0  0  0  0  0  0
    9.2443   -0.5769   22.1457 H   0  0  0  0  0  0  0  0  0  0  0  0
  1  2  1  0
  2  3  1  0
  3  4  1  0
  4  5  2  0
  4  6  1  0
  6  7  1  0
  7  8  1  0
  8  9  2  3
  9 10  1  0
 10 11  2  0
 11 12  1  0
 12 13  2  0
 13 14  1  0
 14 15  2  0
 15 16  1  0
 14 17  1  0
 13 18  1  0
 12 19  1  0
 11 20  1  0
  9 21  1  0
  8 22  1  0
  7 23  1  0
  7 24  1  0
  6 25  1  0
  3 26  1  0
  2 27  1  0
 27 28  2  0
 28 29  1  0
 29 30  2  0
 30 31  1  0
 31 32  2  0
 32 33  1  0
 30 34  1  0
 29 35  1  0
 28 36  1  0
  2 37  1  0
  1 38  1  0
  1 39  1  0
  1 40  1  0
 15 10  1  0
 32 27  1  0
M  END
>  <cnnaffinity>  (1) 
-4.87449

>  <filename>  (1) 
CC(NC(=O)NCC=Cc1ccccc1)c1cccnc1

$$$$
