
     RDKit          3D

 37 38  0  0  0  0  0  0  0  0999 V2000
    6.7057   -2.0095   21.3667 C   0  0  0  0  0  0  0  0  0  0  0  0
    7.4009   -0.7321   20.9096 C   0  0  0  0  0  0  0  0  0  0  0  0
    7.6272    0.1334   22.0492 N   0  0  0  0  0  0  0  0  0  0  0  0
    8.3657    1.2777   21.9763 C   0  0  0  0  0  0  0  0  0  0  0  0
    9.0753    1.5205   21.0149 O   0  0  0  0  0  0  0  0  0  0  0  0
    8.2503    2.1520   23.2437 C   0  0  0  0  0  0  0  0  0  0  0  0
    8.7374    3.5975   23.0595 C   0  0  0  0  0  0  0  0  0  0  0  0
    9.7785    3.6235   22.7211 H   0  0  0  0  0  0  0  0  0  0  0  0
    8.6839    4.1252   24.0185 H   0  0  0  0  0  0  0  0  0  0  0  0
    8.1090    4.1274   22.3348 H   0  0  0  0  0  0  0  0  0  0  0  0
    8.9778    1.4472   24.3828 C   0  0  0  0  0  0  0  0  0  0  0  0
   10.3331    1.1177   24.2136 C   0  0  0  0  0  0  0  0  0  0  0  0
   11.0871    0.5581   25.2474 C   0  0  0  0  0  0  0  0  0  0  0  0
   10.4554    0.2518   26.4545 C   0  0  0  0  0  0  0  0  0  0  0  0
    9.0955    0.4982   26.6262 C   0  0  0  0  0  0  0  0  0  0  0  0
    8.3649    1.1091   25.6038 C   0  0  0  0  0  0  0  0  0  0  0  0
    6.6737    1.4213   25.9256 Cl  0  0  0  0  0  0  0  0  0  0  0  0
    8.6259    0.2211   27.5625 H   0  0  0  0  0  0  0  0  0  0  0  0
   10.9928   -0.1775   27.2903 H   0  0  0  0  0  0  0  0  0  0  0  0
   12.1459    0.3649   25.1090 H   0  0  0  0  0  0  0  0  0  0  0  0
   10.7750    1.2953   23.2347 H   0  0  0  0  0  0  0  0  0  0  0  0
    7.1835    2.1973   23.4837 H   0  0  0  0  0  0  0  0  0  0  0  0
    7.1333   -0.0526   22.9005 H   0  0  0  0  0  0  0  0  0  0  0  0
    6.6395    0.0186   19.8390 C   0  0  0  0  0  0  0  0  0  0  0  0
    5.4355    0.6924   20.0775 C   0  0  0  0  0  0  0  0  0  0  0  0
    4.8050    1.3331   19.0103 C   0  0  0  0  0  0  0  0  0  0  0  0
    5.4206    1.2991   17.7511 C   0  0  0  0  0  0  0  0  0  0  0  0
    6.5880    0.6871   17.5117 N   0  0  0  0  0  0  0  0  0  0  0  0
    7.1738    0.0772   18.5510 C   0  0  0  0  0  0  0  0  0  0  0  0
    8.1337   -0.4043   18.3555 H   0  0  0  0  0  0  0  0  0  0  0  0
    4.9531    1.7853   16.8982 H   0  0  0  0  0  0  0  0  0  0  0  0
    3.8730    1.8709   19.1430 H   0  0  0  0  0  0  0  0  0  0  0  0
    5.0142    0.7374   21.0862 H   0  0  0  0  0  0  0  0  0  0  0  0
    8.3758   -0.9990   20.4860 H   0  0  0  0  0  0  0  0  0  0  0  0
    5.6959   -1.8025   21.7405 H   0  0  0  0  0  0  0  0  0  0  0  0
    7.2866   -2.4750   22.1701 H   0  0  0  0  0  0  0  0  0  0  0  0
    6.6175   -2.7229   20.5396 H   0  0  0  0  0  0  0  0  0  0  0  0
  1  2  1  0
  2  3  1  0
  3  4  1  0
  4  5  2  0
  4  6  1  0
  6  7  1  0
  7  8  1  0
  7  9  1  0
  7 10  1  0
  6 11  1  0
 11 12  2  0
 12 13  1  0
 13 14  2  0
 14 15  1  0
 15 16  2  0
 16 17  1  0
 15 18  1  0
 14 19  1  0
 13 20  1  0
 12 21  1  0
  6 22  1  0
  3 23  1  0
  2 24  1  0
 24 25  2  0
 25 26  1  0
 26 27  2  0
 27 28  1  0
 28 29  2  0
 29 30  1  0
 27 31  1  0
 26 32  1  0
 25 33  1  0
  2 34  1  0
  1 35  1  0
  1 36  1  0
  1 37  1  0
 16 11  1  0
 29 24  1  0
M  END
>  <cnnaffinity>  (1) 
-5.25797

>  <filename>  (1) 
CC(NC(=O)C(C)c1ccccc1Cl)c1cccnc1

$$$$
