
     RDKit          3D

 37 38  0  0  0  0  0  0  0  0999 V2000
    6.2249   -0.3096   25.3813 C   0  0  0  0  0  0  0  0  0  0  0  0
    7.3201   -0.9081   24.4904 C   0  0  0  0  0  0  0  0  0  0  0  0
    6.7172   -1.2150   23.1794 N   0  0  0  0  0  0  0  0  0  0  0  0
    6.2635   -0.2728   22.2857 C   0  0  0  0  0  0  0  0  0  0  0  0
    5.7751    1.2591   22.7220 S   0  0  0  0  0  0  0  0  0  0  0  0
    6.3354   -0.7863   21.0050 N   0  0  0  0  0  0  0  0  0  0  0  0
    6.1846   -0.0718   19.8070 C   0  0  0  0  0  0  0  0  0  0  0  0
    5.4318    1.0972   19.7678 C   0  0  0  0  0  0  0  0  0  0  0  0
    5.3064    1.7660   18.5522 C   0  0  0  0  0  0  0  0  0  0  0  0
    5.9365    1.2635   17.4092 C   0  0  0  0  0  0  0  0  0  0  0  0
    6.6693    0.1365   17.4324 N   0  0  0  0  0  0  0  0  0  0  0  0
    6.7824   -0.5173   18.6069 C   0  0  0  0  0  0  0  0  0  0  0  0
    7.3753   -1.4254   18.6513 H   0  0  0  0  0  0  0  0  0  0  0  0
    5.8345    1.8025   16.4736 H   0  0  0  0  0  0  0  0  0  0  0  0
    4.7286    2.6795   18.4841 H   0  0  0  0  0  0  0  0  0  0  0  0
    4.9414    1.4678   20.6646 H   0  0  0  0  0  0  0  0  0  0  0  0
    6.7518   -1.7097   20.9790 H   0  0  0  0  0  0  0  0  0  0  0  0
    6.9511   -2.1018   22.7496 H   0  0  0  0  0  0  0  0  0  0  0  0
    8.5364    0.0469   24.3875 C   0  0  0  0  0  0  0  0  0  0  0  0
    9.0743    0.2807   25.6994 O   0  0  0  0  0  0  0  0  0  0  0  0
    9.8302    0.8867   25.6420 H   0  0  0  0  0  0  0  0  0  0  0  0
    9.6532   -0.4707   23.4885 C   0  0  0  0  0  0  0  0  0  0  0  0
   10.2348    0.4106   22.5605 C   0  0  0  0  0  0  0  0  0  0  0  0
   11.2657   -0.0106   21.7214 C   0  0  0  0  0  0  0  0  0  0  0  0
   11.7599   -1.3111   21.8056 C   0  0  0  0  0  0  0  0  0  0  0  0
   13.2351   -1.8282   20.7120 Br  0  0  0  0  0  0  0  0  0  0  0  0
   11.2019   -2.1964   22.7361 C   0  0  0  0  0  0  0  0  0  0  0  0
   10.1524   -1.7867   23.5694 C   0  0  0  0  0  0  0  0  0  0  0  0
    9.7451   -2.4915   24.2926 H   0  0  0  0  0  0  0  0  0  0  0  0
   11.6007   -3.1995   22.8252 H   0  0  0  0  0  0  0  0  0  0  0  0
   11.6881    0.6936   21.0125 H   0  0  0  0  0  0  0  0  0  0  0  0
    9.8900    1.4397   22.5073 H   0  0  0  0  0  0  0  0  0  0  0  0
    8.1695    0.9945   23.9739 H   0  0  0  0  0  0  0  0  0  0  0  0
    7.6650   -1.8429   24.9443 H   0  0  0  0  0  0  0  0  0  0  0  0
    5.4058   -1.0229   25.5167 H   0  0  0  0  0  0  0  0  0  0  0  0
    5.8242    0.6053   24.9358 H   0  0  0  0  0  0  0  0  0  0  0  0
    6.6300   -0.0673   26.3680 H   0  0  0  0  0  0  0  0  0  0  0  0
  1  2  1  0
  2  3  1  0
  3  4  1  0
  4  5  2  0
  4  6  1  0
  6  7  1  0
  7  8  2  0
  8  9  1  0
  9 10  2  0
 10 11  1  0
 11 12  2  0
 12 13  1  0
 10 14  1  0
  9 15  1  0
  8 16  1  0
  6 17  1  0
  3 18  1  0
  2 19  1  0
 19 20  1  0
 20 21  1  0
 19 22  1  0
 22 23  2  0
 23 24  1  0
 24 25  2  0
 25 26  1  0
 25 27  1  0
 27 28  2  0
 28 29  1  0
 27 30  1  0
 24 31  1  0
 23 32  1  0
 19 33  1  0
  2 34  1  0
  1 35  1  0
  1 36  1  0
  1 37  1  0
 12  7  1  0
 28 22  1  0
M  END
>  <cnnaffinity>  (1) 
-5.50151

>  <filename>  (1) 
CC(NC(=S)Nc1cccnc1)C(O)c1ccc(Br)cc1

$$$$
