
     RDKit          3D

 36 37  0  0  0  0  0  0  0  0999 V2000
    6.7014   -2.0007   21.3159 C   0  0  0  0  0  0  0  0  0  0  0  0
    7.4307   -0.7024   21.0021 C   0  0  0  0  0  0  0  0  0  0  0  0
    7.5458    0.1388   22.1842 N   0  0  0  0  0  0  0  0  0  0  0  0
    8.2826    1.3064   22.1686 C   0  0  0  0  0  0  0  0  0  0  0  0
    8.9674    1.5698   21.1825 O   0  0  0  0  0  0  0  0  0  0  0  0
    8.2747    2.1255   23.2915 N   0  0  0  0  0  0  0  0  0  0  0  0
    7.5719    1.7749   24.5358 C   0  0  0  0  0  0  0  0  0  0  0  0
    7.7839    2.5114   25.3216 H   0  0  0  0  0  0  0  0  0  0  0  0
    7.8825    0.7936   24.9132 H   0  0  0  0  0  0  0  0  0  0  0  0
    6.4888    1.7629   24.3692 H   0  0  0  0  0  0  0  0  0  0  0  0
    8.9758    3.3334   23.2732 C   0  0  0  0  0  0  0  0  0  0  0  0
    8.4758    4.3863   22.5093 C   0  0  0  0  0  0  0  0  0  0  0  0
    9.1309    5.6217   22.4842 C   0  0  0  0  0  0  0  0  0  0  0  0
   10.2888    5.8041   23.2417 C   0  0  0  0  0  0  0  0  0  0  0  0
   10.8102    4.7470   23.9997 C   0  0  0  0  0  0  0  0  0  0  0  0
   10.1707    3.4934   23.9913 C   0  0  0  0  0  0  0  0  0  0  0  0
   10.9481    1.9727   24.8671 Br  0  0  0  0  0  0  0  0  0  0  0  0
   11.7202    4.8995   24.5734 H   0  0  0  0  0  0  0  0  0  0  0  0
   10.7952    6.7627   23.2074 H   0  0  0  0  0  0  0  0  0  0  0  0
    8.7531    6.4227   21.8558 H   0  0  0  0  0  0  0  0  0  0  0  0
    7.5812    4.2156   21.9219 H   0  0  0  0  0  0  0  0  0  0  0  0
    6.9364   -0.0274   22.9835 H   0  0  0  0  0  0  0  0  0  0  0  0
    6.6746    0.0303   19.9230 C   0  0  0  0  0  0  0  0  0  0  0  0
    5.4487    0.6581   20.1629 C   0  0  0  0  0  0  0  0  0  0  0  0
    4.8190    1.2970   19.0968 C   0  0  0  0  0  0  0  0  0  0  0  0
    5.4092    1.2907   17.8313 C   0  0  0  0  0  0  0  0  0  0  0  0
    6.5748    0.6677   17.5871 N   0  0  0  0  0  0  0  0  0  0  0  0
    7.1912    0.0608   18.6214 C   0  0  0  0  0  0  0  0  0  0  0  0
    8.1356   -0.4360   18.4341 H   0  0  0  0  0  0  0  0  0  0  0  0
    4.9112    1.8201   17.0233 H   0  0  0  0  0  0  0  0  0  0  0  0
    3.8810    1.8186   19.2301 H   0  0  0  0  0  0  0  0  0  0  0  0
    4.9962    0.6565   21.1517 H   0  0  0  0  0  0  0  0  0  0  0  0
    8.4370   -0.9524   20.6437 H   0  0  0  0  0  0  0  0  0  0  0  0
    6.6489   -2.6150   20.4101 H   0  0  0  0  0  0  0  0  0  0  0  0
    5.6861   -1.7848   21.6585 H   0  0  0  0  0  0  0  0  0  0  0  0
    7.2252   -2.5658   22.0926 H   0  0  0  0  0  0  0  0  0  0  0  0
  1  2  1  0
  2  3  1  0
  3  4  1  0
  4  5  2  0
  4  6  1  0
  6  7  1  0
  7  8  1  0
  7  9  1  0
  7 10  1  0
  6 11  1  0
 11 12  2  0
 12 13  1  0
 13 14  2  0
 14 15  1  0
 15 16  2  0
 16 17  1  0
 15 18  1  0
 14 19  1  0
 13 20  1  0
 12 21  1  0
  3 22  1  0
  2 23  1  0
 23 24  2  0
 24 25  1  0
 25 26  2  0
 26 27  1  0
 27 28  2  0
 28 29  1  0
 26 30  1  0
 25 31  1  0
 24 32  1  0
  2 33  1  0
  1 34  1  0
  1 35  1  0
  1 36  1  0
 16 11  1  0
 28 23  1  0
M  END
>  <cnnaffinity>  (1) 
-5.29838

>  <filename>  (1) 
CC(NC(=O)N(C)c1ccccc1Br)c1cccnc1

$$$$
