
     RDKit          3D

 35 37  0  0  0  0  0  0  0  0999 V2000
    8.4307   -0.8789   23.7939 C   0  0  0  0  0  0  0  0  0  0  0  0
    7.2847   -1.7489   23.2649 C   0  0  0  0  0  0  0  0  0  0  0  0
    6.7435   -1.2018   22.0231 N   0  0  0  0  0  0  0  0  0  0  0  0
    7.4339   -0.7124   20.9657 C   0  0  0  0  0  0  0  0  0  0  0  0
    8.6417   -0.8472   20.8264 O   0  0  0  0  0  0  0  0  0  0  0  0
    6.6014   -0.0185   19.9471 C   0  0  0  0  0  0  0  0  0  0  0  0
    5.3803    0.6404   20.1757 C   0  0  0  0  0  0  0  0  0  0  0  0
    4.7816    1.2975   19.1037 C   0  0  0  0  0  0  0  0  0  0  0  0
    5.4153    1.2635   17.8559 C   0  0  0  0  0  0  0  0  0  0  0  0
    6.5730    0.6265   17.6288 N   0  0  0  0  0  0  0  0  0  0  0  0
    7.1552    0.0215   18.6658 C   0  0  0  0  0  0  0  0  0  0  0  0
    8.1140   -0.4588   18.4774 H   0  0  0  0  0  0  0  0  0  0  0  0
    4.9789    1.7822   17.0065 H   0  0  0  0  0  0  0  0  0  0  0  0
    3.8600    1.8558   19.2282 H   0  0  0  0  0  0  0  0  0  0  0  0
    4.9235    0.6871   21.1694 H   0  0  0  0  0  0  0  0  0  0  0  0
    5.7527   -1.2683   21.8863 H   0  0  0  0  0  0  0  0  0  0  0  0
    7.6709   -3.2243   23.1796 C   0  0  0  0  0  0  0  0  0  0  0  0
    7.9885   -3.8770   21.9885 C   0  0  0  0  0  0  0  0  0  0  0  0
    8.3421   -5.2442   21.9410 C   0  0  0  0  0  0  0  0  0  0  0  0
    8.4845   -5.9905   23.1019 C   0  0  0  0  0  0  0  0  0  0  0  0
    8.1992   -5.3699   24.3354 C   0  0  0  0  0  0  0  0  0  0  0  0
    7.7880   -4.0060   24.3556 C   0  0  0  0  0  0  0  0  0  0  0  0
    7.5577   -3.6799   25.6692 N   0  0  0  0  0  0  0  0  0  0  0  0
    7.7980   -4.7778   26.4698 C   0  0  0  0  0  0  0  0  0  0  0  0
    8.2011   -5.8252   25.7000 C   0  0  0  0  0  0  0  0  0  0  0  0
    8.4699   -6.8115   26.0596 H   0  0  0  0  0  0  0  0  0  0  0  0
    7.6488   -4.7286   27.5411 H   0  0  0  0  0  0  0  0  0  0  0  0
    7.2153   -2.7916   25.9932 H   0  0  0  0  0  0  0  0  0  0  0  0
    8.8379   -7.0186   23.0639 H   0  0  0  0  0  0  0  0  0  0  0  0
    8.5301   -5.7052   20.9759 H   0  0  0  0  0  0  0  0  0  0  0  0
    7.9957   -3.3075   21.0648 H   0  0  0  0  0  0  0  0  0  0  0  0
    6.4457   -1.6767   23.9741 H   0  0  0  0  0  0  0  0  0  0  0  0
    9.3355   -1.0218   23.1982 H   0  0  0  0  0  0  0  0  0  0  0  0
    8.1534    0.1760   23.7270 H   0  0  0  0  0  0  0  0  0  0  0  0
    8.6493   -1.1177   24.8369 H   0  0  0  0  0  0  0  0  0  0  0  0
  1  2  1  0
  2  3  1  0
  3  4  1  0
  4  5  2  0
  4  6  1  0
  6  7  2  0
  7  8  1  0
  8  9  2  0
  9 10  1  0
 10 11  2  0
 11 12  1  0
  9 13  1  0
  8 14  1  0
  7 15  1  0
  3 16  1  0
  2 17  1  0
 17 18  2  0
 18 19  1  0
 19 20  2  0
 20 21  1  0
 21 22  2  0
 22 23  1  0
 23 24  1  0
 24 25  2  0
 25 26  1  0
 24 27  1  0
 23 28  1  0
 20 29  1  0
 19 30  1  0
 18 31  1  0
  2 32  1  0
  1 33  1  0
  1 34  1  0
  1 35  1  0
 11  6  1  0
 22 17  1  0
 25 21  1  0
M  END
>  <cnnaffinity>  (1) 
-5.00404

>  <filename>  (1) 
CC(NC(=O)c1cccnc1)c1cccc2cc[nH]c12

$$$$
