
     RDKit          3D

 34 35  0  0  0  0  0  0  0  0999 V2000
    6.7432   -2.0236   21.3055 C   0  0  0  0  0  0  0  0  0  0  0  0
    7.4074   -0.6951   21.0048 C   0  0  0  0  0  0  0  0  0  0  0  0
    7.4310    0.0596   22.2292 O   0  0  0  0  0  0  0  0  0  0  0  0
    8.1764    1.1894   22.2311 C   0  0  0  0  0  0  0  0  0  0  0  0
    8.8532    1.5537   21.2926 O   0  0  0  0  0  0  0  0  0  0  0  0
    8.0299    1.8671   23.5429 C   0  0  0  0  0  0  0  0  0  0  0  0
    8.6968    2.9952   23.8371 C   0  0  0  0  0  0  0  0  0  0  0  0
    8.5701    3.8262   25.0538 C   0  0  0  0  0  0  0  0  0  0  0  0
    7.4116    3.7946   25.8623 C   0  0  0  0  0  0  0  0  0  0  0  0
    7.3329    4.5246   27.0468 C   0  0  0  0  0  0  0  0  0  0  0  0
    8.4091    5.3067   27.4643 C   0  0  0  0  0  0  0  0  0  0  0  0
    9.5592    5.3883   26.6701 C   0  0  0  0  0  0  0  0  0  0  0  0
   10.8709    6.3781   27.2371 Cl  0  0  0  0  0  0  0  0  0  0  0  0
    9.6273    4.6868   25.4540 C   0  0  0  0  0  0  0  0  0  0  0  0
   11.0552    4.8728   24.4801 Cl  0  0  0  0  0  0  0  0  0  0  0  0
    8.3901    5.8387   28.4097 H   0  0  0  0  0  0  0  0  0  0  0  0
    6.4347    4.4789   27.6599 H   0  0  0  0  0  0  0  0  0  0  0  0
    6.5554    3.2070   25.5424 H   0  0  0  0  0  0  0  0  0  0  0  0
    9.4253    3.3639   23.1102 H   0  0  0  0  0  0  0  0  0  0  0  0
    7.3527    1.3489   24.2192 H   0  0  0  0  0  0  0  0  0  0  0  0
    6.6655    0.0622   19.9243 C   0  0  0  0  0  0  0  0  0  0  0  0
    5.4340    0.7012   20.1529 C   0  0  0  0  0  0  0  0  0  0  0  0
    4.8036    1.3312   19.0801 C   0  0  0  0  0  0  0  0  0  0  0  0
    5.4199    1.2955   17.8237 C   0  0  0  0  0  0  0  0  0  0  0  0
    6.5845    0.6764   17.5817 N   0  0  0  0  0  0  0  0  0  0  0  0
    7.1814    0.0873   18.6288 C   0  0  0  0  0  0  0  0  0  0  0  0
    8.1407   -0.3889   18.4212 H   0  0  0  0  0  0  0  0  0  0  0  0
    4.9447    1.7708   16.9697 H   0  0  0  0  0  0  0  0  0  0  0  0
    3.8537    1.8440   19.2041 H   0  0  0  0  0  0  0  0  0  0  0  0
    4.9988    0.7249   21.1535 H   0  0  0  0  0  0  0  0  0  0  0  0
    8.4453   -0.8660   20.6910 H   0  0  0  0  0  0  0  0  0  0  0  0
    6.7342   -2.6509   20.4076 H   0  0  0  0  0  0  0  0  0  0  0  0
    7.2701   -2.5544   22.1008 H   0  0  0  0  0  0  0  0  0  0  0  0
    5.7114   -1.8608   21.6285 H   0  0  0  0  0  0  0  0  0  0  0  0
  1  2  1  0
  2  3  1  0
  3  4  1  0
  4  5  2  0
  4  6  1  0
  6  7  2  3
  7  8  1  0
  8  9  2  0
  9 10  1  0
 10 11  2  0
 11 12  1  0
 12 13  1  0
 12 14  2  0
 14 15  1  0
 11 16  1  0
 10 17  1  0
  9 18  1  0
  7 19  1  0
  6 20  1  0
  2 21  1  0
 21 22  2  0
 22 23  1  0
 23 24  2  0
 24 25  1  0
 25 26  2  0
 26 27  1  0
 24 28  1  0
 23 29  1  0
 22 30  1  0
  2 31  1  0
  1 32  1  0
  1 33  1  0
  1 34  1  0
 14  8  1  0
 26 21  1  0
M  END
>  <cnnaffinity>  (1) 
-4.90766

>  <filename>  (1) 
CC(OC(=O)C=Cc1cccc(Cl)c1Cl)c1cccnc1

$$$$
