
     RDKit          3D

 47 48  0  0  0  0  0  0  0  0999 V2000
    6.6638   -3.6512   24.6897 C   0  0  0  0  0  0  0  0  0  0  0  0
    5.9243   -2.4079   24.2030 C   0  0  0  0  0  0  0  0  0  0  0  0
    6.7709   -1.7601   23.2319 O   0  0  0  0  0  0  0  0  0  0  0  0
    6.4566   -1.7789   21.9129 C   0  0  0  0  0  0  0  0  0  0  0  0
    5.6417   -2.5330   21.4303 O   0  0  0  0  0  0  0  0  0  0  0  0
    7.3447   -0.8146   21.0982 C   0  0  0  0  0  0  0  0  0  0  0  0
    6.5897   -0.1146   19.9692 C   0  0  0  0  0  0  0  0  0  0  0  0
    5.3822    0.5674   20.1731 C   0  0  0  0  0  0  0  0  0  0  0  0
    4.8211    1.2716   19.1005 C   0  0  0  0  0  0  0  0  0  0  0  0
    5.4725    1.2529   17.8623 C   0  0  0  0  0  0  0  0  0  0  0  0
    6.6163    0.5875   17.6383 N   0  0  0  0  0  0  0  0  0  0  0  0
    7.1485   -0.0663   18.6767 C   0  0  0  0  0  0  0  0  0  0  0  0
    8.0862   -0.5915   18.4840 H   0  0  0  0  0  0  0  0  0  0  0  0
    5.0648    1.7904   17.0081 H   0  0  0  0  0  0  0  0  0  0  0  0
    3.9025    1.8389   19.2094 H   0  0  0  0  0  0  0  0  0  0  0  0
    4.9010    0.5491   21.1587 H   0  0  0  0  0  0  0  0  0  0  0  0
    8.2557    0.1604   21.9213 C   0  0  0  0  0  0  0  0  0  0  0  0
    7.5115    1.3656   22.5075 C   0  0  0  0  0  0  0  0  0  0  0  0
    7.1306    2.0473   21.7356 H   0  0  0  0  0  0  0  0  0  0  0  0
    8.1882    1.9474   23.1449 H   0  0  0  0  0  0  0  0  0  0  0  0
    6.6644    1.0487   23.1293 H   0  0  0  0  0  0  0  0  0  0  0  0
    9.4687    0.5847   21.0882 C   0  0  0  0  0  0  0  0  0  0  0  0
    9.1822    1.1449   20.1931 H   0  0  0  0  0  0  0  0  0  0  0  0
   10.1345    1.2249   21.6772 H   0  0  0  0  0  0  0  0  0  0  0  0
   10.0506   -0.2901   20.7706 H   0  0  0  0  0  0  0  0  0  0  0  0
    8.6412   -0.4146   22.7732 H   0  0  0  0  0  0  0  0  0  0  0  0
    8.0218   -1.5265   20.6024 H   0  0  0  0  0  0  0  0  0  0  0  0
    5.4783   -1.4212   25.3291 C   0  0  0  0  0  0  0  0  0  0  0  0
    4.4456   -1.6793   25.9048 O   0  0  0  0  0  0  0  0  0  0  0  0
    6.2883   -0.1665   25.6820 C   0  0  0  0  0  0  0  0  0  0  0  0
    7.6937   -0.2595   25.7385 C   0  0  0  0  0  0  0  0  0  0  0  0
    8.4881    0.8320   26.0938 C   0  0  0  0  0  0  0  0  0  0  0  0
    7.8950    2.0656   26.3541 C   0  0  0  0  0  0  0  0  0  0  0  0
    6.5078    2.1942   26.2812 C   0  0  0  0  0  0  0  0  0  0  0  0
    5.6892    1.0960   25.9644 C   0  0  0  0  0  0  0  0  0  0  0  0
    4.1731    1.3288   25.9585 C   0  0  0  0  0  0  0  0  0  0  0  0
    3.5757    0.8281   27.0499 F   0  0  0  0  0  0  0  0  0  0  0  0
    3.5841    0.7787   24.8862 F   0  0  0  0  0  0  0  0  0  0  0  0
    3.8607    2.6451   25.9230 F   0  0  0  0  0  0  0  0  0  0  0  0
    6.0538    3.1633   26.4676 H   0  0  0  0  0  0  0  0  0  0  0  0
    8.5048    2.9229   26.6237 H   0  0  0  0  0  0  0  0  0  0  0  0
    9.5664    0.7093   26.1598 H   0  0  0  0  0  0  0  0  0  0  0  0
    8.1800   -1.2027   25.5113 H   0  0  0  0  0  0  0  0  0  0  0  0
    4.9888   -2.7199   23.7268 H   0  0  0  0  0  0  0  0  0  0  0  0
    6.0682   -4.2313   25.4003 H   0  0  0  0  0  0  0  0  0  0  0  0
    6.8641   -4.2858   23.8214 H   0  0  0  0  0  0  0  0  0  0  0  0
    7.6187   -3.3866   25.1545 H   0  0  0  0  0  0  0  0  0  0  0  0
  1  2  1  0
  2  3  1  0
  3  4  1  0
  4  5  2  0
  4  6  1  0
  6  7  1  0
  7  8  2  0
  8  9  1  0
  9 10  2  0
 10 11  1  0
 11 12  2  0
 12 13  1  0
 10 14  1  0
  9 15  1  0
  8 16  1  0
  6 17  1  0
 17 18  1  0
 18 19  1  0
 18 20  1  0
 18 21  1  0
 17 22  1  0
 22 23  1  0
 22 24  1  0
 22 25  1  0
 17 26  1  0
  6 27  1  0
  2 28  1  0
 28 29  2  0
 28 30  1  0
 30 31  2  0
 31 32  1  0
 32 33  2  0
 33 34  1  0
 34 35  2  0
 35 36  1  0
 36 37  1  0
 36 38  1  0
 36 39  1  0
 34 40  1  0
 33 41  1  0
 32 42  1  0
 31 43  1  0
  2 44  1  0
  1 45  1  0
  1 46  1  0
  1 47  1  0
 12  7  1  0
 35 30  1  0
M  END
>  <cnnaffinity>  (1) 
-5.31874

>  <filename>  (1) 
CC(OC(=O)C(c1cccnc1)C(C)C)C(=O)c1ccccc1C(F)(F)F

$$$$
