
     RDKit          3D

 37 39  0  0  0  0  0  0  0  0999 V2000
    9.6213   -0.0322   20.9382 C   0  0  0  0  0  0  0  0  0  0  0  0
    8.5620   -1.1339   21.0095 C   0  0  0  0  0  0  0  0  0  0  0  0
    7.2357   -0.5860   21.0536 O   0  0  0  0  0  0  0  0  0  0  0  0
    6.6890   -0.0034   19.9441 C   0  0  0  0  0  0  0  0  0  0  0  0
    5.4655    0.6470   20.1455 C   0  0  0  0  0  0  0  0  0  0  0  0
    4.8568    1.2893   19.0698 C   0  0  0  0  0  0  0  0  0  0  0  0
    5.4775    1.2650   17.8140 C   0  0  0  0  0  0  0  0  0  0  0  0
    6.6306    0.6186   17.5964 N   0  0  0  0  0  0  0  0  0  0  0  0
    7.2162   -0.0006   18.6340 C   0  0  0  0  0  0  0  0  0  0  0  0
    8.1497   -0.5054   18.3998 H   0  0  0  0  0  0  0  0  0  0  0  0
    5.0384    1.7863   16.9654 H   0  0  0  0  0  0  0  0  0  0  0  0
    3.9199    1.8174   19.1997 H   0  0  0  0  0  0  0  0  0  0  0  0
    5.0350    0.6441   21.1459 H   0  0  0  0  0  0  0  0  0  0  0  0
    8.7058   -2.1541   22.1723 C   0  0  0  0  0  0  0  0  0  0  0  0
    8.9613   -3.3273   21.9572 O   0  0  0  0  0  0  0  0  0  0  0  0
    8.5325   -1.7103   23.4665 N   0  0  0  0  0  0  0  0  0  0  0  0
    8.6194   -2.5076   24.6831 C   0  0  0  0  0  0  0  0  0  0  0  0
    7.3642   -2.3780   25.5355 C   0  0  0  0  0  0  0  0  0  0  0  0
    7.1774   -3.2321   26.6301 C   0  0  0  0  0  0  0  0  0  0  0  0
    6.0546   -3.0923   27.4514 C   0  0  0  0  0  0  0  0  0  0  0  0
    5.1284   -2.0748   27.2003 C   0  0  0  0  0  0  0  0  0  0  0  0
    5.3243   -1.2003   26.1236 C   0  0  0  0  0  0  0  0  0  0  0  0
    6.4241   -1.3580   25.2668 C   0  0  0  0  0  0  0  0  0  0  0  0
    6.6532   -0.5133   24.0144 C   0  0  0  0  0  0  0  0  0  0  0  0
    8.0689   -0.4271   23.7171 O   0  0  0  0  0  0  0  0  0  0  0  0
    6.1703   -0.9733   23.1433 H   0  0  0  0  0  0  0  0  0  0  0  0
    6.3305    0.5281   24.1098 H   0  0  0  0  0  0  0  0  0  0  0  0
    4.6267   -0.3776   25.9741 H   0  0  0  0  0  0  0  0  0  0  0  0
    4.2614   -1.9611   27.8497 H   0  0  0  0  0  0  0  0  0  0  0  0
    5.9292   -3.7698   28.2942 H   0  0  0  0  0  0  0  0  0  0  0  0
    7.9209   -4.0007   26.8530 H   0  0  0  0  0  0  0  0  0  0  0  0
    9.4865   -2.1710   25.2684 H   0  0  0  0  0  0  0  0  0  0  0  0
    8.8021   -3.5423   24.3871 H   0  0  0  0  0  0  0  0  0  0  0  0
    8.6357   -1.7693   20.1257 H   0  0  0  0  0  0  0  0  0  0  0  0
    9.4548    0.5890   20.0497 H   0  0  0  0  0  0  0  0  0  0  0  0
    9.5928    0.6117   21.8206 H   0  0  0  0  0  0  0  0  0  0  0  0
   10.6135   -0.4870   20.8515 H   0  0  0  0  0  0  0  0  0  0  0  0
  1  2  1  0
  2  3  1  0
  3  4  1  0
  4  5  2  0
  5  6  1  0
  6  7  2  0
  7  8  1  0
  8  9  2  0
  9 10  1  0
  7 11  1  0
  6 12  1  0
  5 13  1  0
  2 14  1  0
 14 15  2  0
 14 16  1  0
 16 17  1  0
 17 18  1  0
 18 19  2  0
 19 20  1  0
 20 21  2  0
 21 22  1  0
 22 23  2  0
 23 24  1  0
 24 25  1  0
 24 26  1  0
 24 27  1  0
 22 28  1  0
 21 29  1  0
 20 30  1  0
 19 31  1  0
 17 32  1  0
 17 33  1  0
  2 34  1  0
  1 35  1  0
  1 36  1  0
  1 37  1  0
  9  4  1  0
 25 16  1  0
 23 18  1  0
M  END
>  <cnnaffinity>  (1) 
-4.69699

>  <filename>  (1) 
CC(Oc1cccnc1)C(=O)N1Cc2ccccc2CO1

$$$$
