
     RDKit          3D

 33 35  0  0  0  0  0  0  0  0999 V2000
    8.6889   -0.8734   25.0957 C   0  0  0  0  0  0  0  0  0  0  0  0
    7.8076   -1.8505   24.2981 C   0  0  0  0  0  0  0  0  0  0  0  0
    8.2421   -3.1970   24.4742 O   0  0  0  0  0  0  0  0  0  0  0  0
    8.0240   -3.9048   25.6234 C   0  0  0  0  0  0  0  0  0  0  0  0
    8.6287   -5.1744   25.6376 C   0  0  0  0  0  0  0  0  0  0  0  0
    8.4813   -6.0117   26.7401 C   0  0  0  0  0  0  0  0  0  0  0  0
    7.6987   -5.6064   27.8294 C   0  0  0  0  0  0  0  0  0  0  0  0
    7.0430   -4.3767   27.7875 C   0  0  0  0  0  0  0  0  0  0  0  0
    7.2376   -3.4956   26.7102 C   0  0  0  0  0  0  0  0  0  0  0  0
    6.7779   -2.5133   26.7077 H   0  0  0  0  0  0  0  0  0  0  0  0
    6.3440   -4.1268   28.5856 H   0  0  0  0  0  0  0  0  0  0  0  0
    7.5937   -6.2501   28.6975 H   0  0  0  0  0  0  0  0  0  0  0  0
    8.9492   -6.9935   26.7296 H   0  0  0  0  0  0  0  0  0  0  0  0
    9.1946   -5.4766   24.7629 H   0  0  0  0  0  0  0  0  0  0  0  0
    7.8918   -1.5785   22.8117 C   0  0  0  0  0  0  0  0  0  0  0  0
    8.8508   -1.8959   22.0076 N   0  0  0  0  0  0  0  0  0  0  0  0
    8.5459   -1.3253   20.7846 N   0  0  0  0  0  0  0  0  0  0  0  0
    7.4160   -0.7119   20.9316 C   0  0  0  0  0  0  0  0  0  0  0  0
    6.6488    0.0146   19.9200 C   0  0  0  0  0  0  0  0  0  0  0  0
    5.4248    0.6609   20.1680 C   0  0  0  0  0  0  0  0  0  0  0  0
    4.7985    1.3111   19.1055 C   0  0  0  0  0  0  0  0  0  0  0  0
    5.4014    1.2886   17.8441 C   0  0  0  0  0  0  0  0  0  0  0  0
    6.5624    0.6659   17.5987 N   0  0  0  0  0  0  0  0  0  0  0  0
    7.1681    0.0538   18.6172 C   0  0  0  0  0  0  0  0  0  0  0  0
    8.1158   -0.4292   18.3901 H   0  0  0  0  0  0  0  0  0  0  0  0
    4.9419    1.7917   16.9918 H   0  0  0  0  0  0  0  0  0  0  0  0
    3.8654    1.8474   19.2349 H   0  0  0  0  0  0  0  0  0  0  0  0
    4.9765    0.6602   21.1599 H   0  0  0  0  0  0  0  0  0  0  0  0
    6.9383   -0.8274   22.1989 O   0  0  0  0  0  0  0  0  0  0  0  0
    6.7487   -1.7525   24.5870 H   0  0  0  0  0  0  0  0  0  0  0  0
    8.3494    0.1525   24.9263 H   0  0  0  0  0  0  0  0  0  0  0  0
    9.7294   -0.9625   24.7624 H   0  0  0  0  0  0  0  0  0  0  0  0
    8.6573   -1.0722   26.1715 H   0  0  0  0  0  0  0  0  0  0  0  0
  1  2  1  0
  2  3  1  0
  3  4  1  0
  4  5  2  0
  5  6  1  0
  6  7  2  0
  7  8  1  0
  8  9  2  0
  9 10  1  0
  8 11  1  0
  7 12  1  0
  6 13  1  0
  5 14  1  0
  2 15  1  0
 15 16  2  0
 16 17  1  0
 17 18  2  0
 18 19  1  0
 19 20  2  0
 20 21  1  0
 21 22  2  0
 22 23  1  0
 23 24  2  0
 24 25  1  0
 22 26  1  0
 21 27  1  0
 20 28  1  0
 18 29  1  0
  2 30  1  0
  1 31  1  0
  1 32  1  0
  1 33  1  0
  9  4  1  0
 29 15  1  0
 24 19  1  0
M  END
>  <cnnaffinity>  (1) 
-4.91621

>  <filename>  (1) 
CC(Oc1ccccc1)c1nnc(-c2cccnc2)o1

$$$$
