
     RDKit          3D

 47 49  0  0  0  0  0  0  0  0999 V2000
    8.7084   -0.5665   26.5241 C   0  0  0  0  0  0  0  0  0  0  0  0
    8.1757   -1.5370   25.4724 C   0  0  0  0  0  0  0  0  0  0  0  0
    9.1647   -2.5618   25.3335 O   0  0  0  0  0  0  0  0  0  0  0  0
    8.6567   -3.8665   25.0535 C   0  0  0  0  0  0  0  0  0  0  0  0
    7.9555   -3.9317   23.7109 C   0  0  0  0  0  0  0  0  0  0  0  0
    8.7346   -3.8436   22.5553 C   0  0  0  0  0  0  0  0  0  0  0  0
    8.1496   -4.0761   21.3145 C   0  0  0  0  0  0  0  0  0  0  0  0
    6.8340   -4.2366   21.1166 N   0  0  0  0  0  0  0  0  0  0  0  0
    6.0620   -4.1944   22.2109 C   0  0  0  0  0  0  0  0  0  0  0  0
    6.5690   -4.0545   23.5127 C   0  0  0  0  0  0  0  0  0  0  0  0
    5.8638   -4.0359   24.3350 H   0  0  0  0  0  0  0  0  0  0  0  0
    4.9888   -4.2827   22.0434 H   0  0  0  0  0  0  0  0  0  0  0  0
    8.8031   -4.1542   20.4559 H   0  0  0  0  0  0  0  0  0  0  0  0
    9.7840   -3.5794   22.5969 H   0  0  0  0  0  0  0  0  0  0  0  0
    9.5468   -4.5125   25.0280 H   0  0  0  0  0  0  0  0  0  0  0  0
    8.0029   -4.2145   25.8699 H   0  0  0  0  0  0  0  0  0  0  0  0
    7.7016   -0.8203   24.1553 C   0  0  0  0  0  0  0  0  0  0  0  0
    6.5081   -0.5483   24.0715 O   0  0  0  0  0  0  0  0  0  0  0  0
    8.5812   -0.4625   23.1712 N   0  0  0  0  0  0  0  0  0  0  0  0
   10.0491   -0.5127   23.2280 C   0  0  0  0  0  0  0  0  0  0  0  0
   10.4872    0.0970   21.8879 C   0  0  0  0  0  0  0  0  0  0  0  0
    9.2995    0.9517   21.4360 C   0  0  0  0  0  0  0  0  0  0  0  0
    8.0623    0.2312   21.9784 C   0  0  0  0  0  0  0  0  0  0  0  0
    7.3743   -0.7436   20.9911 C   0  0  0  0  0  0  0  0  0  0  0  0
    6.6389   -0.0537   19.8499 C   0  0  0  0  0  0  0  0  0  0  0  0
    5.4274    0.6177   20.0893 C   0  0  0  0  0  0  0  0  0  0  0  0
    4.8022    1.3002   19.0422 C   0  0  0  0  0  0  0  0  0  0  0  0
    5.4081    1.3069   17.7805 C   0  0  0  0  0  0  0  0  0  0  0  0
    6.5532    0.6620   17.5153 N   0  0  0  0  0  0  0  0  0  0  0  0
    7.1402    0.0107   18.5327 C   0  0  0  0  0  0  0  0  0  0  0  0
    8.0724   -0.4923   18.2774 H   0  0  0  0  0  0  0  0  0  0  0  0
    4.9553    1.8601   16.9560 H   0  0  0  0  0  0  0  0  0  0  0  0
    3.8765    1.8453   19.1940 H   0  0  0  0  0  0  0  0  0  0  0  0
    4.9825    0.6128   21.0887 H   0  0  0  0  0  0  0  0  0  0  0  0
    6.6527   -1.3287   21.5733 H   0  0  0  0  0  0  0  0  0  0  0  0
    8.1096   -1.4585   20.5989 H   0  0  0  0  0  0  0  0  0  0  0  0
    7.3071    0.9581   22.3046 H   0  0  0  0  0  0  0  0  0  0  0  0
    9.3486    1.9579   21.8687 H   0  0  0  0  0  0  0  0  0  0  0  0
    9.2599    1.0708   20.3497 H   0  0  0  0  0  0  0  0  0  0  0  0
   11.4064    0.6831   21.9788 H   0  0  0  0  0  0  0  0  0  0  0  0
   10.6850   -0.6986   21.1609 H   0  0  0  0  0  0  0  0  0  0  0  0
   10.4354    0.0548   24.0866 H   0  0  0  0  0  0  0  0  0  0  0  0
   10.4078   -1.5396   23.3320 H   0  0  0  0  0  0  0  0  0  0  0  0
    7.2345   -1.9707   25.8503 H   0  0  0  0  0  0  0  0  0  0  0  0
    9.5982   -0.0342   26.1701 H   0  0  0  0  0  0  0  0  0  0  0  0
    7.9383    0.1617   26.8009 H   0  0  0  0  0  0  0  0  0  0  0  0
    8.9829   -1.1410   27.4155 H   0  0  0  0  0  0  0  0  0  0  0  0
  1  2  1  0
  2  3  1  0
  3  4  1  0
  4  5  1  0
  5  6  2  0
  6  7  1  0
  7  8  2  0
  8  9  1  0
  9 10  2  0
 10 11  1  0
  9 12  1  0
  7 13  1  0
  6 14  1  0
  4 15  1  0
  4 16  1  0
  2 17  1  0
 17 18  2  0
 17 19  1  0
 19 20  1  0
 20 21  1  0
 21 22  1  0
 22 23  1  0
 23 24  1  0
 24 25  1  0
 25 26  2  0
 26 27  1  0
 27 28  2  0
 28 29  1  0
 29 30  2  0
 30 31  1  0
 28 32  1  0
 27 33  1  0
 26 34  1  0
 24 35  1  0
 24 36  1  0
 23 37  1  0
 22 38  1  0
 22 39  1  0
 21 40  1  0
 21 41  1  0
 20 42  1  0
 20 43  1  0
  2 44  1  0
  1 45  1  0
  1 46  1  0
  1 47  1  0
 10  5  1  0
 23 19  1  0
 30 25  1  0
M  END
>  <cnnaffinity>  (1) 
-5.38739

>  <filename>  (1) 
CC(OCc1ccncc1)C(=O)N1CCCC1Cc1cccnc1

$$$$
