
     RDKit          3D

 36 37  0  0  0  0  0  0  0  0999 V2000
    6.7284   -2.0420   21.2782 C   0  0  0  0  0  0  0  0  0  0  0  0
    7.4080   -0.7092   21.0065 C   0  0  0  0  0  0  0  0  0  0  0  0
    7.4090    0.0295   22.2498 O   0  0  0  0  0  0  0  0  0  0  0  0
    8.1727    1.1488   22.2854 C   0  0  0  0  0  0  0  0  0  0  0  0
    8.8076    1.5483   21.3413 O   0  0  0  0  0  0  0  0  0  0  0  0
    8.1712    1.8116   23.6575 C   0  0  0  0  0  0  0  0  0  0  0  0
    9.2016    1.1859   24.6375 C   0  0  0  0  0  0  0  0  0  0  0  0
    8.8621   -0.2505   24.9709 C   0  0  0  0  0  0  0  0  0  0  0  0
    7.8568   -0.5017   25.9167 C   0  0  0  0  0  0  0  0  0  0  0  0
    7.4325   -1.7955   26.2079 C   0  0  0  0  0  0  0  0  0  0  0  0
    8.0061   -2.8786   25.5431 C   0  0  0  0  0  0  0  0  0  0  0  0
    9.0009   -2.6546   24.5882 C   0  0  0  0  0  0  0  0  0  0  0  0
    9.6643   -4.0363   23.7750 Cl  0  0  0  0  0  0  0  0  0  0  0  0
    9.4316   -1.3490   24.2981 C   0  0  0  0  0  0  0  0  0  0  0  0
   10.6343   -1.0876   23.0699 Cl  0  0  0  0  0  0  0  0  0  0  0  0
    7.7036   -3.9011   25.7443 H   0  0  0  0  0  0  0  0  0  0  0  0
    6.6575   -1.9602   26.9493 H   0  0  0  0  0  0  0  0  0  0  0  0
    7.4009    0.3501   26.4144 H   0  0  0  0  0  0  0  0  0  0  0  0
   10.2099    1.2545   24.2153 H   0  0  0  0  0  0  0  0  0  0  0  0
    9.2228    1.7721   25.5673 H   0  0  0  0  0  0  0  0  0  0  0  0
    8.4165    2.8638   23.4966 H   0  0  0  0  0  0  0  0  0  0  0  0
    7.1665    1.7647   24.0942 H   0  0  0  0  0  0  0  0  0  0  0  0
    6.6843    0.0628   19.9213 C   0  0  0  0  0  0  0  0  0  0  0  0
    5.4470    0.6768   20.1592 C   0  0  0  0  0  0  0  0  0  0  0  0
    4.8046    1.3131   19.0980 C   0  0  0  0  0  0  0  0  0  0  0  0
    5.3980    1.2870   17.8309 C   0  0  0  0  0  0  0  0  0  0  0  0
    6.5568    0.6646   17.5764 N   0  0  0  0  0  0  0  0  0  0  0  0
    7.1753    0.0824   18.6136 C   0  0  0  0  0  0  0  0  0  0  0  0
    8.1179   -0.4106   18.3736 H   0  0  0  0  0  0  0  0  0  0  0  0
    4.9262    1.7861   16.9839 H   0  0  0  0  0  0  0  0  0  0  0  0
    3.8719    1.8394   19.2458 H   0  0  0  0  0  0  0  0  0  0  0  0
    5.0158    0.6441   21.1616 H   0  0  0  0  0  0  0  0  0  0  0  0
    8.4488   -0.8774   20.6972 H   0  0  0  0  0  0  0  0  0  0  0  0
    5.6897   -1.8973   21.5891 H   0  0  0  0  0  0  0  0  0  0  0  0
    7.2527   -2.6217   22.0437 H   0  0  0  0  0  0  0  0  0  0  0  0
    6.7118   -2.6292   20.3562 H   0  0  0  0  0  0  0  0  0  0  0  0
  1  2  1  0
  2  3  1  0
  3  4  1  0
  4  5  2  0
  4  6  1  0
  6  7  1  0
  7  8  1  0
  8  9  2  0
  9 10  1  0
 10 11  2  0
 11 12  1  0
 12 13  1  0
 12 14  2  0
 14 15  1  0
 11 16  1  0
 10 17  1  0
  9 18  1  0
  7 19  1  0
  7 20  1  0
  6 21  1  0
  6 22  1  0
  2 23  1  0
 23 24  2  0
 24 25  1  0
 25 26  2  0
 26 27  1  0
 27 28  2  0
 28 29  1  0
 26 30  1  0
 25 31  1  0
 24 32  1  0
  2 33  1  0
  1 34  1  0
  1 35  1  0
  1 36  1  0
 14  8  1  0
 28 23  1  0
M  END
>  <cnnaffinity>  (1) 
-5.45113

>  <filename>  (1) 
CC(OC(=O)CCc1cccc(Cl)c1Cl)c1cccnc1

$$$$
