
     RDKit          3D

 40 42  0  0  0  0  0  0  0  0999 V2000
    7.0840   -1.9977   21.2067 C   0  0  0  0  0  0  0  0  0  0  0  0
    7.3234   -0.4994   21.1903 C   0  0  0  0  0  0  0  0  0  0  0  0
    8.7443   -0.2893   21.0771 O   0  0  0  0  0  0  0  0  0  0  0  0
    9.1950    0.9398   21.4468 C   0  0  0  0  0  0  0  0  0  0  0  0
    8.4724    1.8556   21.7631 O   0  0  0  0  0  0  0  0  0  0  0  0
   10.6984    1.0046   21.4620 C   0  0  0  0  0  0  0  0  0  0  0  0
   11.3059    0.6520   22.8431 C   0  0  0  0  0  0  0  0  0  0  0  0
   11.1183   -0.8178   23.0798 C   0  0  0  0  0  0  0  0  0  0  0  0
   11.8774   -1.8019   22.5044 C   0  0  0  0  0  0  0  0  0  0  0  0
   11.3765   -3.0366   22.8498 N   0  0  0  0  0  0  0  0  0  0  0  0
   10.2202   -2.8794   23.5714 C   0  0  0  0  0  0  0  0  0  0  0  0
    9.3144   -3.8354   24.0692 C   0  0  0  0  0  0  0  0  0  0  0  0
    8.1686   -3.3712   24.7008 C   0  0  0  0  0  0  0  0  0  0  0  0
    7.9198   -1.9807   24.8319 C   0  0  0  0  0  0  0  0  0  0  0  0
    8.8281   -1.0460   24.3463 C   0  0  0  0  0  0  0  0  0  0  0  0
   10.0173   -1.4872   23.7289 C   0  0  0  0  0  0  0  0  0  0  0  0
    8.6169    0.0162   24.4088 H   0  0  0  0  0  0  0  0  0  0  0  0
    7.0012   -1.6497   25.3072 H   0  0  0  0  0  0  0  0  0  0  0  0
    7.4458   -4.0848   25.0942 H   0  0  0  0  0  0  0  0  0  0  0  0
    9.5065   -4.8984   23.9457 H   0  0  0  0  0  0  0  0  0  0  0  0
   11.6882   -3.9130   22.4741 H   0  0  0  0  0  0  0  0  0  0  0  0
   12.7734   -1.7103   21.9001 H   0  0  0  0  0  0  0  0  0  0  0  0
   12.3787    0.8946   22.8319 H   0  0  0  0  0  0  0  0  0  0  0  0
   10.8590    1.2521   23.6472 H   0  0  0  0  0  0  0  0  0  0  0  0
   11.0065    2.0007   21.1399 H   0  0  0  0  0  0  0  0  0  0  0  0
   11.0794    0.2501   20.7826 H   0  0  0  0  0  0  0  0  0  0  0  0
    6.6233    0.1859   20.0443 C   0  0  0  0  0  0  0  0  0  0  0  0
    5.3837    0.8134   20.1900 C   0  0  0  0  0  0  0  0  0  0  0  0
    4.7755    1.3617   19.0593 C   0  0  0  0  0  0  0  0  0  0  0  0
    5.4411    1.2754   17.8315 C   0  0  0  0  0  0  0  0  0  0  0  0
    6.6298    0.6745   17.6712 N   0  0  0  0  0  0  0  0  0  0  0  0
    7.1951    0.1460   18.7660 C   0  0  0  0  0  0  0  0  0  0  0  0
    8.1537   -0.3500   18.6237 H   0  0  0  0  0  0  0  0  0  0  0  0
    4.9979    1.7143   16.9391 H   0  0  0  0  0  0  0  0  0  0  0  0
    3.8126    1.8539   19.1231 H   0  0  0  0  0  0  0  0  0  0  0  0
    4.9170    0.8703   21.1752 H   0  0  0  0  0  0  0  0  0  0  0  0
    6.9688   -0.0864   22.1437 H   0  0  0  0  0  0  0  0  0  0  0  0
    7.2706   -2.4485   20.2329 H   0  0  0  0  0  0  0  0  0  0  0  0
    7.7324   -2.4631   21.9507 H   0  0  0  0  0  0  0  0  0  0  0  0
    6.0444   -2.1969   21.4772 H   0  0  0  0  0  0  0  0  0  0  0  0
  1  2  1  0
  2  3  1  0
  3  4  1  0
  4  5  2  0
  4  6  1  0
  6  7  1  0
  7  8  1  0
  8  9  2  0
  9 10  1  0
 10 11  1  0
 11 12  2  0
 12 13  1  0
 13 14  2  0
 14 15  1  0
 15 16  2  0
 15 17  1  0
 14 18  1  0
 13 19  1  0
 12 20  1  0
 10 21  1  0
  9 22  1  0
  7 23  1  0
  7 24  1  0
  6 25  1  0
  6 26  1  0
  2 27  1  0
 27 28  2  0
 28 29  1  0
 29 30  2  0
 30 31  1  0
 31 32  2  0
 32 33  1  0
 30 34  1  0
 29 35  1  0
 28 36  1  0
  2 37  1  0
  1 38  1  0
  1 39  1  0
  1 40  1  0
 16  8  1  0
 32 27  1  0
 16 11  1  0
M  END
>  <cnnaffinity>  (1) 
-5.32815

>  <filename>  (1) 
CC(OC(=O)CCc1c[nH]c2ccccc12)c1cccnc1

$$$$
