
     RDKit          3D

 39 40  0  0  0  0  0  0  0  0999 V2000
    9.6233    0.0182   21.0076 C   0  0  0  0  0  0  0  0  0  0  0  0
    8.5994   -1.1133   21.0935 C   0  0  0  0  0  0  0  0  0  0  0  0
    7.2425   -0.6096   21.0822 O   0  0  0  0  0  0  0  0  0  0  0  0
    6.6998   -0.0373   19.9638 C   0  0  0  0  0  0  0  0  0  0  0  0
    5.4742    0.6257   20.1487 C   0  0  0  0  0  0  0  0  0  0  0  0
    4.8933    1.2776   19.0587 C   0  0  0  0  0  0  0  0  0  0  0  0
    5.5289    1.2247   17.8115 C   0  0  0  0  0  0  0  0  0  0  0  0
    6.6662    0.5491   17.6045 N   0  0  0  0  0  0  0  0  0  0  0  0
    7.2327   -0.0680   18.6576 C   0  0  0  0  0  0  0  0  0  0  0  0
    8.1546   -0.6060   18.4485 H   0  0  0  0  0  0  0  0  0  0  0  0
    5.1075    1.7411   16.9513 H   0  0  0  0  0  0  0  0  0  0  0  0
    3.9712    1.8417   19.1675 H   0  0  0  0  0  0  0  0  0  0  0  0
    5.0182    0.6219   21.1371 H   0  0  0  0  0  0  0  0  0  0  0  0
    8.7437   -2.0074   22.3808 C   0  0  0  0  0  0  0  0  0  0  0  0
    9.3771   -1.6167   23.3496 O   0  0  0  0  0  0  0  0  0  0  0  0
    8.1551   -3.2571   22.3665 N   0  0  0  0  0  0  0  0  0  0  0  0
    8.5790   -4.2698   23.3677 C   0  0  0  0  0  0  0  0  0  0  0  0
    7.4850   -5.3097   23.6700 C   0  0  0  0  0  0  0  0  0  0  0  0
    6.8940   -5.8625   22.3644 C   0  0  0  0  0  0  0  0  0  0  0  0
    5.9282   -7.0248   22.5251 C   0  0  0  0  0  0  0  0  0  0  0  0
    5.2613   -7.1722   21.2818 O   0  0  0  0  0  0  0  0  0  0  0  0
    4.6961   -7.9611   21.3441 H   0  0  0  0  0  0  0  0  0  0  0  0
    5.2195   -6.8080   23.3419 H   0  0  0  0  0  0  0  0  0  0  0  0
    6.4885   -7.9430   22.7703 H   0  0  0  0  0  0  0  0  0  0  0  0
    6.2632   -4.6538   21.6623 C   0  0  0  0  0  0  0  0  0  0  0  0
    7.3841   -3.7389   21.2198 C   0  0  0  0  0  0  0  0  0  0  0  0
    8.0358   -4.3281   20.5566 H   0  0  0  0  0  0  0  0  0  0  0  0
    6.9601   -2.9007   20.6617 H   0  0  0  0  0  0  0  0  0  0  0  0
    5.6617   -4.9642   20.8065 H   0  0  0  0  0  0  0  0  0  0  0  0
    5.5824   -4.1312   22.3459 H   0  0  0  0  0  0  0  0  0  0  0  0
    7.7132   -6.2451   21.7309 H   0  0  0  0  0  0  0  0  0  0  0  0
    6.6836   -4.8350   24.2552 H   0  0  0  0  0  0  0  0  0  0  0  0
    7.9030   -6.1034   24.3018 H   0  0  0  0  0  0  0  0  0  0  0  0
    8.8879   -3.7343   24.2680 H   0  0  0  0  0  0  0  0  0  0  0  0
    9.4576   -4.8115   22.9990 H   0  0  0  0  0  0  0  0  0  0  0  0
    8.7297   -1.7717   20.2252 H   0  0  0  0  0  0  0  0  0  0  0  0
    9.5794    0.6595   21.8919 H   0  0  0  0  0  0  0  0  0  0  0  0
   10.6292   -0.4057   20.9256 H   0  0  0  0  0  0  0  0  0  0  0  0
    9.4373    0.6330   20.1215 H   0  0  0  0  0  0  0  0  0  0  0  0
  1  2  1  0
  2  3  1  0
  3  4  1  0
  4  5  2  0
  5  6  1  0
  6  7  2  0
  7  8  1  0
  8  9  2  0
  9 10  1  0
  7 11  1  0
  6 12  1  0
  5 13  1  0
  2 14  1  0
 14 15  2  0
 14 16  1  0
 16 17  1  0
 17 18  1  0
 18 19  1  0
 19 20  1  0
 20 21  1  0
 21 22  1  0
 20 23  1  0
 20 24  1  0
 19 25  1  0
 25 26  1  0
 26 27  1  0
 26 28  1  0
 25 29  1  0
 25 30  1  0
 19 31  1  0
 18 32  1  0
 18 33  1  0
 17 34  1  0
 17 35  1  0
  2 36  1  0
  1 37  1  0
  1 38  1  0
  1 39  1  0
  9  4  1  0
 26 16  1  0
M  END
>  <cnnaffinity>  (1) 
-4.68163

>  <filename>  (1) 
CC(Oc1cccnc1)C(=O)N1CCC(CO)CC1

$$$$
