
     RDKit          3D

 35 36  0  0  0  0  0  0  0  0999 V2000
    6.8573    3.3705   24.0169 C   0  0  0  0  0  0  0  0  0  0  0  0
    7.5064    1.9846   24.0461 C   0  0  0  0  0  0  0  0  0  0  0  0
    9.1392    2.0677   24.9049 S   0  0  0  0  0  0  0  0  0  0  0  0
    9.4213    0.3237   25.1236 C   0  0  0  0  0  0  0  0  0  0  0  0
   10.0172   -0.4303   24.0981 C   0  0  0  0  0  0  0  0  0  0  0  0
   10.0785   -1.8225   24.1923 C   0  0  0  0  0  0  0  0  0  0  0  0
    9.5398   -2.4580   25.3151 C   0  0  0  0  0  0  0  0  0  0  0  0
    9.5665   -4.1927   25.4100 Cl  0  0  0  0  0  0  0  0  0  0  0  0
    9.0077   -1.7194   26.3763 C   0  0  0  0  0  0  0  0  0  0  0  0
    8.9602   -0.3256   26.2814 C   0  0  0  0  0  0  0  0  0  0  0  0
    8.5740    0.2669   27.1081 H   0  0  0  0  0  0  0  0  0  0  0  0
    8.6357   -2.2350   27.2554 H   0  0  0  0  0  0  0  0  0  0  0  0
   10.5291   -2.4239   23.4084 H   0  0  0  0  0  0  0  0  0  0  0  0
   10.4219    0.0786   23.2252 H   0  0  0  0  0  0  0  0  0  0  0  0
    7.6201    1.3555   22.6593 C   0  0  0  0  0  0  0  0  0  0  0  0
    8.0095    1.9132   21.6636 O   0  0  0  0  0  0  0  0  0  0  0  0
    7.1265    0.0623   22.6117 N   0  0  0  0  0  0  0  0  0  0  0  0
    7.4986   -0.7657   21.2379 S   0  0  0  0  0  0  0  0  0  0  0  0
    6.8980   -2.0606   21.4795 O   0  0  0  0  0  0  0  0  0  0  0  0
    8.9139   -0.6488   20.9557 O   0  0  0  0  0  0  0  0  0  0  0  0
    6.6326    0.1327   20.0483 C   0  0  0  0  0  0  0  0  0  0  0  0
    5.3896    0.7538   20.2166 C   0  0  0  0  0  0  0  0  0  0  0  0
    4.8282    1.3206   19.0755 C   0  0  0  0  0  0  0  0  0  0  0  0
    5.5085    1.2295   17.8570 C   0  0  0  0  0  0  0  0  0  0  0  0
    6.6965    0.6265   17.7178 N   0  0  0  0  0  0  0  0  0  0  0  0
    7.2564    0.1076   18.8083 C   0  0  0  0  0  0  0  0  0  0  0  0
    8.2415   -0.3320   18.6690 H   0  0  0  0  0  0  0  0  0  0  0  0
    5.0892    1.6720   16.9537 H   0  0  0  0  0  0  0  0  0  0  0  0
    3.8841    1.8519   19.1112 H   0  0  0  0  0  0  0  0  0  0  0  0
    4.8782    0.8366   21.1805 H   0  0  0  0  0  0  0  0  0  0  0  0
    7.3027   -0.5851   23.3656 H   0  0  0  0  0  0  0  0  0  0  0  0
    6.8858    1.3126   24.6432 H   0  0  0  0  0  0  0  0  0  0  0  0
    5.8486    3.2936   23.5950 H   0  0  0  0  0  0  0  0  0  0  0  0
    6.7645    3.7621   25.0324 H   0  0  0  0  0  0  0  0  0  0  0  0
    7.4266    4.0793   23.4070 H   0  0  0  0  0  0  0  0  0  0  0  0
  1  2  1  0
  2  3  1  0
  3  4  1  0
  4  5  2  0
  5  6  1  0
  6  7  2  0
  7  8  1  0
  7  9  1  0
  9 10  2  0
 10 11  1  0
  9 12  1  0
  6 13  1  0
  5 14  1  0
  2 15  1  0
 15 16  2  0
 15 17  1  0
 17 18  1  0
 18 19  2  0
 18 20  2  0
 18 21  1  0
 21 22  2  0
 22 23  1  0
 23 24  2  0
 24 25  1  0
 25 26  2  0
 26 27  1  0
 24 28  1  0
 23 29  1  0
 22 30  1  0
 17 31  1  0
  2 32  1  0
  1 33  1  0
  1 34  1  0
  1 35  1  0
 10  4  1  0
 26 21  1  0
M  END
>  <cnnaffinity>  (1) 
-5.44481

>  <filename>  (1) 
CC(Sc1ccc(Cl)cc1)C(=O)NS(=O)(=O)c1cccnc1

$$$$
