
     RDKit          3D

 44 47  0  0  0  0  0  0  0  0999 V2000
    9.7372    5.1442   25.0579 C   0  0  0  0  0  0  0  0  0  0  0  0
    8.9477    4.3345   24.0487 C   0  0  0  0  0  0  0  0  0  0  0  0
    8.9536    4.8987   22.6368 C   0  0  0  0  0  0  0  0  0  0  0  0
    8.3190    4.0683   21.7593 F   0  0  0  0  0  0  0  0  0  0  0  0
    8.2901    6.0950   22.6065 F   0  0  0  0  0  0  0  0  0  0  0  0
    9.9636    5.0778   22.2566 H   0  0  0  0  0  0  0  0  0  0  0  0
    7.6921    3.6734   24.5506 C   0  0  0  0  0  0  0  0  0  0  0  0
    8.9111    2.8251   24.2854 C   0  0  0  0  0  0  0  0  0  0  0  0
    8.8883    1.7911   23.2135 C   0  0  0  0  0  0  0  0  0  0  0  0
    7.8596    1.0224   22.9028 N   0  0  0  0  0  0  0  0  0  0  0  0
    8.3110    0.3135   21.8380 C   0  0  0  0  0  0  0  0  0  0  0  0
    7.4700   -0.6443   21.0405 C   0  0  0  0  0  0  0  0  0  0  0  0
    6.7128    0.0050   19.8807 C   0  0  0  0  0  0  0  0  0  0  0  0
    5.5210    0.7079   20.1108 C   0  0  0  0  0  0  0  0  0  0  0  0
    4.8853    1.3335   19.0360 C   0  0  0  0  0  0  0  0  0  0  0  0
    5.4633    1.2420   17.7674 C   0  0  0  0  0  0  0  0  0  0  0  0
    6.5970    0.5693   17.5188 N   0  0  0  0  0  0  0  0  0  0  0  0
    7.1941   -0.0254   18.5594 C   0  0  0  0  0  0  0  0  0  0  0  0
    8.1169   -0.5625   18.3368 H   0  0  0  0  0  0  0  0  0  0  0  0
    5.0034    1.7319   16.9111 H   0  0  0  0  0  0  0  0  0  0  0  0
    3.9681    1.8973   19.1649 H   0  0  0  0  0  0  0  0  0  0  0  0
    5.1044    0.7649   21.1188 H   0  0  0  0  0  0  0  0  0  0  0  0
    8.1381   -1.4331   20.6742 H   0  0  0  0  0  0  0  0  0  0  0  0
    6.7735   -1.0950   21.7532 H   0  0  0  0  0  0  0  0  0  0  0  0
    9.5532    0.5723   21.4831 N   0  0  0  0  0  0  0  0  0  0  0  0
    9.9443    1.5166   22.3905 N   0  0  0  0  0  0  0  0  0  0  0  0
   11.0647    2.3674   22.1585 C   0  0  0  0  0  0  0  0  0  0  0  0
   11.4813    2.5879   20.8367 C   0  0  0  0  0  0  0  0  0  0  0  0
   12.3185    3.6605   20.5328 C   0  0  0  0  0  0  0  0  0  0  0  0
   12.8280    4.4610   21.5576 C   0  0  0  0  0  0  0  0  0  0  0  0
   12.5410    4.1372   22.8872 C   0  0  0  0  0  0  0  0  0  0  0  0
   13.0933    4.9479   23.9485 C   0  0  0  0  0  0  0  0  0  0  0  0
   13.4294    5.5989   24.8463 N   0  0  0  0  0  0  0  0  0  0  0  0
   11.6653    3.0839   23.2037 C   0  0  0  0  0  0  0  0  0  0  0  0
   11.4688    2.8158   24.2395 H   0  0  0  0  0  0  0  0  0  0  0  0
   13.4389    5.3285   21.3344 H   0  0  0  0  0  0  0  0  0  0  0  0
   12.5237    3.9240   19.5009 H   0  0  0  0  0  0  0  0  0  0  0  0
   11.0843    1.9387   20.0712 H   0  0  0  0  0  0  0  0  0  0  0  0
    9.4792    2.4946   25.1525 H   0  0  0  0  0  0  0  0  0  0  0  0
    7.4033    3.8566   25.5872 H   0  0  0  0  0  0  0  0  0  0  0  0
    6.8712    3.5456   23.8485 H   0  0  0  0  0  0  0  0  0  0  0  0
   10.8118    5.1313   24.8521 H   0  0  0  0  0  0  0  0  0  0  0  0
    9.4198    6.1932   25.0614 H   0  0  0  0  0  0  0  0  0  0  0  0
    9.5796    4.7496   26.0707 H   0  0  0  0  0  0  0  0  0  0  0  0
  1  2  1  0
  2  3  1  0
  3  4  1  0
  3  5  1  0
  3  6  1  0
  2  7  1  0
  7  8  1  0
  8  9  1  0
  9 10  2  0
 10 11  1  0
 11 12  1  0
 12 13  1  0
 13 14  2  0
 14 15  1  0
 15 16  2  0
 16 17  1  0
 17 18  2  0
 18 19  1  0
 16 20  1  0
 15 21  1  0
 14 22  1  0
 12 23  1  0
 12 24  1  0
 11 25  2  0
 25 26  1  0
 26 27  1  0
 27 28  2  0
 28 29  1  0
 29 30  2  0
 30 31  1  0
 31 32  1  0
 32 33  3  0
 31 34  2  0
 34 35  1  0
 30 36  1  0
 29 37  1  0
 28 38  1  0
  8 39  1  0
  7 40  1  0
  7 41  1  0
  1 42  1  0
  1 43  1  0
  1 44  1  0
  8  2  1  0
 26  9  1  0
 34 27  1  0
 18 13  1  0
M  END
>  <cnnaffinity>  (1) 
-6.08566

>  <filename>  (1) 
CC1(C(F)F)CC1c1nc(Cc2cccnc2)nn1-c1cccc(C#N)c1

$$$$
