
     RDKit          3D

 51 56  0  0  0  0  0  0  0  0999 V2000
    8.6016    0.6359   25.4213 C   0  0  0  0  0  0  0  0  0  0  0  0
    9.2499    1.9796   25.0549 C   0  0  0  0  0  0  0  0  0  0  0  0
   10.7527    1.7859   25.0480 C   0  0  0  0  0  0  0  0  0  0  0  0
   11.0506    1.4515   26.0419 H   0  0  0  0  0  0  0  0  0  0  0  0
   11.3101    2.6850   24.7800 H   0  0  0  0  0  0  0  0  0  0  0  0
   11.0084    1.0059   24.3275 H   0  0  0  0  0  0  0  0  0  0  0  0
    8.9154    2.9576   26.0384 O   0  0  0  0  0  0  0  0  0  0  0  0
    7.6573    3.5443   25.7245 C   0  0  0  0  0  0  0  0  0  0  0  0
    7.4920    3.4256   24.2220 C   0  0  0  0  0  0  0  0  0  0  0  0
    8.6082    4.0551   23.4727 C   0  0  0  0  0  0  0  0  0  0  0  0
    8.6457    2.5599   23.7553 C   0  0  0  0  0  0  0  0  0  0  0  0
    8.6406    1.6523   22.6006 C   0  0  0  0  0  0  0  0  0  0  0  0
    7.6941    0.7983   22.2682 N   0  0  0  0  0  0  0  0  0  0  0  0
    8.2355    0.1243   21.2252 C   0  0  0  0  0  0  0  0  0  0  0  0
    7.4538   -0.8932   20.4521 C   0  0  0  0  0  0  0  0  0  0  0  0
    6.6203   -0.2593   19.3424 C   0  0  0  0  0  0  0  0  0  0  0  0
    5.4988    0.5185   19.6713 C   0  0  0  0  0  0  0  0  0  0  0  0
    4.8727    1.2612   18.6693 C   0  0  0  0  0  0  0  0  0  0  0  0
    5.3767    1.1908   17.3682 C   0  0  0  0  0  0  0  0  0  0  0  0
    6.4021    0.4016   17.0197 N   0  0  0  0  0  0  0  0  0  0  0  0
    6.9932   -0.3069   17.9894 C   0  0  0  0  0  0  0  0  0  0  0  0
    7.8306   -0.9344   17.6787 H   0  0  0  0  0  0  0  0  0  0  0  0
    4.9453    1.7944   16.5715 H   0  0  0  0  0  0  0  0  0  0  0  0
    4.0338    1.9125   18.8876 H   0  0  0  0  0  0  0  0  0  0  0  0
    5.1507    0.5602   20.7063 H   0  0  0  0  0  0  0  0  0  0  0  0
    6.8055   -1.4054   21.1704 H   0  0  0  0  0  0  0  0  0  0  0  0
    8.1721   -1.6177   20.0620 H   0  0  0  0  0  0  0  0  0  0  0  0
    9.4739    0.4581   20.9165 N   0  0  0  0  0  0  0  0  0  0  0  0
    9.7296    1.4840   21.7848 N   0  0  0  0  0  0  0  0  0  0  0  0
   11.0404    2.0075   21.9416 C   0  0  0  0  0  0  0  0  0  0  0  0
   11.3173    3.3602   22.1503 C   0  0  0  0  0  0  0  0  0  0  0  0
   12.6223    3.7979   22.4414 C   0  0  0  0  0  0  0  0  0  0  0  0
   13.6641    2.8928   22.6002 C   0  0  0  0  0  0  0  0  0  0  0  0
   13.4071    1.5139   22.4340 C   0  0  0  0  0  0  0  0  0  0  0  0
   12.1222    1.1066   22.0491 C   0  0  0  0  0  0  0  0  0  0  0  0
   12.2055   -0.2605   21.9068 N   0  0  0  0  0  0  0  0  0  0  0  0
   13.4949   -0.6059   22.1797 C   0  0  0  0  0  0  0  0  0  0  0  0
   14.2533    0.4111   22.4989 N   0  0  0  0  0  0  0  0  0  0  0  0
   13.8401   -1.6287   22.1054 H   0  0  0  0  0  0  0  0  0  0  0  0
   11.4577   -0.8307   21.5491 H   0  0  0  0  0  0  0  0  0  0  0  0
   14.6697    3.2517   22.7562 H   0  0  0  0  0  0  0  0  0  0  0  0
   12.8282    4.8619   22.5342 H   0  0  0  0  0  0  0  0  0  0  0  0
   10.5280    4.0908   22.1313 H   0  0  0  0  0  0  0  0  0  0  0  0
    8.3965    4.3472   22.4456 H   0  0  0  0  0  0  0  0  0  0  0  0
    9.3210    4.6777   24.0188 H   0  0  0  0  0  0  0  0  0  0  0  0
    6.4859    3.3865   23.8120 H   0  0  0  0  0  0  0  0  0  0  0  0
    7.7002    4.5870   26.0536 H   0  0  0  0  0  0  0  0  0  0  0  0
    6.8342    3.0453   26.2505 H   0  0  0  0  0  0  0  0  0  0  0  0
    8.9773    0.2965   26.3915 H   0  0  0  0  0  0  0  0  0  0  0  0
    8.8720   -0.0948   24.6533 H   0  0  0  0  0  0  0  0  0  0  0  0
    7.5110    0.7033   25.4495 H   0  0  0  0  0  0  0  0  0  0  0  0
  1  2  1  0
  2  3  1  0
  3  4  1  0
  3  5  1  0
  3  6  1  0
  2  7  1  0
  7  8  1  0
  8  9  1  0
  9 10  1  0
 10 11  1  0
 11 12  1  0
 12 13  2  0
 13 14  1  0
 14 15  1  0
 15 16  1  0
 16 17  2  0
 17 18  1  0
 18 19  2  0
 19 20  1  0
 20 21  2  0
 21 22  1  0
 19 23  1  0
 18 24  1  0
 17 25  1  0
 15 26  1  0
 15 27  1  0
 14 28  2  0
 28 29  1  0
 29 30  1  0
 30 31  2  0
 31 32  1  0
 32 33  2  0
 33 34  1  0
 34 35  2  0
 35 36  1  0
 36 37  1  0
 37 38  2  0
 37 39  1  0
 36 40  1  0
 33 41  1  0
 32 42  1  0
 31 43  1  0
 10 44  1  0
 10 45  1  0
  9 46  1  0
  8 47  1  0
  8 48  1  0
  1 49  1  0
  1 50  1  0
  1 51  1  0
 11  2  1  0
 29 12  1  0
 35 30  1  0
 11  9  1  0
 21 16  1  0
 38 34  1  0
M  END
>  <cnnaffinity>  (1) 
-6.58129

>  <filename>  (1) 
CC1(C)OCC2CC21c1nc(Cc2cccnc2)nn1-c1cccc2nc[nH]c12

$$$$
