
     RDKit          3D

 46 49  0  0  0  0  0  0  0  0999 V2000
    6.9941    1.7035   25.3561 C   0  0  0  0  0  0  0  0  0  0  0  0
    7.2625    3.0534   24.6689 C   0  0  0  0  0  0  0  0  0  0  0  0
    6.0454    3.5050   23.8802 C   0  0  0  0  0  0  0  0  0  0  0  0
    6.2095    4.4859   23.4226 H   0  0  0  0  0  0  0  0  0  0  0  0
    5.8283    2.7734   23.0946 H   0  0  0  0  0  0  0  0  0  0  0  0
    5.1834    3.5777   24.5507 H   0  0  0  0  0  0  0  0  0  0  0  0
    7.5333    4.0507   25.6606 O   0  0  0  0  0  0  0  0  0  0  0  0
    8.8462    3.8227   26.1385 C   0  0  0  0  0  0  0  0  0  0  0  0
    9.6495    3.3055   24.9367 C   0  0  0  0  0  0  0  0  0  0  0  0
    8.5797    3.1155   23.8436 C   0  0  0  0  0  0  0  0  0  0  0  0
    8.7995    2.0082   22.9083 N   0  0  0  0  0  0  0  0  0  0  0  0
    7.7564    1.2915   22.4216 N   0  0  0  0  0  0  0  0  0  0  0  0
    8.3350    0.3945   21.6475 C   0  0  0  0  0  0  0  0  0  0  0  0
    7.5414   -0.6407   20.8850 C   0  0  0  0  0  0  0  0  0  0  0  0
    6.7077   -0.0698   19.7364 C   0  0  0  0  0  0  0  0  0  0  0  0
    5.4939    0.5842   19.9951 C   0  0  0  0  0  0  0  0  0  0  0  0
    4.8483    1.2575   18.9569 C   0  0  0  0  0  0  0  0  0  0  0  0
    5.4284    1.2408   17.6860 C   0  0  0  0  0  0  0  0  0  0  0  0
    6.5589    0.5748   17.3982 N   0  0  0  0  0  0  0  0  0  0  0  0
    7.1680   -0.0617   18.4055 C   0  0  0  0  0  0  0  0  0  0  0  0
    8.0869   -0.5938   18.1490 H   0  0  0  0  0  0  0  0  0  0  0  0
    4.9721    1.7879   16.8643 H   0  0  0  0  0  0  0  0  0  0  0  0
    3.9333    1.8170   19.1238 H   0  0  0  0  0  0  0  0  0  0  0  0
    5.0744    0.5816   21.0034 H   0  0  0  0  0  0  0  0  0  0  0  0
    8.2564   -1.3902   20.5278 H   0  0  0  0  0  0  0  0  0  0  0  0
    6.8811   -1.1283   21.6145 H   0  0  0  0  0  0  0  0  0  0  0  0
    9.6904    0.4747   21.6056 N   0  0  0  0  0  0  0  0  0  0  0  0
    9.9480    1.5311   22.3594 C   0  0  0  0  0  0  0  0  0  0  0  0
   11.2517    2.1703   22.5310 C   0  0  0  0  0  0  0  0  0  0  0  0
   11.4441    3.5661   22.4267 C   0  0  0  0  0  0  0  0  0  0  0  0
   12.7301    4.0443   22.5927 C   0  0  0  0  0  0  0  0  0  0  0  0
   12.9729    5.3631   22.5548 F   0  0  0  0  0  0  0  0  0  0  0  0
   13.7828    3.1526   22.8102 C   0  0  0  0  0  0  0  0  0  0  0  0
   13.6000    1.8244   22.9050 N   0  0  0  0  0  0  0  0  0  0  0  0
   12.3632    1.3439   22.7494 C   0  0  0  0  0  0  0  0  0  0  0  0
   12.2454    0.2635   22.8311 H   0  0  0  0  0  0  0  0  0  0  0  0
   14.7852    3.5553   22.8813 H   0  0  0  0  0  0  0  0  0  0  0  0
   10.6356    4.2745   22.2391 H   0  0  0  0  0  0  0  0  0  0  0  0
    8.5103    4.0432   23.2626 H   0  0  0  0  0  0  0  0  0  0  0  0
   10.1553    2.3639   25.1653 H   0  0  0  0  0  0  0  0  0  0  0  0
   10.4121    4.0351   24.6565 H   0  0  0  0  0  0  0  0  0  0  0  0
    9.2270    4.7648   26.5380 H   0  0  0  0  0  0  0  0  0  0  0  0
    8.8327    3.0922   26.9567 H   0  0  0  0  0  0  0  0  0  0  0  0
    6.2921    1.8814   26.1788 H   0  0  0  0  0  0  0  0  0  0  0  0
    6.5528    0.9989   24.6504 H   0  0  0  0  0  0  0  0  0  0  0  0
    7.9067    1.2514   25.7643 H   0  0  0  0  0  0  0  0  0  0  0  0
  1  2  1  0
  2  3  1  0
  3  4  1  0
  3  5  1  0
  3  6  1  0
  2  7  1  0
  7  8  1  0
  8  9  1  0
  9 10  1  0
 10 11  1  0
 11 12  1  0
 12 13  2  0
 13 14  1  0
 14 15  1  0
 15 16  2  0
 16 17  1  0
 17 18  2  0
 18 19  1  0
 19 20  2  0
 20 21  1  0
 18 22  1  0
 17 23  1  0
 16 24  1  0
 14 25  1  0
 14 26  1  0
 13 27  1  0
 27 28  2  0
 28 29  1  0
 29 30  2  0
 30 31  1  0
 31 32  1  0
 31 33  2  0
 33 34  1  0
 34 35  2  0
 35 36  1  0
 33 37  1  0
 30 38  1  0
 10 39  1  0
  9 40  1  0
  9 41  1  0
  8 42  1  0
  8 43  1  0
  1 44  1  0
  1 45  1  0
  1 46  1  0
 10  2  1  0
 28 11  1  0
 35 29  1  0
 20 15  1  0
M  END
>  <cnnaffinity>  (1) 
-5.74324

>  <filename>  (1) 
CC1(C)OCCC1n1nc(Cc2cccnc2)nc1-c1cncc(F)c1

$$$$
