
     RDKit          3D

 50 54  0  0  0  0  0  0  0  0999 V2000
    8.3041    5.1751   24.3872 C   0  0  0  0  0  0  0  0  0  0  0  0
    7.4577    3.9775   23.9414 C   0  0  0  0  0  0  0  0  0  0  0  0
    7.0116    4.1390   22.4868 C   0  0  0  0  0  0  0  0  0  0  0  0
    7.8582    4.3528   21.8250 H   0  0  0  0  0  0  0  0  0  0  0  0
    6.5156    3.2290   22.1415 H   0  0  0  0  0  0  0  0  0  0  0  0
    6.3053    4.9732   22.4319 H   0  0  0  0  0  0  0  0  0  0  0  0
    6.2838    3.9989   24.7669 O   0  0  0  0  0  0  0  0  0  0  0  0
    6.0250    2.7200   25.3125 C   0  0  0  0  0  0  0  0  0  0  0  0
    7.4060    2.1173   25.5258 C   0  0  0  0  0  0  0  0  0  0  0  0
    8.1809    2.6173   24.2918 C   0  0  0  0  0  0  0  0  0  0  0  0
    8.2299    1.6149   23.2076 N   0  0  0  0  0  0  0  0  0  0  0  0
    7.1046    0.9747   22.7964 N   0  0  0  0  0  0  0  0  0  0  0  0
    7.5497    0.1226   21.8917 C   0  0  0  0  0  0  0  0  0  0  0  0
    6.6343   -0.7198   21.0366 C   0  0  0  0  0  0  0  0  0  0  0  0
    6.1293   -0.0388   19.7542 C   0  0  0  0  0  0  0  0  0  0  0  0
    4.9864    0.7776   19.7533 C   0  0  0  0  0  0  0  0  0  0  0  0
    4.6125    1.4367   18.5789 C   0  0  0  0  0  0  0  0  0  0  0  0
    5.3835    1.2516   17.4313 C   0  0  0  0  0  0  0  0  0  0  0  0
    6.4573    0.4480   17.3893 N   0  0  0  0  0  0  0  0  0  0  0  0
    6.8034   -0.1771   18.5232 C   0  0  0  0  0  0  0  0  0  0  0  0
    7.6664   -0.8396   18.4436 H   0  0  0  0  0  0  0  0  0  0  0  0
    5.1217    1.7594   16.5040 H   0  0  0  0  0  0  0  0  0  0  0  0
    3.7400    2.0823   18.5331 H   0  0  0  0  0  0  0  0  0  0  0  0
    4.3828    0.8846   20.6560 H   0  0  0  0  0  0  0  0  0  0  0  0
    5.7825   -1.0272   21.6519 H   0  0  0  0  0  0  0  0  0  0  0  0
    7.1955   -1.6270   20.7879 H   0  0  0  0  0  0  0  0  0  0  0  0
    8.8984    0.1289   21.7275 N   0  0  0  0  0  0  0  0  0  0  0  0
    9.2952    1.1087   22.5284 C   0  0  0  0  0  0  0  0  0  0  0  0
   10.6414    1.7385   22.6055 C   0  0  0  0  0  0  0  0  0  0  0  0
   11.7959    0.9225   22.8248 C   0  0  0  0  0  0  0  0  0  0  0  0
   13.0711    1.4564   22.8193 C   0  0  0  0  0  0  0  0  0  0  0  0
   13.2127    2.8576   22.6039 C   0  0  0  0  0  0  0  0  0  0  0  0
   14.2941    3.7789   22.4666 C   0  0  0  0  0  0  0  0  0  0  0  0
   13.8764    5.0148   22.2764 N   0  0  0  0  0  0  0  0  0  0  0  0
   12.5232    4.9398   22.2646 N   0  0  0  0  0  0  0  0  0  0  0  0
   12.0702    3.6670   22.4318 C   0  0  0  0  0  0  0  0  0  0  0  0
   10.7799    3.1174   22.4213 C   0  0  0  0  0  0  0  0  0  0  0  0
    9.9248    3.7575   22.2456 H   0  0  0  0  0  0  0  0  0  0  0  0
   11.9641    5.7712   22.1374 H   0  0  0  0  0  0  0  0  0  0  0  0
   15.3447    3.5272   22.4661 H   0  0  0  0  0  0  0  0  0  0  0  0
   13.9513    0.8217   22.9423 H   0  0  0  0  0  0  0  0  0  0  0  0
   11.6508   -0.1431   22.9798 H   0  0  0  0  0  0  0  0  0  0  0  0
    9.2224    2.8157   24.5501 H   0  0  0  0  0  0  0  0  0  0  0  0
    7.3930    1.0277   25.6224 H   0  0  0  0  0  0  0  0  0  0  0  0
    7.8656    2.5394   26.4286 H   0  0  0  0  0  0  0  0  0  0  0  0
    5.4366    2.0995   24.6190 H   0  0  0  0  0  0  0  0  0  0  0  0
    5.4510    2.8703   26.2341 H   0  0  0  0  0  0  0  0  0  0  0  0
    7.7475    6.1007   24.2170 H   0  0  0  0  0  0  0  0  0  0  0  0
    9.2440    5.2275   23.8260 H   0  0  0  0  0  0  0  0  0  0  0  0
    8.5395    5.1118   25.4548 H   0  0  0  0  0  0  0  0  0  0  0  0
  1  2  1  0
  2  3  1  0
  3  4  1  0
  3  5  1  0
  3  6  1  0
  2  7  1  0
  7  8  1  0
  8  9  1  0
  9 10  1  0
 10 11  1  0
 11 12  1  0
 12 13  2  0
 13 14  1  0
 14 15  1  0
 15 16  2  0
 16 17  1  0
 17 18  2  0
 18 19  1  0
 19 20  2  0
 20 21  1  0
 18 22  1  0
 17 23  1  0
 16 24  1  0
 14 25  1  0
 14 26  1  0
 13 27  1  0
 27 28  2  0
 28 29  1  0
 29 30  2  0
 30 31  1  0
 31 32  2  0
 32 33  1  0
 33 34  2  0
 34 35  1  0
 35 36  1  0
 36 37  2  0
 37 38  1  0
 35 39  1  0
 33 40  1  0
 31 41  1  0
 30 42  1  0
 10 43  1  0
  9 44  1  0
  9 45  1  0
  8 46  1  0
  8 47  1  0
  1 48  1  0
  1 49  1  0
  1 50  1  0
 10  2  1  0
 28 11  1  0
 37 29  1  0
 20 15  1  0
 36 32  1  0
M  END
>  <cnnaffinity>  (1) 
-6.44324

>  <filename>  (1) 
CC1(C)OCCC1n1nc(Cc2cccnc2)nc1-c1ccc2cn[nH]c2c1

$$$$
