
     RDKit          3D

 50 54  0  0  0  0  0  0  0  0999 V2000
    7.0958    1.7411   25.4100 C   0  0  0  0  0  0  0  0  0  0  0  0
    7.3188    3.0702   24.6671 C   0  0  0  0  0  0  0  0  0  0  0  0
    6.0643    3.5189   23.9377 C   0  0  0  0  0  0  0  0  0  0  0  0
    5.7950    2.8038   23.1535 H   0  0  0  0  0  0  0  0  0  0  0  0
    5.2411    3.5862   24.6570 H   0  0  0  0  0  0  0  0  0  0  0  0
    6.2098    4.5062   23.4866 H   0  0  0  0  0  0  0  0  0  0  0  0
    7.6319    4.0944   25.6213 O   0  0  0  0  0  0  0  0  0  0  0  0
    8.9423    3.8365   26.0885 C   0  0  0  0  0  0  0  0  0  0  0  0
    9.7075    3.2638   24.8828 C   0  0  0  0  0  0  0  0  0  0  0  0
    8.6113    3.1008   23.8025 C   0  0  0  0  0  0  0  0  0  0  0  0
    8.7858    1.9774   22.8721 N   0  0  0  0  0  0  0  0  0  0  0  0
    7.7210    1.2589   22.4406 N   0  0  0  0  0  0  0  0  0  0  0  0
    8.2615    0.3422   21.6614 C   0  0  0  0  0  0  0  0  0  0  0  0
    7.4111   -0.6649   20.9293 C   0  0  0  0  0  0  0  0  0  0  0  0
    6.6124   -0.0641   19.7702 C   0  0  0  0  0  0  0  0  0  0  0  0
    5.4011    0.6013   20.0074 C   0  0  0  0  0  0  0  0  0  0  0  0
    4.7905    1.2990   18.9611 C   0  0  0  0  0  0  0  0  0  0  0  0
    5.4017    1.2905   17.7055 C   0  0  0  0  0  0  0  0  0  0  0  0
    6.5291    0.6131   17.4381 N   0  0  0  0  0  0  0  0  0  0  0  0
    7.1029   -0.0498   18.4507 C   0  0  0  0  0  0  0  0  0  0  0  0
    8.0188   -0.5897   18.2032 H   0  0  0  0  0  0  0  0  0  0  0  0
    4.9658    1.8492   16.8780 H   0  0  0  0  0  0  0  0  0  0  0  0
    3.8728    1.8572   19.1101 H   0  0  0  0  0  0  0  0  0  0  0  0
    4.9558    0.5831   21.0040 H   0  0  0  0  0  0  0  0  0  0  0  0
    6.7207   -1.1076   21.6594 H   0  0  0  0  0  0  0  0  0  0  0  0
    8.0809   -1.4594   20.5875 H   0  0  0  0  0  0  0  0  0  0  0  0
    9.6076    0.4249   21.5468 N   0  0  0  0  0  0  0  0  0  0  0  0
    9.9133    1.4863   22.2820 C   0  0  0  0  0  0  0  0  0  0  0  0
   11.2441    2.1276   22.3903 C   0  0  0  0  0  0  0  0  0  0  0  0
   11.4408    3.5265   22.3583 C   0  0  0  0  0  0  0  0  0  0  0  0
   12.7101    4.0874   22.5677 C   0  0  0  0  0  0  0  0  0  0  0  0
   13.8224    3.3834   22.8004 N   0  0  0  0  0  0  0  0  0  0  0  0
   13.6268    2.0624   22.7591 C   0  0  0  0  0  0  0  0  0  0  0  0
   12.4105    1.3494   22.5485 C   0  0  0  0  0  0  0  0  0  0  0  0
   12.7677   -0.0481   22.6090 C   0  0  0  0  0  0  0  0  0  0  0  0
   14.1156   -0.1248   22.8187 C   0  0  0  0  0  0  0  0  0  0  0  0
   14.6236    1.1496   22.8903 N   0  0  0  0  0  0  0  0  0  0  0  0
   15.5442    1.4700   23.1219 H   0  0  0  0  0  0  0  0  0  0  0  0
   14.7506   -0.9948   22.9762 H   0  0  0  0  0  0  0  0  0  0  0  0
   12.0907   -0.8851   22.4940 H   0  0  0  0  0  0  0  0  0  0  0  0
   12.8152    5.1670   22.5732 H   0  0  0  0  0  0  0  0  0  0  0  0
   10.6290    4.2252   22.2334 H   0  0  0  0  0  0  0  0  0  0  0  0
    8.5454    4.0274   23.2185 H   0  0  0  0  0  0  0  0  0  0  0  0
   10.5255    3.9237   24.5802 H   0  0  0  0  0  0  0  0  0  0  0  0
   10.1415    2.2923   25.1345 H   0  0  0  0  0  0  0  0  0  0  0  0
    8.8985    3.1065   26.9083 H   0  0  0  0  0  0  0  0  0  0  0  0
    9.3540    4.7699   26.4818 H   0  0  0  0  0  0  0  0  0  0  0  0
    6.4730    1.9436   26.2883 H   0  0  0  0  0  0  0  0  0  0  0  0
    8.0427    1.3095   25.7547 H   0  0  0  0  0  0  0  0  0  0  0  0
    6.6068    1.0068   24.7707 H   0  0  0  0  0  0  0  0  0  0  0  0
  1  2  1  0
  2  3  1  0
  3  4  1  0
  3  5  1  0
  3  6  1  0
  2  7  1  0
  7  8  1  0
  8  9  1  0
  9 10  1  0
 10 11  1  0
 11 12  1  0
 12 13  2  0
 13 14  1  0
 14 15  1  0
 15 16  2  0
 16 17  1  0
 17 18  2  0
 18 19  1  0
 19 20  2  0
 20 21  1  0
 18 22  1  0
 17 23  1  0
 16 24  1  0
 14 25  1  0
 14 26  1  0
 13 27  1  0
 27 28  2  0
 28 29  1  0
 29 30  2  0
 30 31  1  0
 31 32  2  0
 32 33  1  0
 33 34  2  0
 34 35  1  0
 35 36  2  0
 36 37  1  0
 37 38  1  0
 36 39  1  0
 35 40  1  0
 31 41  1  0
 30 42  1  0
 10 43  1  0
  9 44  1  0
  9 45  1  0
  8 46  1  0
  8 47  1  0
  1 48  1  0
  1 49  1  0
  1 50  1  0
 10  2  1  0
 28 11  1  0
 34 29  1  0
 20 15  1  0
 37 33  1  0
M  END
>  <cnnaffinity>  (1) 
-6.58468

>  <filename>  (1) 
CC1(C)OCCC1n1nc(Cc2cccnc2)nc1-c1ccnc2[nH]ccc12

$$$$
