
     RDKit          3D

 50 53  0  0  0  0  0  0  0  0999 V2000
    5.8744    3.8796   23.5997 C   0  0  0  0  0  0  0  0  0  0  0  0
    7.3903    4.0712   23.8111 C   0  0  0  0  0  0  0  0  0  0  0  0
    7.9978    4.6439   22.5213 C   0  0  0  0  0  0  0  0  0  0  0  0
    7.4070    5.4943   22.1662 H   0  0  0  0  0  0  0  0  0  0  0  0
    9.0265    4.9929   22.6596 H   0  0  0  0  0  0  0  0  0  0  0  0
    8.0076    3.8991   21.7177 H   0  0  0  0  0  0  0  0  0  0  0  0
    7.6068    5.0560   24.9873 C   0  0  0  0  0  0  0  0  0  0  0  0
    7.1031    4.5501   26.2124 O   0  0  0  0  0  0  0  0  0  0  0  0
    7.7110    3.3407   26.6314 C   0  0  0  0  0  0  0  0  0  0  0  0
    7.6240    2.2309   25.5813 C   0  0  0  0  0  0  0  0  0  0  0  0
    8.1397    2.7420   24.2183 C   0  0  0  0  0  0  0  0  0  0  0  0
    8.1461    1.6660   23.1523 C   0  0  0  0  0  0  0  0  0  0  0  0
    7.1198    0.9318   22.7433 N   0  0  0  0  0  0  0  0  0  0  0  0
    7.6279    0.2156   21.7070 C   0  0  0  0  0  0  0  0  0  0  0  0
    6.8391   -0.7257   20.8432 C   0  0  0  0  0  0  0  0  0  0  0  0
    6.3082   -0.0748   19.5700 C   0  0  0  0  0  0  0  0  0  0  0  0
    5.2808    0.8740   19.6529 C   0  0  0  0  0  0  0  0  0  0  0  0
    4.7924    1.4471   18.4784 C   0  0  0  0  0  0  0  0  0  0  0  0
    5.3762    1.0805   17.2642 C   0  0  0  0  0  0  0  0  0  0  0  0
    6.3922    0.2112   17.1627 N   0  0  0  0  0  0  0  0  0  0  0  0
    6.8416   -0.3430   18.2965 C   0  0  0  0  0  0  0  0  0  0  0  0
    7.6833   -1.0323   18.1962 H   0  0  0  0  0  0  0  0  0  0  0  0
    5.0223    1.5123   16.3320 H   0  0  0  0  0  0  0  0  0  0  0  0
    3.9956    2.1831   18.4905 H   0  0  0  0  0  0  0  0  0  0  0  0
    4.8785    1.1577   20.6280 H   0  0  0  0  0  0  0  0  0  0  0  0
    6.0162   -1.1109   21.4536 H   0  0  0  0  0  0  0  0  0  0  0  0
    7.4954   -1.5700   20.6010 H   0  0  0  0  0  0  0  0  0  0  0  0
    8.9014    0.4303   21.4634 N   0  0  0  0  0  0  0  0  0  0  0  0
    9.2441    1.3358   22.4104 N   0  0  0  0  0  0  0  0  0  0  0  0
   10.6147    1.7293   22.5247 C   0  0  0  0  0  0  0  0  0  0  0  0
   11.4190    1.2074   23.5404 C   0  0  0  0  0  0  0  0  0  0  0  0
   12.7536    1.6006   23.5878 C   0  0  0  0  0  0  0  0  0  0  0  0
   13.5420    1.0349   24.5126 F   0  0  0  0  0  0  0  0  0  0  0  0
   13.2893    2.5263   22.6957 C   0  0  0  0  0  0  0  0  0  0  0  0
   12.4645    3.0220   21.6755 C   0  0  0  0  0  0  0  0  0  0  0  0
   11.1371    2.6006   21.5713 C   0  0  0  0  0  0  0  0  0  0  0  0
   10.5012    2.8663   20.7369 H   0  0  0  0  0  0  0  0  0  0  0  0
   12.8692    3.6926   20.9217 H   0  0  0  0  0  0  0  0  0  0  0  0
   14.3277    2.8275   22.7824 H   0  0  0  0  0  0  0  0  0  0  0  0
   11.0409    0.4917   24.2606 H   0  0  0  0  0  0  0  0  0  0  0  0
    9.1927    3.0259   24.3517 H   0  0  0  0  0  0  0  0  0  0  0  0
    6.5908    1.8782   25.4867 H   0  0  0  0  0  0  0  0  0  0  0  0
    8.2196    1.3759   25.9223 H   0  0  0  0  0  0  0  0  0  0  0  0
    7.1955    3.0502   27.5503 H   0  0  0  0  0  0  0  0  0  0  0  0
    8.7697    3.5169   26.8845 H   0  0  0  0  0  0  0  0  0  0  0  0
    8.6820    5.2985   25.0835 H   0  0  0  0  0  0  0  0  0  0  0  0
    7.0672    5.9926   24.8079 H   0  0  0  0  0  0  0  0  0  0  0  0
    5.6696    2.9877   23.0017 H   0  0  0  0  0  0  0  0  0  0  0  0
    5.4593    4.7485   23.0715 H   0  0  0  0  0  0  0  0  0  0  0  0
    5.3382    3.8008   24.5509 H   0  0  0  0  0  0  0  0  0  0  0  0
  1  2  1  0
  2  3  1  0
  3  4  1  0
  3  5  1  0
  3  6  1  0
  2  7  1  0
  7  8  1  0
  8  9  1  0
  9 10  1  0
 10 11  1  0
 11 12  1  0
 12 13  2  0
 13 14  1  0
 14 15  1  0
 15 16  1  0
 16 17  2  0
 17 18  1  0
 18 19  2  0
 19 20  1  0
 20 21  2  0
 21 22  1  0
 19 23  1  0
 18 24  1  0
 17 25  1  0
 15 26  1  0
 15 27  1  0
 14 28  2  0
 28 29  1  0
 29 30  1  0
 30 31  2  0
 31 32  1  0
 32 33  1  0
 32 34  2  0
 34 35  1  0
 35 36  2  0
 36 37  1  0
 35 38  1  0
 34 39  1  0
 31 40  1  0
 11 41  1  0
 10 42  1  0
 10 43  1  0
  9 44  1  0
  9 45  1  0
  7 46  1  0
  7 47  1  0
  1 48  1  0
  1 49  1  0
  1 50  1  0
 11  2  1  0
 29 12  1  0
 36 30  1  0
 21 16  1  0
M  END
>  <cnnaffinity>  (1) 
-5.98154

>  <filename>  (1) 
CC1(C)COCCC1c1nc(Cc2cccnc2)nn1-c1cccc(F)c1

$$$$
