
     RDKit          3D

 51 55  0  0  0  0  0  0  0  0999 V2000
   13.2894    2.3917   23.0179 C   0  0  0  0  0  0  0  0  0  0  0  0
   11.9249    1.6810   23.0426 C   0  0  0  0  0  0  0  0  0  0  0  0
   10.9627    2.5510   22.1598 C   0  0  0  0  0  0  0  0  0  0  0  0
    9.5999    2.0563   21.9594 N   0  0  0  0  0  0  0  0  0  0  0  0
    9.3739    1.1063   21.0142 N   0  0  0  0  0  0  0  0  0  0  0  0
    8.1571    0.6886   21.2949 C   0  0  0  0  0  0  0  0  0  0  0  0
    7.4895   -0.4244   20.5426 C   0  0  0  0  0  0  0  0  0  0  0  0
    6.6316    0.0684   19.3916 C   0  0  0  0  0  0  0  0  0  0  0  0
    5.4739    0.8148   19.6620 C   0  0  0  0  0  0  0  0  0  0  0  0
    4.7825    1.3811   18.5929 C   0  0  0  0  0  0  0  0  0  0  0  0
    5.2769    1.1857   17.2998 C   0  0  0  0  0  0  0  0  0  0  0  0
    6.3507    0.4341   17.0176 N   0  0  0  0  0  0  0  0  0  0  0  0
    6.9977   -0.1149   18.0498 C   0  0  0  0  0  0  0  0  0  0  0  0
    7.8778   -0.7135   17.8046 H   0  0  0  0  0  0  0  0  0  0  0  0
    4.8087    1.6586   16.4456 H   0  0  0  0  0  0  0  0  0  0  0  0
    3.8967    1.9880   18.7474 H   0  0  0  0  0  0  0  0  0  0  0  0
    5.1541    0.9598   20.6988 H   0  0  0  0  0  0  0  0  0  0  0  0
    6.8738   -0.9499   21.2773 H   0  0  0  0  0  0  0  0  0  0  0  0
    8.2644   -1.1193   20.2067 H   0  0  0  0  0  0  0  0  0  0  0  0
    7.5610    1.3253   22.3300 N   0  0  0  0  0  0  0  0  0  0  0  0
    8.4816    2.1947   22.7205 C   0  0  0  0  0  0  0  0  0  0  0  0
    8.4032    3.2025   23.7986 C   0  0  0  0  0  0  0  0  0  0  0  0
    8.7401    4.5689   23.6379 C   0  0  0  0  0  0  0  0  0  0  0  0
    8.8775    5.4151   24.7521 C   0  0  0  0  0  0  0  0  0  0  0  0
    8.6917    5.0329   26.0296 N   0  0  0  0  0  0  0  0  0  0  0  0
    8.2874    3.7674   26.1338 C   0  0  0  0  0  0  0  0  0  0  0  0
    8.0963    2.8096   25.1161 C   0  0  0  0  0  0  0  0  0  0  0  0
    7.7462    1.5905   25.6733 N   0  0  0  0  0  0  0  0  0  0  0  0
    7.7148    1.8088   26.9572 C   0  0  0  0  0  0  0  0  0  0  0  0
    8.0117    3.1025   27.2972 N   0  0  0  0  0  0  0  0  0  0  0  0
    8.2682    3.4785   28.1879 H   0  0  0  0  0  0  0  0  0  0  0  0
    7.4489    1.0590   27.6982 H   0  0  0  0  0  0  0  0  0  0  0  0
    9.1854    6.4475   24.5950 H   0  0  0  0  0  0  0  0  0  0  0  0
    8.9138    4.9781   22.6504 H   0  0  0  0  0  0  0  0  0  0  0  0
   10.8945    3.5617   22.5712 H   0  0  0  0  0  0  0  0  0  0  0  0
   11.3823    2.6303   21.1524 H   0  0  0  0  0  0  0  0  0  0  0  0
   11.3937    1.4643   24.4981 C   0  0  0  0  0  0  0  0  0  0  0  0
   11.2365   -0.0598   24.7250 C   0  0  0  0  0  0  0  0  0  0  0  0
   11.0880   -0.6177   23.3029 C   0  0  0  0  0  0  0  0  0  0  0  0
   12.0630    0.2377   22.4944 C   0  0  0  0  0  0  0  0  0  0  0  0
   13.0796   -0.1341   22.6931 H   0  0  0  0  0  0  0  0  0  0  0  0
   11.9085    0.1888   21.4133 H   0  0  0  0  0  0  0  0  0  0  0  0
   10.0618   -0.4699   22.9541 H   0  0  0  0  0  0  0  0  0  0  0  0
   11.2947   -1.6845   23.1841 H   0  0  0  0  0  0  0  0  0  0  0  0
   12.1400   -0.4520   25.2159 H   0  0  0  0  0  0  0  0  0  0  0  0
   10.3849   -0.3098   25.3702 H   0  0  0  0  0  0  0  0  0  0  0  0
   10.4451    1.9848   24.6488 H   0  0  0  0  0  0  0  0  0  0  0  0
   12.0745    1.8971   25.2337 H   0  0  0  0  0  0  0  0  0  0  0  0
   13.3262    3.2670   23.6715 H   0  0  0  0  0  0  0  0  0  0  0  0
   14.1056    1.7136   23.2946 H   0  0  0  0  0  0  0  0  0  0  0  0
   13.4866    2.7737   22.0179 H   0  0  0  0  0  0  0  0  0  0  0  0
  1  2  1  0
  2  3  1  0
  3  4  1  0
  4  5  1  0
  5  6  2  0
  6  7  1  0
  7  8  1  0
  8  9  2  0
  9 10  1  0
 10 11  2  0
 11 12  1  0
 12 13  2  0
 13 14  1  0
 11 15  1  0
 10 16  1  0
  9 17  1  0
  7 18  1  0
  7 19  1  0
  6 20  1  0
 20 21  2  0
 21 22  1  0
 22 23  2  0
 23 24  1  0
 24 25  2  0
 25 26  1  0
 26 27  2  0
 27 28  1  0
 28 29  2  0
 29 30  1  0
 30 31  1  0
 29 32  1  0
 24 33  1  0
 23 34  1  0
  3 35  1  0
  3 36  1  0
  2 37  1  0
 37 38  1  0
 38 39  1  0
 39 40  1  0
 40 41  1  0
 40 42  1  0
 39 43  1  0
 39 44  1  0
 38 45  1  0
 38 46  1  0
 37 47  1  0
 37 48  1  0
  1 49  1  0
  1 50  1  0
  1 51  1  0
 40  2  1  0
 21  4  1  0
 27 22  1  0
 13  8  1  0
 30 26  1  0
M  END
>  <cnnaffinity>  (1) 
-5.67342

>  <filename>  (1) 
CC1(Cn2nc(Cc3cccnc3)nc2-c2ccnc3[nH]cnc23)CCCC1

$$$$
