
     RDKit          3D

 49 52  0  0  0  0  0  0  0  0999 V2000
    8.6290   -0.9864   26.5829 C   0  0  0  0  0  0  0  0  0  0  0  0
    7.7526   -0.7487   25.3587 C   0  0  0  0  0  0  0  0  0  0  0  0
    7.6378    0.7196   24.9644 C   0  0  0  0  0  0  0  0  0  0  0  0
    8.5797    1.0709   24.5231 H   0  0  0  0  0  0  0  0  0  0  0  0
    7.4272    1.3459   25.8380 H   0  0  0  0  0  0  0  0  0  0  0  0
    6.8508    0.8870   24.2210 H   0  0  0  0  0  0  0  0  0  0  0  0
    6.5632   -1.6389   25.1105 C   0  0  2  0  0  0  0  0  0  0  0  0
    6.1215   -2.7018   26.0700 C   0  0  0  0  0  0  0  0  0  0  0  0
    5.7510   -2.3698   27.3825 C   0  0  0  0  0  0  0  0  0  0  0  0
    5.3373   -3.3626   28.2697 C   0  0  0  0  0  0  0  0  0  0  0  0
    5.2506   -4.6570   27.9382 N   0  0  0  0  0  0  0  0  0  0  0  0
    5.5574   -4.9859   26.6794 C   0  0  0  0  0  0  0  0  0  0  0  0
    5.9721   -4.0536   25.7198 C   0  0  0  0  0  0  0  0  0  0  0  0
    6.2718   -4.6048   24.0982 Cl  0  0  0  0  0  0  0  0  0  0  0  0
    5.4808   -6.0380   26.4102 H   0  0  0  0  0  0  0  0  0  0  0  0
    5.0880   -3.1120   29.2975 H   0  0  0  0  0  0  0  0  0  0  0  0
    5.8020   -1.3414   27.7148 H   0  0  0  0  0  0  0  0  0  0  0  0
    7.7992   -1.8096   24.2592 C   0  0  1  0  0  0  0  0  0  0  0  0
    7.7396   -1.4905   22.8158 C   0  0  0  0  0  0  0  0  0  0  0  0
    6.7835   -0.8390   22.1688 N   0  0  0  0  0  0  0  0  0  0  0  0
    7.2788   -0.7130   20.9145 C   0  0  0  0  0  0  0  0  0  0  0  0
    6.5868    0.0032   19.8601 C   0  0  0  0  0  0  0  0  0  0  0  0
    5.3855    0.6742   20.1009 C   0  0  0  0  0  0  0  0  0  0  0  0
    4.7868    1.3354   19.0325 C   0  0  0  0  0  0  0  0  0  0  0  0
    5.4210    1.3109   17.7812 C   0  0  0  0  0  0  0  0  0  0  0  0
    6.5812    0.6770   17.5488 N   0  0  0  0  0  0  0  0  0  0  0  0
    7.1507    0.0434   18.5779 C   0  0  0  0  0  0  0  0  0  0  0  0
    8.0996   -0.4553   18.3893 H   0  0  0  0  0  0  0  0  0  0  0  0
    4.9773    1.8187   16.9274 H   0  0  0  0  0  0  0  0  0  0  0  0
    3.8562    1.8767   19.1583 H   0  0  0  0  0  0  0  0  0  0  0  0
    4.9613    0.6767   21.1075 H   0  0  0  0  0  0  0  0  0  0  0  0
    8.4570   -1.2661   20.7330 N   0  0  0  0  0  0  0  0  0  0  0  0
    8.7403   -1.7784   21.9467 N   0  0  0  0  0  0  0  0  0  0  0  0
   10.0131   -2.4573   22.1065 C   0  0  0  0  0  0  0  0  0  0  0  0
   11.1868   -1.5347   22.4328 C   0  0  0  0  0  0  0  0  0  0  0  0
   11.0049   -0.6144   23.6279 C   0  0  0  0  0  0  0  0  0  0  0  0
   12.2304    0.0809   23.7838 O   0  0  0  0  0  0  0  0  0  0  0  0
   12.3288    0.3086   24.7127 H   0  0  0  0  0  0  0  0  0  0  0  0
   10.7516   -1.1822   24.5378 H   0  0  0  0  0  0  0  0  0  0  0  0
   10.1758    0.0936   23.4584 H   0  0  0  0  0  0  0  0  0  0  0  0
   12.0727   -2.1597   22.5957 H   0  0  0  0  0  0  0  0  0  0  0  0
   11.4035   -0.9051   21.5632 H   0  0  0  0  0  0  0  0  0  0  0  0
   10.1878   -2.8929   21.1248 H   0  0  0  0  0  0  0  0  0  0  0  0
    9.8920   -3.2627   22.8393 H   0  0  0  0  0  0  0  0  0  0  0  0
    8.4253   -2.6658   24.5041 H   0  0  0  0  0  0  0  0  0  0  0  0
    5.7299   -1.1486   24.6084 H   0  0  0  0  0  0  0  0  0  0  0  0
    8.2356   -0.4356   27.4475 H   0  0  0  0  0  0  0  0  0  0  0  0
    9.6525   -0.6296   26.4139 H   0  0  0  0  0  0  0  0  0  0  0  0
    8.6807   -2.0443   26.8674 H   0  0  0  0  0  0  0  0  0  0  0  0
  1  2  1  0
  2  3  1  0
  3  4  1  0
  3  5  1  0
  3  6  1  0
  2  7  1  0
  7  8  1  0
  8  9  2  0
  9 10  1  0
 10 11  2  0
 11 12  1  0
 12 13  2  0
 13 14  1  0
 12 15  1  0
 10 16  1  0
  9 17  1  0
  7 18  1  0
 18 19  1  0
 19 20  2  0
 20 21  1  0
 21 22  1  0
 22 23  2  0
 23 24  1  0
 24 25  2  0
 25 26  1  0
 26 27  2  0
 27 28  1  0
 25 29  1  0
 24 30  1  0
 23 31  1  0
 21 32  2  0
 32 33  1  0
 33 34  1  0
 34 35  1  0
 35 36  1  0
 36 37  1  0
 37 38  1  0
 36 39  1  0
 36 40  1  0
 35 41  1  0
 35 42  1  0
 34 43  1  0
 34 44  1  0
 18 45  1  6
  7 46  1  6
  1 47  1  0
  1 48  1  0
  1 49  1  0
 18  2  1  0
 33 19  1  0
 13  8  1  0
 27 22  1  0
M  END
>  <cnnaffinity>  (1) 
-6.40338

>  <filename>  (1) 
CC1(C)[C@H](c2ccncc2Cl)[C@H]1c1nc(-c2cccnc2)nn1CCCO

$$$$
