
     RDKit          3D

 51 55  0  0  0  0  0  0  0  0999 V2000
    6.4524    4.2932   23.3089 C   0  0  0  0  0  0  0  0  0  0  0  0
    7.0973    3.4900   24.4401 C   0  0  0  0  0  0  0  0  0  0  0  0
    6.1558    2.3765   24.9290 C   0  0  0  0  0  0  0  0  0  0  0  0
    5.2984    2.8054   25.4638 H   0  0  0  0  0  0  0  0  0  0  0  0
    6.6633    1.6898   25.6168 H   0  0  0  0  0  0  0  0  0  0  0  0
    5.7922    1.7857   24.0860 H   0  0  0  0  0  0  0  0  0  0  0  0
    7.5598    4.3784   25.6276 C   0  0  0  0  0  0  0  0  0  0  0  0
    8.6655    3.5766   26.3576 C   0  0  0  0  0  0  0  0  0  0  0  0
    9.2235    2.5965   25.2976 C   0  0  0  0  0  0  0  0  0  0  0  0
    8.4904    2.9716   23.9975 C   0  0  0  0  0  0  0  0  0  0  0  0
    8.5996    1.9577   22.9409 N   0  0  0  0  0  0  0  0  0  0  0  0
    7.5693    1.2264   22.4665 N   0  0  0  0  0  0  0  0  0  0  0  0
    8.1522    0.3168   21.7052 C   0  0  0  0  0  0  0  0  0  0  0  0
    7.3645   -0.6786   20.8848 C   0  0  0  0  0  0  0  0  0  0  0  0
    6.5809   -0.0676   19.7170 C   0  0  0  0  0  0  0  0  0  0  0  0
    5.3697    0.5994   19.9463 C   0  0  0  0  0  0  0  0  0  0  0  0
    4.7744    1.3021   18.8939 C   0  0  0  0  0  0  0  0  0  0  0  0
    5.3873    1.2865   17.6412 C   0  0  0  0  0  0  0  0  0  0  0  0
    6.5034    0.5921   17.3776 N   0  0  0  0  0  0  0  0  0  0  0  0
    7.0680   -0.0704   18.3962 C   0  0  0  0  0  0  0  0  0  0  0  0
    7.9779   -0.6195   18.1521 H   0  0  0  0  0  0  0  0  0  0  0  0
    4.9642    1.8483   16.8091 H   0  0  0  0  0  0  0  0  0  0  0  0
    3.8669    1.8741   19.0355 H   0  0  0  0  0  0  0  0  0  0  0  0
    4.9151    0.5825   20.9377 H   0  0  0  0  0  0  0  0  0  0  0  0
    6.6696   -1.1743   21.5713 H   0  0  0  0  0  0  0  0  0  0  0  0
    8.0688   -1.4444   20.5389 H   0  0  0  0  0  0  0  0  0  0  0  0
    9.5057    0.3836   21.6972 N   0  0  0  0  0  0  0  0  0  0  0  0
    9.7588    1.4552   22.4368 C   0  0  0  0  0  0  0  0  0  0  0  0
   11.0846    2.0972   22.6105 C   0  0  0  0  0  0  0  0  0  0  0  0
   12.2328    1.2473   22.6756 C   0  0  0  0  0  0  0  0  0  0  0  0
   13.4970    1.6962   22.7265 N   0  0  0  0  0  0  0  0  0  0  0  0
   13.5583    3.0356   22.6696 C   0  0  0  0  0  0  0  0  0  0  0  0
   14.6816    3.7930   22.5826 N   0  0  0  0  0  0  0  0  0  0  0  0
   14.3347    5.1296   22.6404 C   0  0  0  0  0  0  0  0  0  0  0  0
   12.9780    5.2590   22.7190 C   0  0  0  0  0  0  0  0  0  0  0  0
   12.4356    3.9287   22.6768 C   0  0  0  0  0  0  0  0  0  0  0  0
   11.1802    3.4526   22.6662 N   0  0  0  0  0  0  0  0  0  0  0  0
   12.4068    6.1729   22.8397 H   0  0  0  0  0  0  0  0  0  0  0  0
   15.0975    5.9005   22.5914 H   0  0  0  0  0  0  0  0  0  0  0  0
   15.5912    3.3699   22.6881 H   0  0  0  0  0  0  0  0  0  0  0  0
   12.0942    0.1700   22.6973 H   0  0  0  0  0  0  0  0  0  0  0  0
    8.9982    3.8467   23.5876 H   0  0  0  0  0  0  0  0  0  0  0  0
   10.3023    2.6854   25.1377 H   0  0  0  0  0  0  0  0  0  0  0  0
    9.0145    1.5554   25.5738 H   0  0  0  0  0  0  0  0  0  0  0  0
    8.2584    3.0245   27.2136 H   0  0  0  0  0  0  0  0  0  0  0  0
    9.4389    4.2508   26.7409 H   0  0  0  0  0  0  0  0  0  0  0  0
    6.7293    4.6777   26.2782 H   0  0  0  0  0  0  0  0  0  0  0  0
    7.9984    5.3051   25.2276 H   0  0  0  0  0  0  0  0  0  0  0  0
    7.1228    5.0934   22.9692 H   0  0  0  0  0  0  0  0  0  0  0  0
    5.5073    4.7582   23.6144 H   0  0  0  0  0  0  0  0  0  0  0  0
    6.2546    3.6333   22.4556 H   0  0  0  0  0  0  0  0  0  0  0  0
  1  2  1  0
  2  3  1  0
  3  4  1  0
  3  5  1  0
  3  6  1  0
  2  7  1  0
  7  8  1  0
  8  9  1  0
  9 10  1  0
 10 11  1  0
 11 12  1  0
 12 13  2  0
 13 14  1  0
 14 15  1  0
 15 16  2  0
 16 17  1  0
 17 18  2  0
 18 19  1  0
 19 20  2  0
 20 21  1  0
 18 22  1  0
 17 23  1  0
 16 24  1  0
 14 25  1  0
 14 26  1  0
 13 27  1  0
 27 28  2  0
 28 29  1  0
 29 30  2  0
 30 31  1  0
 31 32  2  0
 32 33  1  0
 33 34  1  0
 34 35  2  0
 35 36  1  0
 36 37  2  0
 35 38  1  0
 34 39  1  0
 33 40  1  0
 30 41  1  0
 10 42  1  0
  9 43  1  0
  9 44  1  0
  8 45  1  0
  8 46  1  0
  7 47  1  0
  7 48  1  0
  1 49  1  0
  1 50  1  0
  1 51  1  0
 10  2  1  0
 28 11  1  0
 37 29  1  0
 20 15  1  0
 36 32  1  0
M  END
>  <cnnaffinity>  (1) 
-6.49174

>  <filename>  (1) 
CC1(C)CCCC1n1nc(Cc2cccnc2)nc1-c1cnc2[nH]ccc2n1

$$$$
