
     RDKit          3D

 48 52  0  0  0  0  0  0  0  0999 V2000
   11.7167    0.6375   24.4324 C   0  0  0  0  0  0  0  0  0  0  0  0
   12.2900    0.8051   23.0185 C   0  0  0  0  0  0  0  0  0  0  0  0
   11.4795    1.7966   22.1513 C   0  0  0  0  0  0  0  0  0  0  0  0
   10.0470    1.4957   22.0844 N   0  0  0  0  0  0  0  0  0  0  0  0
    9.6017    0.5697   21.1962 N   0  0  0  0  0  0  0  0  0  0  0  0
    8.3806    0.3062   21.6222 C   0  0  0  0  0  0  0  0  0  0  0  0
    7.4824   -0.6565   20.9025 C   0  0  0  0  0  0  0  0  0  0  0  0
    6.6833   -0.0287   19.7639 C   0  0  0  0  0  0  0  0  0  0  0  0
    5.4789    0.6346   20.0383 C   0  0  0  0  0  0  0  0  0  0  0  0
    4.8251    1.3164   19.0081 C   0  0  0  0  0  0  0  0  0  0  0  0
    5.3987    1.3032   17.7323 C   0  0  0  0  0  0  0  0  0  0  0  0
    6.5230    0.6339   17.4328 N   0  0  0  0  0  0  0  0  0  0  0  0
    7.1336   -0.0153   18.4321 C   0  0  0  0  0  0  0  0  0  0  0  0
    8.0316   -0.5696   18.1580 H   0  0  0  0  0  0  0  0  0  0  0  0
    4.9339    1.8392   16.9063 H   0  0  0  0  0  0  0  0  0  0  0  0
    3.8997    1.8600   19.1786 H   0  0  0  0  0  0  0  0  0  0  0  0
    5.0629    0.6001   21.0483 H   0  0  0  0  0  0  0  0  0  0  0  0
    8.1040   -1.4807   20.5402 H   0  0  0  0  0  0  0  0  0  0  0  0
    6.7984   -1.0705   21.6490 H   0  0  0  0  0  0  0  0  0  0  0  0
    8.0211    0.9689   22.7467 N   0  0  0  0  0  0  0  0  0  0  0  0
    9.0664    1.7470   22.9958 C   0  0  0  0  0  0  0  0  0  0  0  0
    9.1323    2.7498   24.0957 C   0  0  0  0  0  0  0  0  0  0  0  0
    8.7541    2.4685   25.4274 C   0  0  0  0  0  0  0  0  0  0  0  0
    8.7512    3.4787   26.4104 C   0  0  0  0  0  0  0  0  0  0  0  0
    9.0954    4.7655   26.2040 N   0  0  0  0  0  0  0  0  0  0  0  0
    9.4209    5.0028   24.9357 C   0  0  0  0  0  0  0  0  0  0  0  0
    9.4990    4.0909   23.8569 C   0  0  0  0  0  0  0  0  0  0  0  0
    9.8671    4.7524   22.7041 N   0  0  0  0  0  0  0  0  0  0  0  0
    9.9689    6.0047   23.0530 C   0  0  0  0  0  0  0  0  0  0  0  0
    9.7356    6.2159   24.3843 N   0  0  0  0  0  0  0  0  0  0  0  0
    9.7428    7.0649   24.9146 H   0  0  0  0  0  0  0  0  0  0  0  0
   10.1871    6.8109   22.3627 H   0  0  0  0  0  0  0  0  0  0  0  0
    8.4364    3.2201   27.4167 H   0  0  0  0  0  0  0  0  0  0  0  0
    8.4604    1.4627   25.7176 H   0  0  0  0  0  0  0  0  0  0  0  0
   11.8328    1.7642   21.1160 H   0  0  0  0  0  0  0  0  0  0  0  0
   11.5782    2.8240   22.5055 H   0  0  0  0  0  0  0  0  0  0  0  0
   12.5861   -0.5364   22.2764 C   0  0  0  0  0  0  0  0  0  0  0  0
   14.1024   -0.2427   22.3327 C   0  0  0  0  0  0  0  0  0  0  0  0
   13.8194    1.0965   23.0512 C   0  0  0  0  0  0  0  0  0  0  0  0
   14.2160    1.1514   24.0662 H   0  0  0  0  0  0  0  0  0  0  0  0
   14.1475    2.0099   22.5409 H   0  0  0  0  0  0  0  0  0  0  0  0
   14.5600   -0.1169   21.3517 H   0  0  0  0  0  0  0  0  0  0  0  0
   14.6956   -0.9668   22.9013 H   0  0  0  0  0  0  0  0  0  0  0  0
   12.2434   -1.4289   22.8048 H   0  0  0  0  0  0  0  0  0  0  0  0
   12.1680   -0.6032   21.2650 H   0  0  0  0  0  0  0  0  0  0  0  0
   11.6891    1.6036   24.9529 H   0  0  0  0  0  0  0  0  0  0  0  0
   12.3446   -0.0526   25.0087 H   0  0  0  0  0  0  0  0  0  0  0  0
   10.7012    0.2262   24.4137 H   0  0  0  0  0  0  0  0  0  0  0  0
  1  2  1  0
  2  3  1  0
  3  4  1  0
  4  5  1  0
  5  6  2  0
  6  7  1  0
  7  8  1  0
  8  9  2  0
  9 10  1  0
 10 11  2  0
 11 12  1  0
 12 13  2  0
 13 14  1  0
 11 15  1  0
 10 16  1  0
  9 17  1  0
  7 18  1  0
  7 19  1  0
  6 20  1  0
 20 21  2  0
 21 22  1  0
 22 23  2  0
 23 24  1  0
 24 25  2  0
 25 26  1  0
 26 27  2  0
 27 28  1  0
 28 29  2  0
 29 30  1  0
 30 31  1  0
 29 32  1  0
 24 33  1  0
 23 34  1  0
  3 35  1  0
  3 36  1  0
  2 37  1  0
 37 38  1  0
 38 39  1  0
 39 40  1  0
 39 41  1  0
 38 42  1  0
 38 43  1  0
 37 44  1  0
 37 45  1  0
  1 46  1  0
  1 47  1  0
  1 48  1  0
 39  2  1  0
 21  4  1  0
 27 22  1  0
 13  8  1  0
 30 26  1  0
M  END
>  <cnnaffinity>  (1) 
-6.06589

>  <filename>  (1) 
CC1(Cn2nc(Cc3cccnc3)nc2-c2ccnc3[nH]cnc23)CCC1

$$$$
