
     RDKit          3D

 51 55  0  0  0  0  0  0  0  0999 V2000
    6.3138    4.0134   23.0121 C   0  0  0  0  0  0  0  0  0  0  0  0
    7.7127    4.1266   23.6295 C   0  0  0  0  0  0  0  0  0  0  0  0
    7.8302    5.1693   24.7648 C   0  0  0  0  0  0  0  0  0  0  0  0
    7.2595    4.6897   26.1098 C   0  0  0  0  0  0  0  0  0  0  0  0
    7.9418    3.3850   26.5429 C   0  0  0  0  0  0  0  0  0  0  0  0
    7.7742    2.2877   25.4770 C   0  0  0  0  0  0  0  0  0  0  0  0
    8.3446    2.7892   24.1347 C   0  0  0  0  0  0  0  0  0  0  0  0
    8.4144    1.7401   23.1029 N   0  0  0  0  0  0  0  0  0  0  0  0
    7.3636    0.9662   22.7159 N   0  0  0  0  0  0  0  0  0  0  0  0
    7.8945    0.1916   21.7833 C   0  0  0  0  0  0  0  0  0  0  0  0
    7.1089   -0.7929   20.9626 C   0  0  0  0  0  0  0  0  0  0  0  0
    6.4326   -0.1404   19.7541 C   0  0  0  0  0  0  0  0  0  0  0  0
    5.2543    0.6048   19.9172 C   0  0  0  0  0  0  0  0  0  0  0  0
    4.7511    1.3341   18.8350 C   0  0  0  0  0  0  0  0  0  0  0  0
    5.4382    1.2799   17.6190 C   0  0  0  0  0  0  0  0  0  0  0  0
    6.5437    0.5427   17.4247 N   0  0  0  0  0  0  0  0  0  0  0  0
    7.0202   -0.1402   18.4744 C   0  0  0  0  0  0  0  0  0  0  0  0
    7.9274   -0.7214   18.2882 H   0  0  0  0  0  0  0  0  0  0  0  0
    5.0919    1.8577   16.7635 H   0  0  0  0  0  0  0  0  0  0  0  0
    3.8682    1.9617   18.9237 H   0  0  0  0  0  0  0  0  0  0  0  0
    4.7460    0.6233   20.8829 H   0  0  0  0  0  0  0  0  0  0  0  0
    7.8140   -1.5673   20.6382 H   0  0  0  0  0  0  0  0  0  0  0  0
    6.3719   -1.2676   21.6200 H   0  0  0  0  0  0  0  0  0  0  0  0
    9.2174    0.3890   21.5630 N   0  0  0  0  0  0  0  0  0  0  0  0
    9.5008    1.3879   22.3762 C   0  0  0  0  0  0  0  0  0  0  0  0
   10.8050    2.0322   22.5029 C   0  0  0  0  0  0  0  0  0  0  0  0
   11.9258    1.1644   22.6309 C   0  0  0  0  0  0  0  0  0  0  0  0
   13.1809    1.5689   22.6781 N   0  0  0  0  0  0  0  0  0  0  0  0
   13.3625    2.9182   22.5671 C   0  0  0  0  0  0  0  0  0  0  0  0
   14.5407    3.7066   22.4819 C   0  0  0  0  0  0  0  0  0  0  0  0
   14.2652    4.9896   22.3608 N   0  0  0  0  0  0  0  0  0  0  0  0
   12.9148    5.0808   22.3467 N   0  0  0  0  0  0  0  0  0  0  0  0
   12.3097    3.8655   22.4615 C   0  0  0  0  0  0  0  0  0  0  0  0
   10.9868    3.4159   22.4525 C   0  0  0  0  0  0  0  0  0  0  0  0
   10.1564    4.1078   22.3598 H   0  0  0  0  0  0  0  0  0  0  0  0
   12.4799    5.9920   22.3122 H   0  0  0  0  0  0  0  0  0  0  0  0
   15.5494    3.3258   22.4392 H   0  0  0  0  0  0  0  0  0  0  0  0
   11.7545    0.0932   22.7191 H   0  0  0  0  0  0  0  0  0  0  0  0
    9.3874    3.0322   24.3615 H   0  0  0  0  0  0  0  0  0  0  0  0
    6.7188    2.0084   25.3674 H   0  0  0  0  0  0  0  0  0  0  0  0
    8.3106    1.3798   25.7742 H   0  0  0  0  0  0  0  0  0  0  0  0
    7.5830    3.0489   27.5220 H   0  0  0  0  0  0  0  0  0  0  0  0
    9.0166    3.5833   26.6722 H   0  0  0  0  0  0  0  0  0  0  0  0
    6.1770    4.5181   26.0169 H   0  0  0  0  0  0  0  0  0  0  0  0
    7.3965    5.4653   26.8744 H   0  0  0  0  0  0  0  0  0  0  0  0
    8.8992    5.3906   24.9124 H   0  0  0  0  0  0  0  0  0  0  0  0
    7.3656    6.1133   24.4544 H   0  0  0  0  0  0  0  0  0  0  0  0
    8.3434    4.4874   22.8041 H   0  0  0  0  0  0  0  0  0  0  0  0
    6.3540    3.3645   22.1325 H   0  0  0  0  0  0  0  0  0  0  0  0
    5.9844    5.0056   22.6798 H   0  0  0  0  0  0  0  0  0  0  0  0
    5.5477    3.6129   23.6870 H   0  0  0  0  0  0  0  0  0  0  0  0
  1  2  1  0
  2  3  1  0
  3  4  1  0
  4  5  1  0
  5  6  1  0
  6  7  1  0
  7  8  1  0
  8  9  1  0
  9 10  2  0
 10 11  1  0
 11 12  1  0
 12 13  2  0
 13 14  1  0
 14 15  2  0
 15 16  1  0
 16 17  2  0
 17 18  1  0
 15 19  1  0
 14 20  1  0
 13 21  1  0
 11 22  1  0
 11 23  1  0
 10 24  1  0
 24 25  2  0
 25 26  1  0
 26 27  2  0
 27 28  1  0
 28 29  2  0
 29 30  1  0
 30 31  2  0
 31 32  1  0
 32 33  1  0
 33 34  2  0
 34 35  1  0
 32 36  1  0
 30 37  1  0
 27 38  1  0
  7 39  1  0
  6 40  1  0
  6 41  1  0
  5 42  1  0
  5 43  1  0
  4 44  1  0
  4 45  1  0
  3 46  1  0
  3 47  1  0
  2 48  1  0
  1 49  1  0
  1 50  1  0
  1 51  1  0
  7  2  1  0
 25  8  1  0
 34 26  1  0
 17 12  1  0
 33 29  1  0
M  END
>  <cnnaffinity>  (1) 
-6.70871

>  <filename>  (1) 
CC1CCCCC1n1nc(Cc2cccnc2)nc1-c1cnc2cn[nH]c2c1

$$$$
