
     RDKit          3D

 41 43  0  0  0  0  0  0  0  0999 V2000
    9.4102    0.7004   20.7556 C   0  0  0  0  0  0  0  0  0  0  0  0
    8.6163   -0.3955   21.4118 C   0  0  0  0  0  0  0  0  0  0  0  0
    9.1590   -1.2173   22.3976 C   0  0  0  0  0  0  0  0  0  0  0  0
    8.4953   -2.2126   22.9697 N   0  0  0  0  0  0  0  0  0  0  0  0
    7.2296   -2.4133   22.5796 C   0  0  0  0  0  0  0  0  0  0  0  0
    6.4463   -3.4749   23.2683 C   0  0  0  0  0  0  0  0  0  0  0  0
    5.1068   -3.7265   22.9026 C   0  0  0  0  0  0  0  0  0  0  0  0
    4.3833   -4.7312   23.5372 C   0  0  0  0  0  0  0  0  0  0  0  0
    4.9612   -5.5150   24.5507 C   0  0  0  0  0  0  0  0  0  0  0  0
    4.1519   -6.5590   25.2804 C   0  0  0  0  0  0  0  0  0  0  0  0
    3.4343   -5.9460   26.4936 C   0  0  0  0  0  0  0  0  0  0  0  0
    2.6188   -6.9943   27.2313 N   0  0  0  0  0  4  0  0  0  0  0  0
    2.1244   -6.6207   28.0550 H   0  0  0  0  0  0  0  0  0  0  0  0
    3.2373   -7.7651   27.5547 H   0  0  0  0  0  0  0  0  0  0  0  0
    1.9126   -7.4064   26.5938 H   0  0  0  0  0  0  0  0  0  0  0  0
    2.7889   -5.1311   26.1470 H   0  0  0  0  0  0  0  0  0  0  0  0
    4.1825   -5.5037   27.1609 H   0  0  0  0  0  0  0  0  0  0  0  0
    3.4146   -7.0009   24.5971 H   0  0  0  0  0  0  0  0  0  0  0  0
    4.8122   -7.3692   25.6163 H   0  0  0  0  0  0  0  0  0  0  0  0
    6.2874   -5.2442   24.9281 C   0  0  0  0  0  0  0  0  0  0  0  0
    7.0244   -4.2457   24.3013 C   0  0  0  0  0  0  0  0  0  0  0  0
    8.0517   -4.0478   24.6065 H   0  0  0  0  0  0  0  0  0  0  0  0
    6.7518   -5.8209   25.7267 H   0  0  0  0  0  0  0  0  0  0  0  0
    3.3514   -4.9059   23.2413 H   0  0  0  0  0  0  0  0  0  0  0  0
    4.6487   -3.1155   22.1248 H   0  0  0  0  0  0  0  0  0  0  0  0
    6.6240   -1.7251   21.6033 N   0  0  0  0  0  0  0  0  0  0  0  0
    7.3099   -0.7476   21.0200 C   0  0  0  0  0  0  0  0  0  0  0  0
    6.6110   -0.0344   19.9292 C   0  0  0  0  0  0  0  0  0  0  0  0
    5.4013    0.6275   20.1649 C   0  0  0  0  0  0  0  0  0  0  0  0
    4.7995    1.3111   19.1074 C   0  0  0  0  0  0  0  0  0  0  0  0
    5.4176    1.2849   17.8516 C   0  0  0  0  0  0  0  0  0  0  0  0
    6.5687    0.6442   17.6093 N   0  0  0  0  0  0  0  0  0  0  0  0
    7.1483    0.0090   18.6355 C   0  0  0  0  0  0  0  0  0  0  0  0
    8.1023   -0.4649   18.4012 H   0  0  0  0  0  0  0  0  0  0  0  0
    4.9679    1.7949   17.0004 H   0  0  0  0  0  0  0  0  0  0  0  0
    3.8724    1.8598   19.2390 H   0  0  0  0  0  0  0  0  0  0  0  0
    4.9548    0.6132   21.1613 H   0  0  0  0  0  0  0  0  0  0  0  0
   10.1920   -1.0795   22.7287 H   0  0  0  0  0  0  0  0  0  0  0  0
    9.7463    0.3284   19.7878 H   0  0  0  0  0  0  0  0  0  0  0  0
    8.7947    1.5858   20.5666 H   0  0  0  0  0  0  0  0  0  0  0  0
   10.2855    0.9917   21.3398 H   0  0  0  0  0  0  0  0  0  0  0  0
  1  2  1  0
  2  3  2  0
  3  4  1  0
  4  5  2  0
  5  6  1  0
  6  7  2  0
  7  8  1  0
  8  9  2  0
  9 10  1  0
 10 11  1  0
 11 12  1  0
 12 13  1  0
 12 14  1  0
 12 15  1  0
 11 16  1  0
 11 17  1  0
 10 18  1  0
 10 19  1  0
  9 20  1  0
 20 21  2  0
 21 22  1  0
 20 23  1  0
  8 24  1  0
  7 25  1  0
  5 26  1  0
 26 27  2  0
 27 28  1  0
 28 29  2  0
 29 30  1  0
 30 31  2  0
 31 32  1  0
 32 33  2  0
 33 34  1  0
 31 35  1  0
 30 36  1  0
 29 37  1  0
  3 38  1  0
  1 39  1  0
  1 40  1  0
  1 41  1  0
 27  2  1  0
 33 28  1  0
 21  6  1  0
M  CHG  1  12   1
M  END
>  <cnnaffinity>  (1) 
-5.31312

>  <filename>  (1) 
Cc1cnc(-c2ccc(CC[NH3+])cc2)nc1-c1cccnc1

$$$$
