
     RDKit          3D

 45 49  0  0  0  0  0  0  0  0999 V2000
    7.2498   -6.3412   22.3416 C   0  0  0  0  0  0  0  0  0  0  0  0
    8.2217   -5.4741   23.0941 C   0  0  0  0  0  0  0  0  0  0  0  0
    8.6321   -5.7733   24.4035 C   0  0  0  0  0  0  0  0  0  0  0  0
    9.6192   -4.9910   25.0078 C   0  0  0  0  0  0  0  0  0  0  0  0
   10.1106   -3.8934   24.2978 C   0  0  0  0  0  0  0  0  0  0  0  0
    9.5374   -3.5841   23.0588 C   0  0  0  0  0  0  0  0  0  0  0  0
    9.8552   -2.2908   22.3268 C   0  0  0  0  0  0  0  0  0  0  0  0
    8.6627   -1.4667   22.0570 N   0  0  0  0  0  0  0  0  0  0  0  0
    8.4328   -1.0012   20.8161 N   0  0  0  0  0  0  0  0  0  0  0  0
    7.2259   -0.4642   20.9086 C   0  0  0  0  0  0  0  0  0  0  0  0
    6.5328    0.1651   19.7854 C   0  0  0  0  0  0  0  0  0  0  0  0
    5.3005    0.8198   19.9436 C   0  0  0  0  0  0  0  0  0  0  0  0
    4.7362    1.4282   18.8263 C   0  0  0  0  0  0  0  0  0  0  0  0
    5.4107    1.3556   17.6022 C   0  0  0  0  0  0  0  0  0  0  0  0
    6.5755    0.7113   17.4346 N   0  0  0  0  0  0  0  0  0  0  0  0
    7.1183    0.1321   18.5101 C   0  0  0  0  0  0  0  0  0  0  0  0
    8.0637   -0.3850   18.3541 H   0  0  0  0  0  0  0  0  0  0  0  0
    4.9957    1.8328   16.7179 H   0  0  0  0  0  0  0  0  0  0  0  0
    3.7987    1.9675   18.8947 H   0  0  0  0  0  0  0  0  0  0  0  0
    4.8142    0.8504   20.9211 H   0  0  0  0  0  0  0  0  0  0  0  0
    6.6633   -0.5710   22.1384 N   0  0  0  0  0  0  0  0  0  0  0  0
    7.5824   -1.1953   22.8458 C   0  0  0  0  0  0  0  0  0  0  0  0
    7.4941   -1.6740   24.2440 C   0  0  0  0  0  0  0  0  0  0  0  0
    8.4637   -1.2313   25.1664 C   0  0  0  0  0  0  0  0  0  0  0  0
    9.4253   -0.2356   25.0497 N   0  0  0  0  0  0  0  0  0  0  0  0
    9.9926   -0.1836   26.2238 C   0  0  0  0  0  0  0  0  0  0  0  0
    9.5219   -1.1251   27.0979 N   0  0  0  0  0  0  0  0  0  0  0  0
    8.5241   -1.8150   26.4467 C   0  0  0  0  0  0  0  0  0  0  0  0
    7.7080   -2.8753   26.8388 C   0  0  0  0  0  0  0  0  0  0  0  0
    6.7339   -3.2575   25.9222 C   0  0  0  0  0  0  0  0  0  0  0  0
    5.8876   -4.2420   26.2690 F   0  0  0  0  0  0  0  0  0  0  0  0
    6.5835   -2.6604   24.6630 C   0  0  0  0  0  0  0  0  0  0  0  0
    5.7534   -2.9759   24.0365 H   0  0  0  0  0  0  0  0  0  0  0  0
    7.8267   -3.4125   27.7706 H   0  0  0  0  0  0  0  0  0  0  0  0
    9.7274   -1.1771   28.0787 H   0  0  0  0  0  0  0  0  0  0  0  0
   10.7680    0.5179   26.5039 H   0  0  0  0  0  0  0  0  0  0  0  0
   10.2829   -2.5496   21.3598 H   0  0  0  0  0  0  0  0  0  0  0  0
   10.5845   -1.6930   22.8834 H   0  0  0  0  0  0  0  0  0  0  0  0
    8.6485   -4.3792   22.4484 N   0  0  0  0  0  0  0  0  0  0  0  0
   10.9132   -3.2800   24.6946 H   0  0  0  0  0  0  0  0  0  0  0  0
    9.9633   -5.2174   26.0222 H   0  0  0  0  0  0  0  0  0  0  0  0
    8.2027   -6.6153   24.9377 H   0  0  0  0  0  0  0  0  0  0  0  0
    7.5906   -7.3824   22.3146 H   0  0  0  0  0  0  0  0  0  0  0  0
    7.1462   -5.9775   21.3158 H   0  0  0  0  0  0  0  0  0  0  0  0
    6.2705   -6.3126   22.8351 H   0  0  0  0  0  0  0  0  0  0  0  0
  1  2  1  0
  2  3  2  0
  3  4  1  0
  4  5  2  0
  5  6  1  0
  6  7  1  0
  7  8  1  0
  8  9  1  0
  9 10  2  0
 10 11  1  0
 11 12  2  0
 12 13  1  0
 13 14  2  0
 14 15  1  0
 15 16  2  0
 16 17  1  0
 14 18  1  0
 13 19  1  0
 12 20  1  0
 10 21  1  0
 21 22  2  0
 22 23  1  0
 23 24  2  0
 24 25  1  0
 25 26  2  0
 26 27  1  0
 27 28  1  0
 28 29  2  0
 29 30  1  0
 30 31  1  0
 30 32  2  0
 32 33  1  0
 29 34  1  0
 27 35  1  0
 26 36  1  0
  7 37  1  0
  7 38  1  0
  6 39  2  0
  5 40  1  0
  4 41  1  0
  3 42  1  0
  1 43  1  0
  1 44  1  0
  1 45  1  0
 39  2  1  0
 22  8  1  0
 32 23  1  0
 16 11  1  0
 28 24  1  0
M  END
>  <cnnaffinity>  (1) 
-6.55013

>  <filename>  (1) 
Cc1cccc(Cn2nc(-c3cccnc3)nc2-c2cc(F)cc3[nH]cnc23)n1

$$$$
