
     RDKit          3D

 48 52  0  0  0  0  0  0  0  0999 V2000
    6.7637    8.0729   22.2306 C   0  0  0  0  0  0  0  0  0  0  0  0
    7.2904    6.7436   22.7200 C   0  0  0  0  0  0  0  0  0  0  0  0
    8.5082    6.6409   23.4125 C   0  0  0  0  0  0  0  0  0  0  0  0
    8.9825    5.3990   23.8597 C   0  0  0  0  0  0  0  0  0  0  0  0
    8.2568    4.2213   23.6219 C   0  0  0  0  0  0  0  0  0  0  0  0
    8.7342    2.8558   24.1064 C   0  0  0  0  0  0  0  0  0  0  0  0
    8.8321    1.8475   23.0469 N   0  0  0  0  0  0  0  0  0  0  0  0
    7.7796    1.0552   22.7324 N   0  0  0  0  0  0  0  0  0  0  0  0
    8.2369    0.3186   21.7357 C   0  0  0  0  0  0  0  0  0  0  0  0
    7.3807   -0.6747   21.0003 C   0  0  0  0  0  0  0  0  0  0  0  0
    6.6064   -0.0421   19.8510 C   0  0  0  0  0  0  0  0  0  0  0  0
    5.4023    0.6324   20.0945 C   0  0  0  0  0  0  0  0  0  0  0  0
    4.7868    1.3117   19.0410 C   0  0  0  0  0  0  0  0  0  0  0  0
    5.3986    1.3034   17.7840 C   0  0  0  0  0  0  0  0  0  0  0  0
    6.5400    0.6481   17.5223 N   0  0  0  0  0  0  0  0  0  0  0  0
    7.1173   -0.0003   18.5422 C   0  0  0  0  0  0  0  0  0  0  0  0
    8.0464   -0.5205   18.3092 H   0  0  0  0  0  0  0  0  0  0  0  0
    4.9532    1.8466   16.9512 H   0  0  0  0  0  0  0  0  0  0  0  0
    3.8628    1.8609   19.1849 H   0  0  0  0  0  0  0  0  0  0  0  0
    4.9581    0.6365   21.0939 H   0  0  0  0  0  0  0  0  0  0  0  0
    6.6780   -1.1089   21.7166 H   0  0  0  0  0  0  0  0  0  0  0  0
    8.0147   -1.4924   20.6403 H   0  0  0  0  0  0  0  0  0  0  0  0
    9.5272    0.5686   21.4017 N   0  0  0  0  0  0  0  0  0  0  0  0
    9.8731    1.5433   22.2356 C   0  0  0  0  0  0  0  0  0  0  0  0
   11.2116    2.1786   22.3849 C   0  0  0  0  0  0  0  0  0  0  0  0
   11.4425    3.5630   22.3521 C   0  0  0  0  0  0  0  0  0  0  0  0
   12.7430    4.1010   22.4745 C   0  0  0  0  0  0  0  0  0  0  0  0
   13.8459    3.3774   22.6731 N   0  0  0  0  0  0  0  0  0  0  0  0
   13.6058    2.0581   22.7270 C   0  0  0  0  0  0  0  0  0  0  0  0
   12.3725    1.3916   22.5696 C   0  0  0  0  0  0  0  0  0  0  0  0
   12.7321    0.0087   22.5886 C   0  0  0  0  0  0  0  0  0  0  0  0
   14.0277   -0.1565   22.7388 N   0  0  0  0  0  0  0  0  0  0  0  0
   14.5417    1.0942   22.8619 N   0  0  0  0  0  0  0  0  0  0  0  0
   15.5155    1.3132   22.7246 H   0  0  0  0  0  0  0  0  0  0  0  0
   12.0943   -0.8512   22.4204 H   0  0  0  0  0  0  0  0  0  0  0  0
   12.8845    5.1785   22.4082 H   0  0  0  0  0  0  0  0  0  0  0  0
   10.6186    4.2468   22.2225 H   0  0  0  0  0  0  0  0  0  0  0  0
    9.7169    2.9456   24.5793 H   0  0  0  0  0  0  0  0  0  0  0  0
    8.0497    2.4577   24.8633 H   0  0  0  0  0  0  0  0  0  0  0  0
    7.0450    4.3221   22.9238 C   0  0  0  0  0  0  0  0  0  0  0  0
    6.5724    5.5610   22.4854 C   0  0  0  0  0  0  0  0  0  0  0  0
    5.6261    5.6080   21.9497 H   0  0  0  0  0  0  0  0  0  0  0  0
    6.4717    3.4212   22.7147 H   0  0  0  0  0  0  0  0  0  0  0  0
    9.9444    5.3548   24.3706 H   0  0  0  0  0  0  0  0  0  0  0  0
    9.0923    7.5368   23.6046 H   0  0  0  0  0  0  0  0  0  0  0  0
    7.0634    8.8973   22.8861 H   0  0  0  0  0  0  0  0  0  0  0  0
    7.1342    8.3004   21.2241 H   0  0  0  0  0  0  0  0  0  0  0  0
    5.6696    8.0744   22.1801 H   0  0  0  0  0  0  0  0  0  0  0  0
  1  2  1  0
  2  3  2  0
  3  4  1  0
  4  5  2  0
  5  6  1  0
  6  7  1  0
  7  8  1  0
  8  9  2  0
  9 10  1  0
 10 11  1  0
 11 12  2  0
 12 13  1  0
 13 14  2  0
 14 15  1  0
 15 16  2  0
 16 17  1  0
 14 18  1  0
 13 19  1  0
 12 20  1  0
 10 21  1  0
 10 22  1  0
  9 23  1  0
 23 24  2  0
 24 25  1  0
 25 26  2  0
 26 27  1  0
 27 28  2  0
 28 29  1  0
 29 30  2  0
 30 31  1  0
 31 32  2  0
 32 33  1  0
 33 34  1  0
 31 35  1  0
 27 36  1  0
 26 37  1  0
  6 38  1  0
  6 39  1  0
  5 40  1  0
 40 41  2  0
 41 42  1  0
 40 43  1  0
  4 44  1  0
  3 45  1  0
  1 46  1  0
  1 47  1  0
  1 48  1  0
 41  2  1  0
 24  7  1  0
 30 25  1  0
 16 11  1  0
 33 29  1  0
M  END
>  <cnnaffinity>  (1) 
-6.86329

>  <filename>  (1) 
Cc1ccc(Cn2nc(Cc3cccnc3)nc2-c2ccnc3[nH]ncc23)cc1

$$$$
