
     RDKit          3D

 48 52  0  0  0  0  0  0  0  0999 V2000
    9.7756    1.4891   25.4175 C   0  0  0  0  0  0  0  0  0  0  0  0
    8.9856    2.7333   25.0513 C   0  0  0  0  0  0  0  0  0  0  0  0
    8.7047    3.6783   26.0438 C   0  0  0  0  0  0  0  0  0  0  0  0
    7.9747    4.8345   25.7765 C   0  0  0  0  0  0  0  0  0  0  0  0
    7.4935    5.0681   24.4863 C   0  0  0  0  0  0  0  0  0  0  0  0
    7.7361    4.1539   23.4487 C   0  0  0  0  0  0  0  0  0  0  0  0
    7.2813    4.4348   22.0345 C   0  0  0  0  0  0  0  0  0  0  0  0
    6.5147    3.7220   21.7151 H   0  0  0  0  0  0  0  0  0  0  0  0
    6.8937    5.4507   21.9139 H   0  0  0  0  0  0  0  0  0  0  0  0
    8.1270    4.3204   21.3521 H   0  0  0  0  0  0  0  0  0  0  0  0
    8.4906    2.9939   23.7549 C   0  0  0  0  0  0  0  0  0  0  0  0
    8.6973    2.0216   22.7146 N   0  0  0  0  0  0  0  0  0  0  0  0
    7.6163    1.3363   22.2676 N   0  0  0  0  0  0  0  0  0  0  0  0
    8.1460    0.4029   21.5030 C   0  0  0  0  0  0  0  0  0  0  0  0
    7.2941   -0.6212   20.8079 C   0  0  0  0  0  0  0  0  0  0  0  0
    6.5207   -0.0430   19.6302 C   0  0  0  0  0  0  0  0  0  0  0  0
    5.3294    0.6612   19.8502 C   0  0  0  0  0  0  0  0  0  0  0  0
    4.7320    1.3303   18.7797 C   0  0  0  0  0  0  0  0  0  0  0  0
    5.3469    1.2677   17.5268 C   0  0  0  0  0  0  0  0  0  0  0  0
    6.4637    0.5636   17.2832 N   0  0  0  0  0  0  0  0  0  0  0  0
    7.0221   -0.0767   18.3169 C   0  0  0  0  0  0  0  0  0  0  0  0
    7.9292   -0.6427   18.0949 H   0  0  0  0  0  0  0  0  0  0  0  0
    4.9284    1.8031   16.6770 H   0  0  0  0  0  0  0  0  0  0  0  0
    3.8257    1.9127   18.9086 H   0  0  0  0  0  0  0  0  0  0  0  0
    4.9041    0.6959   20.8559 H   0  0  0  0  0  0  0  0  0  0  0  0
    6.5982   -1.0249   21.5541 H   0  0  0  0  0  0  0  0  0  0  0  0
    7.9556   -1.4354   20.4985 H   0  0  0  0  0  0  0  0  0  0  0  0
    9.4937    0.4464   21.4078 N   0  0  0  0  0  0  0  0  0  0  0  0
    9.8365    1.4568   22.1931 C   0  0  0  0  0  0  0  0  0  0  0  0
   11.1919    2.0045   22.4523 C   0  0  0  0  0  0  0  0  0  0  0  0
   11.4254    3.3964   22.6263 C   0  0  0  0  0  0  0  0  0  0  0  0
   12.7128    3.8981   22.8679 C   0  0  0  0  0  0  0  0  0  0  0  0
   13.8034    3.1326   23.0251 N   0  0  0  0  0  0  0  0  0  0  0  0
   13.5577    1.8375   22.8641 C   0  0  0  0  0  0  0  0  0  0  0  0
   12.3408    1.1765   22.5738 C   0  0  0  0  0  0  0  0  0  0  0  0
   12.5649   -0.1971   22.5122 N   0  0  0  0  0  0  0  0  0  0  0  0
   13.8438   -0.3287   22.7331 C   0  0  0  0  0  0  0  0  0  0  0  0
   14.4899    0.8504   22.9555 N   0  0  0  0  0  0  0  0  0  0  0  0
   15.4256    1.0528   23.2468 H   0  0  0  0  0  0  0  0  0  0  0  0
   14.3778   -1.2737   22.7343 H   0  0  0  0  0  0  0  0  0  0  0  0
   12.8704    4.9699   22.9525 H   0  0  0  0  0  0  0  0  0  0  0  0
   10.6129    4.1132   22.5524 H   0  0  0  0  0  0  0  0  0  0  0  0
    6.9203    5.9677   24.2769 H   0  0  0  0  0  0  0  0  0  0  0  0
    7.7763    5.5606   26.5615 H   0  0  0  0  0  0  0  0  0  0  0  0
    9.0443    3.4768   27.0521 H   0  0  0  0  0  0  0  0  0  0  0  0
    9.7084    1.2749   26.4852 H   0  0  0  0  0  0  0  0  0  0  0  0
   10.8352    1.6227   25.1789 H   0  0  0  0  0  0  0  0  0  0  0  0
    9.4265    0.5978   24.8866 H   0  0  0  0  0  0  0  0  0  0  0  0
  1  2  1  0
  2  3  2  0
  3  4  1  0
  4  5  2  0
  5  6  1  0
  6  7  1  0
  7  8  1  0
  7  9  1  0
  7 10  1  0
  6 11  2  0
 11 12  1  0
 12 13  1  0
 13 14  2  0
 14 15  1  0
 15 16  1  0
 16 17  2  0
 17 18  1  0
 18 19  2  0
 19 20  1  0
 20 21  2  0
 21 22  1  0
 19 23  1  0
 18 24  1  0
 17 25  1  0
 15 26  1  0
 15 27  1  0
 14 28  1  0
 28 29  2  0
 29 30  1  0
 30 31  2  0
 31 32  1  0
 32 33  2  0
 33 34  1  0
 34 35  2  0
 35 36  1  0
 36 37  2  0
 37 38  1  0
 38 39  1  0
 37 40  1  0
 32 41  1  0
 31 42  1  0
  5 43  1  0
  4 44  1  0
  3 45  1  0
  1 46  1  0
  1 47  1  0
  1 48  1  0
 11  2  1  0
 29 12  1  0
 35 30  1  0
 21 16  1  0
 38 34  1  0
M  END
>  <cnnaffinity>  (1) 
-6.63363

>  <filename>  (1) 
Cc1cccc(C)c1-n1nc(Cc2cccnc2)nc1-c1ccnc2[nH]cnc12

$$$$
