
     RDKit          3D

 45 47  0  0  0  0  0  0  0  0999 V2000
    4.9146    1.8010   16.9812 H   0  0  0  0  0  0  0  0  0  0  0  0
    5.3926    1.3000   17.8214 C   0  0  0  0  0  0  0  0  0  0  0  0
    6.5546    0.6840   17.5567 N   0  0  0  0  0  0  0  0  0  0  0  0
    7.1626    0.0669   18.5781 C   0  0  0  0  0  0  0  0  0  0  0  0
    8.1132   -0.4150   18.3438 H   0  0  0  0  0  0  0  0  0  0  0  0
    6.6655    0.0067   19.8903 C   0  0  0  0  0  0  0  0  0  0  0  0
    7.4181   -0.7260   20.9843 C   0  0  2  0  0  0  0  0  0  0  0  0
    8.3479   -1.1357   20.5543 H   0  0  0  0  0  0  0  0  0  0  0  0
    6.6025   -1.9243   21.5144 C   0  0  0  0  0  0  0  0  0  0  0  0
    6.3642   -2.6083   20.6929 H   0  0  0  0  0  0  0  0  0  0  0  0
    5.6383   -1.5521   21.8785 H   0  0  0  0  0  0  0  0  0  0  0  0
    7.3434   -2.6494   22.6449 C   0  0  0  0  0  0  0  0  0  0  0  0
    6.7345   -3.4548   23.0735 H   0  0  0  0  0  0  0  0  0  0  0  0
    8.2589   -3.1186   22.2558 H   0  0  0  0  0  0  0  0  0  0  0  0
    7.7086   -1.6696   23.7690 C   0  0  1  0  0  0  0  0  0  0  0  0
    6.7586   -1.2573   24.1515 H   0  0  0  0  0  0  0  0  0  0  0  0
    8.3486   -2.4159   24.8458 N   0  0  0  0  0  0  0  0  0  0  0  0
    9.3641   -2.3855   24.8774 H   0  0  0  0  0  0  0  0  0  0  0  0
    8.1613   -1.8427   26.3884 S   0  0  0  0  0  0  0  0  0  0  0  0
    8.4228   -0.4121   26.3877 O   0  0  0  0  0  0  0  0  0  0  0  0
    9.0277   -2.7403   27.1163 O   0  0  0  0  0  0  0  0  0  0  0  0
    6.4499   -2.1159   26.7371 C   0  0  0  0  0  0  0  0  0  0  0  0
    5.8030   -3.2789   26.2940 C   0  0  0  0  0  0  0  0  0  0  0  0
    6.3197   -4.0533   25.7242 H   0  0  0  0  0  0  0  0  0  0  0  0
    4.4556   -3.4672   26.6053 C   0  0  0  0  0  0  0  0  0  0  0  0
    3.9489   -4.3641   26.2665 H   0  0  0  0  0  0  0  0  0  0  0  0
    3.7289   -2.5311   27.3574 C   0  0  0  0  0  0  0  0  0  0  0  0
    2.2738   -2.7587   27.6993 C   0  0  0  0  0  0  0  0  0  0  0  0
    2.1636   -3.3034   28.6437 H   0  0  0  0  0  0  0  0  0  0  0  0
    1.7626   -3.3443   26.9292 H   0  0  0  0  0  0  0  0  0  0  0  0
    1.7289   -1.8159   27.8079 H   0  0  0  0  0  0  0  0  0  0  0  0
    4.4090   -1.3862   27.8008 C   0  0  0  0  0  0  0  0  0  0  0  0
    3.8684   -0.6559   28.3956 H   0  0  0  0  0  0  0  0  0  0  0  0
    5.7549   -1.1669   27.5044 C   0  0  0  0  0  0  0  0  0  0  0  0
    6.2448   -0.2674   27.8806 H   0  0  0  0  0  0  0  0  0  0  0  0
    8.5735   -0.5112   23.2431 C   0  0  0  0  0  0  0  0  0  0  0  0
    8.8338    0.1598   24.0695 H   0  0  0  0  0  0  0  0  0  0  0  0
    9.5176   -0.9229   22.8468 H   0  0  0  0  0  0  0  0  0  0  0  0
    7.8319    0.2341   22.1242 C   0  0  0  0  0  0  0  0  0  0  0  0
    8.4490    1.0420   21.7140 H   0  0  0  0  0  0  0  0  0  0  0  0
    6.9344    0.7187   22.5413 H   0  0  0  0  0  0  0  0  0  0  0  0
    5.4451    0.6536   20.1385 C   0  0  0  0  0  0  0  0  0  0  0  0
    5.0050    0.6452   21.1391 H   0  0  0  0  0  0  0  0  0  0  0  0
    4.8020    1.3134   19.0900 C   0  0  0  0  0  0  0  0  0  0  0  0
    3.8688    1.8455   19.2444 H   0  0  0  0  0  0  0  0  0  0  0  0
  1  2  1  0
  2  3  2  0
  3  4  1  0
  4  5  1  0
  4  6  2  0
  6  7  1  0
  7  8  1  6
  7  9  1  0
  9 10  1  0
  9 11  1  0
  9 12  1  0
 12 13  1  0
 12 14  1  0
 12 15  1  0
 15 16  1  1
 15 17  1  0
 17 18  1  0
 17 19  1  0
 19 20  2  0
 19 21  2  0
 19 22  1  0
 22 23  2  0
 23 24  1  0
 23 25  1  0
 25 26  1  0
 25 27  2  0
 27 28  1  0
 28 29  1  0
 28 30  1  0
 28 31  1  0
 27 32  1  0
 32 33  1  0
 32 34  2  0
 34 35  1  0
 15 36  1  0
 36 37  1  0
 36 38  1  0
 36 39  1  0
 39 40  1  0
 39 41  1  0
  6 42  1  0
 42 43  1  0
 42 44  2  0
 44 45  1  0
 44  2  1  0
 39  7  1  0
 34 22  1  0
M  END
>  <cnnaffinity>  (1) 
-5.44091

>  <filename>  (1) 
Cc1ccc(S(=O)(=O)N[C@H]2CC[C@H](c3cccnc3)CC2)cc1

$$$$
