
     RDKit          3D

 35 37  0  0  0  0  0  0  0  0999 V2000
    4.9322    1.7844   16.9917 H   0  0  0  0  0  0  0  0  0  0  0  0
    5.3986    1.2860   17.8388 C   0  0  0  0  0  0  0  0  0  0  0  0
    6.5660    0.6636   17.5932 N   0  0  0  0  0  0  0  0  0  0  0  0
    7.1745    0.0524   18.6125 C   0  0  0  0  0  0  0  0  0  0  0  0
    8.1162   -0.4379   18.3768 H   0  0  0  0  0  0  0  0  0  0  0  0
    6.6573    0.0369   19.9297 C   0  0  0  0  0  0  0  0  0  0  0  0
    7.3678   -0.6249   20.9917 N   0  0  0  0  0  0  0  0  0  0  0  0
    8.1163   -1.7389   20.7386 N   0  0  0  0  0  0  0  0  0  0  0  0
    8.6043   -2.1342   21.8469 N   0  0  0  0  0  0  0  0  0  0  0  0
    8.2253   -1.3318   22.8787 N   0  0  0  0  0  0  0  0  0  0  0  0
    7.4712   -0.4222   22.3303 C   0  0  0  0  0  0  0  0  0  0  0  0
    6.8018    0.6539   22.8074 O   0  0  0  0  0  0  0  0  0  0  0  0
    6.8599    0.9811   24.1628 N   0  0  0  0  0  0  0  0  0  0  0  0
    6.2685   -0.0972   25.0117 C   0  0  0  0  0  0  0  0  0  0  0  0
    5.2649   -0.3170   24.6347 H   0  0  0  0  0  0  0  0  0  0  0  0
    6.8511   -1.0306   24.9235 H   0  0  0  0  0  0  0  0  0  0  0  0
    6.2014    0.3700   26.4756 C   0  0  0  0  0  0  0  0  0  0  0  0
    5.5043    1.2130   26.5334 H   0  0  0  0  0  0  0  0  0  0  0  0
    5.7765   -0.4357   27.0826 H   0  0  0  0  0  0  0  0  0  0  0  0
    7.5732    0.7910   27.0485 C   0  0  0  0  0  0  0  0  0  0  0  0
    7.4016    1.3067   28.0060 H   0  0  0  0  0  0  0  0  0  0  0  0
    8.4730   -0.4189   27.3300 C   0  0  0  0  0  0  0  0  0  0  0  0
    8.7033   -0.9885   26.4226 H   0  0  0  0  0  0  0  0  0  0  0  0
    7.9728   -1.1190   27.9979 H   0  0  0  0  0  0  0  0  0  0  0  0
    9.4261   -0.1210   27.7817 H   0  0  0  0  0  0  0  0  0  0  0  0
    8.2337    1.7844   26.0691 C   0  0  0  0  0  0  0  0  0  0  0  0
    9.2605    1.9828   26.3895 H   0  0  0  0  0  0  0  0  0  0  0  0
    7.6970    2.7386   26.0978 H   0  0  0  0  0  0  0  0  0  0  0  0
    8.2559    1.2828   24.6137 C   0  0  0  0  0  0  0  0  0  0  0  0
    8.8984    0.3904   24.5175 H   0  0  0  0  0  0  0  0  0  0  0  0
    8.6787    2.0442   23.9473 H   0  0  0  0  0  0  0  0  0  0  0  0
    5.4308    0.6641   20.1779 C   0  0  0  0  0  0  0  0  0  0  0  0
    5.0086    0.6631   21.1838 H   0  0  0  0  0  0  0  0  0  0  0  0
    4.7992    1.3002   19.0989 C   0  0  0  0  0  0  0  0  0  0  0  0
    3.8720    1.8372   19.2446 H   0  0  0  0  0  0  0  0  0  0  0  0
  1  2  1  0
  2  3  2  0
  3  4  1  0
  4  5  1  0
  4  6  2  0
  6  7  1  0
  7  8  1  0
  8  9  2  0
  9 10  1  0
 10 11  2  0
 11 12  1  0
 12 13  1  0
 13 14  1  0
 14 15  1  0
 14 16  1  0
 14 17  1  0
 17 18  1  0
 17 19  1  0
 17 20  1  0
 20 21  1  0
 20 22  1  0
 22 23  1  0
 22 24  1  0
 22 25  1  0
 20 26  1  0
 26 27  1  0
 26 28  1  0
 26 29  1  0
 29 30  1  0
 29 31  1  0
  6 32  1  0
 32 33  1  0
 32 34  2  0
 34 35  1  0
 34  2  1  0
 11  7  1  0
 29 13  1  0
M  END
>  <cnnaffinity>  (1) 
-4.73936

>  <filename>  (1) 
CC1CCN(Oc2nnnn2-c2cccnc2)CC1

$$$$
