
     RDKit          3D

 36 38  0  0  0  0  0  0  0  0999 V2000
    5.6245   -2.4677   21.0946 C   0  0  0  0  0  0  0  0  0  0  0  0
    7.0539   -2.0027   21.0835 C   0  0  0  0  0  0  0  0  0  0  0  0
    8.0679   -2.7470   21.6776 C   0  0  0  0  0  0  0  0  0  0  0  0
    9.3247   -2.3472   21.7952 N   0  0  0  0  0  0  0  0  0  0  0  0
    9.5596   -1.1210   21.3423 C   0  0  0  0  0  0  0  0  0  0  0  0
   10.7627   -0.5497   21.5870 N   0  0  0  0  0  0  0  0  0  0  0  0
   11.4432   -0.8722   22.8457 C   0  0  0  0  0  0  0  0  0  0  0  0
   10.6876   -0.4862   24.1260 C   0  0  0  0  0  0  0  0  0  0  0  0
    9.8848   -1.4265   24.8060 C   0  0  0  0  0  0  0  0  0  0  0  0
    9.0657   -1.0274   25.8635 C   0  0  0  0  0  0  0  0  0  0  0  0
    9.0373    0.2285   26.3259 N   0  0  0  0  0  0  0  0  0  0  0  0
    9.8358    1.1241   25.7402 C   0  0  0  0  0  0  0  0  0  0  0  0
   10.6696    0.8180   24.6534 C   0  0  0  0  0  0  0  0  0  0  0  0
   11.6775    2.0806   24.0084 Cl  0  0  0  0  0  0  0  0  0  0  0  0
    9.8444    2.1349   26.1458 H   0  0  0  0  0  0  0  0  0  0  0  0
    8.3931   -1.7342   26.3502 H   0  0  0  0  0  0  0  0  0  0  0  0
    9.8904   -2.4633   24.4969 H   0  0  0  0  0  0  0  0  0  0  0  0
   11.6051   -1.9570   22.8422 H   0  0  0  0  0  0  0  0  0  0  0  0
   12.4251   -0.3940   22.8190 H   0  0  0  0  0  0  0  0  0  0  0  0
   10.5773    0.4205   21.3761 H   0  0  0  0  0  0  0  0  0  0  0  0
    8.7515   -0.3538   20.6303 N   0  0  0  0  0  0  0  0  0  0  0  0
    7.5112   -0.8057   20.4852 C   0  0  0  0  0  0  0  0  0  0  0  0
    6.6803   -0.0037   19.5771 C   0  0  0  0  0  0  0  0  0  0  0  0
    5.4525    0.5896   19.8944 C   0  0  0  0  0  0  0  0  0  0  0  0
    4.8057    1.3271   18.9031 C   0  0  0  0  0  0  0  0  0  0  0  0
    5.3990    1.4291   17.6406 C   0  0  0  0  0  0  0  0  0  0  0  0
    6.5767    0.8674   17.3275 N   0  0  0  0  0  0  0  0  0  0  0  0
    7.2081    0.2024   18.2953 C   0  0  0  0  0  0  0  0  0  0  0  0
    8.1890   -0.1920   18.0317 H   0  0  0  0  0  0  0  0  0  0  0  0
    4.9160    1.9973   16.8501 H   0  0  0  0  0  0  0  0  0  0  0  0
    3.8651    1.8278   19.0979 H   0  0  0  0  0  0  0  0  0  0  0  0
    5.0173    0.4953   20.8932 H   0  0  0  0  0  0  0  0  0  0  0  0
    7.8252   -3.7326   22.0884 H   0  0  0  0  0  0  0  0  0  0  0  0
    4.9707   -1.6682   21.4422 H   0  0  0  0  0  0  0  0  0  0  0  0
    5.2912   -2.7244   20.0871 H   0  0  0  0  0  0  0  0  0  0  0  0
    5.4670   -3.3338   21.7442 H   0  0  0  0  0  0  0  0  0  0  0  0
  1  2  1  0
  2  3  2  0
  3  4  1  0
  4  5  2  0
  5  6  1  0
  6  7  1  0
  7  8  1  0
  8  9  2  0
  9 10  1  0
 10 11  2  0
 11 12  1  0
 12 13  2  0
 13 14  1  0
 12 15  1  0
 10 16  1  0
  9 17  1  0
  7 18  1  0
  7 19  1  0
  6 20  1  0
  5 21  1  0
 21 22  2  0
 22 23  1  0
 23 24  2  0
 24 25  1  0
 25 26  2  0
 26 27  1  0
 27 28  2  0
 28 29  1  0
 26 30  1  0
 25 31  1  0
 24 32  1  0
  3 33  1  0
  1 34  1  0
  1 35  1  0
  1 36  1  0
 22  2  1  0
 28 23  1  0
 13  8  1  0
M  END
>  <cnnaffinity>  (1) 
-5.15445

>  <filename>  (1) 
Cc1cnc(NCc2ccncc2Cl)nc1-c1cccnc1

$$$$
