
     RDKit          3D

 47 51  0  0  0  0  0  0  0  0999 V2000
    8.1855    4.9368   23.0359 C   0  0  0  0  0  0  0  0  0  0  0  0
    7.9325    3.8717   24.1060 C   0  0  0  0  0  0  0  0  0  0  0  0
    7.8886    4.4145   25.5374 C   0  0  0  0  0  0  0  0  0  0  0  0
    7.9051    3.2111   26.4812 C   0  0  0  0  0  0  0  0  0  0  0  0
    9.0692    2.0168   25.7530 S   0  0  0  0  0  0  0  0  0  0  0  0
    9.0480    2.8121   24.1049 C   0  0  0  0  0  0  0  0  0  0  0  0
    8.9399    1.8225   22.9856 C   0  0  0  0  0  0  0  0  0  0  0  0
    7.8765    1.1102   22.6583 N   0  0  0  0  0  0  0  0  0  0  0  0
    8.3377    0.2830   21.6883 C   0  0  0  0  0  0  0  0  0  0  0  0
    7.4395   -0.6797   20.9610 C   0  0  0  0  0  0  0  0  0  0  0  0
    6.6623   -0.0301   19.8174 C   0  0  0  0  0  0  0  0  0  0  0  0
    5.4567    0.6339   20.0772 C   0  0  0  0  0  0  0  0  0  0  0  0
    4.8102    1.3117   19.0406 C   0  0  0  0  0  0  0  0  0  0  0  0
    5.3987    1.3006   17.7734 C   0  0  0  0  0  0  0  0  0  0  0  0
    6.5398    0.6523   17.4924 N   0  0  0  0  0  0  0  0  0  0  0  0
    7.1453    0.0063   18.4974 C   0  0  0  0  0  0  0  0  0  0  0  0
    8.0709   -0.5129   18.2409 H   0  0  0  0  0  0  0  0  0  0  0  0
    4.9367    1.8309   16.9432 H   0  0  0  0  0  0  0  0  0  0  0  0
    3.8830    1.8514   19.2030 H   0  0  0  0  0  0  0  0  0  0  0  0
    5.0490    0.6198   21.0888 H   0  0  0  0  0  0  0  0  0  0  0  0
    6.7378   -1.0934   21.6971 H   0  0  0  0  0  0  0  0  0  0  0  0
    8.0675   -1.4979   20.5956 H   0  0  0  0  0  0  0  0  0  0  0  0
    9.6192    0.4317   21.3945 N   0  0  0  0  0  0  0  0  0  0  0  0
    9.9919    1.4607   22.1994 N   0  0  0  0  0  0  0  0  0  0  0  0
   11.2924    2.0196   22.2154 C   0  0  0  0  0  0  0  0  0  0  0  0
   11.5174    3.3978   22.2229 C   0  0  0  0  0  0  0  0  0  0  0  0
   12.8084    3.9235   22.4252 C   0  0  0  0  0  0  0  0  0  0  0  0
   13.8998    3.0869   22.6324 C   0  0  0  0  0  0  0  0  0  0  0  0
   13.6904    1.6891   22.6355 C   0  0  0  0  0  0  0  0  0  0  0  0
   12.4059    1.1857   22.3766 C   0  0  0  0  0  0  0  0  0  0  0  0
   12.5502   -0.1792   22.3508 N   0  0  0  0  0  0  0  0  0  0  0  0
   13.8681   -0.4355   22.5780 C   0  0  0  0  0  0  0  0  0  0  0  0
   14.5855    0.6349   22.7689 N   0  0  0  0  0  0  0  0  0  0  0  0
   14.2436   -1.4474   22.6171 H   0  0  0  0  0  0  0  0  0  0  0  0
   11.8401   -0.7996   22.0009 H   0  0  0  0  0  0  0  0  0  0  0  0
   14.8992    3.4944   22.6827 H   0  0  0  0  0  0  0  0  0  0  0  0
   12.9572    4.9972   22.4118 H   0  0  0  0  0  0  0  0  0  0  0  0
   10.6907    4.0857   22.1006 H   0  0  0  0  0  0  0  0  0  0  0  0
   10.0080    3.3300   24.0534 H   0  0  0  0  0  0  0  0  0  0  0  0
    8.2221    3.4555   27.4978 H   0  0  0  0  0  0  0  0  0  0  0  0
    6.9173    2.7458   26.5438 H   0  0  0  0  0  0  0  0  0  0  0  0
    8.7714    5.0432   25.7182 H   0  0  0  0  0  0  0  0  0  0  0  0
    7.0046    5.0411   25.7104 H   0  0  0  0  0  0  0  0  0  0  0  0
    6.9799    3.3653   23.8893 H   0  0  0  0  0  0  0  0  0  0  0  0
    7.3881    5.6871   23.0254 H   0  0  0  0  0  0  0  0  0  0  0  0
    9.1310    5.4670   23.2177 H   0  0  0  0  0  0  0  0  0  0  0  0
    8.2388    4.4968   22.0324 H   0  0  0  0  0  0  0  0  0  0  0  0
  1  2  1  0
  2  3  1  0
  3  4  1  0
  4  5  1  0
  5  6  1  0
  6  7  1  0
  7  8  2  0
  8  9  1  0
  9 10  1  0
 10 11  1  0
 11 12  2  0
 12 13  1  0
 13 14  2  0
 14 15  1  0
 15 16  2  0
 16 17  1  0
 14 18  1  0
 13 19  1  0
 12 20  1  0
 10 21  1  0
 10 22  1  0
  9 23  2  0
 23 24  1  0
 24 25  1  0
 25 26  2  0
 26 27  1  0
 27 28  2  0
 28 29  1  0
 29 30  2  0
 30 31  1  0
 31 32  1  0
 32 33  2  0
 32 34  1  0
 31 35  1  0
 28 36  1  0
 27 37  1  0
 26 38  1  0
  6 39  1  0
  4 40  1  0
  4 41  1  0
  3 42  1  0
  3 43  1  0
  2 44  1  0
  1 45  1  0
  1 46  1  0
  1 47  1  0
  6  2  1  0
 24  7  1  0
 30 25  1  0
 16 11  1  0
 33 29  1  0
M  END
>  <cnnaffinity>  (1) 
-6.71633

>  <filename>  (1) 
CC1CCSC1c1nc(Cc2cccnc2)nn1-c1cccc2nc[nH]c12

$$$$
