
     RDKit          3D

 45 49  0  0  0  0  0  0  0  0999 V2000
   14.6001    4.1286   22.6004 C   0  0  0  0  0  0  0  0  0  0  0  0
   13.2839    3.4198   22.5740 C   0  0  0  0  0  0  0  0  0  0  0  0
   12.1015    4.1457   22.4195 C   0  0  0  0  0  0  0  0  0  0  0  0
   10.8767    3.4959   22.3660 C   0  0  0  0  0  0  0  0  0  0  0  0
   10.8206    2.0998   22.4936 C   0  0  0  0  0  0  0  0  0  0  0  0
    9.5625    1.4350   22.4506 N   0  0  0  0  0  0  0  0  0  0  0  0
    9.3204    0.3655   21.6411 N   0  0  0  0  0  0  0  0  0  0  0  0
    8.0122    0.2358   21.7170 C   0  0  0  0  0  0  0  0  0  0  0  0
    7.2438   -0.7628   20.8900 C   0  0  0  0  0  0  0  0  0  0  0  0
    6.4937   -0.1285   19.7149 C   0  0  0  0  0  0  0  0  0  0  0  0
    5.2763    0.5349   19.9276 C   0  0  0  0  0  0  0  0  0  0  0  0
    4.7196    1.2802   18.8857 C   0  0  0  0  0  0  0  0  0  0  0  0
    5.3753    1.3061   17.6535 C   0  0  0  0  0  0  0  0  0  0  0  0
    6.4992    0.6181   17.4008 N   0  0  0  0  0  0  0  0  0  0  0  0
    7.0283   -0.0815   18.4127 C   0  0  0  0  0  0  0  0  0  0  0  0
    7.9445   -0.6267   18.1820 H   0  0  0  0  0  0  0  0  0  0  0  0
    4.9788    1.9000   16.8321 H   0  0  0  0  0  0  0  0  0  0  0  0
    3.8120    1.8564   19.0197 H   0  0  0  0  0  0  0  0  0  0  0  0
    4.7870    0.4781   20.9018 H   0  0  0  0  0  0  0  0  0  0  0  0
    6.5425   -1.2471   21.5763 H   0  0  0  0  0  0  0  0  0  0  0  0
    7.9398   -1.5349   20.5470 H   0  0  0  0  0  0  0  0  0  0  0  0
    7.3922    1.1309   22.5349 N   0  0  0  0  0  0  0  0  0  0  0  0
    8.3874    1.8599   23.0020 C   0  0  0  0  0  0  0  0  0  0  0  0
    8.2922    2.9212   23.9925 C   0  0  0  0  0  0  0  0  0  0  0  0
    9.2577    3.1315   24.9760 C   0  0  0  0  0  0  0  0  0  0  0  0
    9.2072    4.1141   25.8994 N   0  0  0  0  0  0  0  0  0  0  0  0
    8.1742    4.9664   25.8861 C   0  0  0  0  0  0  0  0  0  0  0  0
    7.1241    4.8663   24.9469 C   0  0  0  0  0  0  0  0  0  0  0  0
    7.2133    3.8157   24.0222 C   0  0  0  0  0  0  0  0  0  0  0  0
    6.1266    3.9424   23.2245 N   0  0  0  0  0  0  0  0  0  0  0  0
    5.4214    5.0296   23.6625 C   0  0  0  0  0  0  0  0  0  0  0  0
    5.9669    5.6154   24.6926 N   0  0  0  0  0  0  0  0  0  0  0  0
    4.5087    5.3558   23.1771 H   0  0  0  0  0  0  0  0  0  0  0  0
    5.9163    3.3145   22.4727 H   0  0  0  0  0  0  0  0  0  0  0  0
    8.1838    5.7516   26.6385 H   0  0  0  0  0  0  0  0  0  0  0  0
   10.1505    2.5097   24.9908 H   0  0  0  0  0  0  0  0  0  0  0  0
   11.9880    1.3616   22.6907 C   0  0  0  0  0  0  0  0  0  0  0  0
   13.2149    2.0245   22.7253 C   0  0  0  0  0  0  0  0  0  0  0  0
   14.1375    1.4551   22.8443 H   0  0  0  0  0  0  0  0  0  0  0  0
   11.8949    0.2906   22.8458 H   0  0  0  0  0  0  0  0  0  0  0  0
    9.9642    4.0734   22.2572 H   0  0  0  0  0  0  0  0  0  0  0  0
   12.1465    5.2310   22.3688 H   0  0  0  0  0  0  0  0  0  0  0  0
   15.3808    3.3987   22.3921 H   0  0  0  0  0  0  0  0  0  0  0  0
   14.6664    4.9390   21.8650 H   0  0  0  0  0  0  0  0  0  0  0  0
   14.7905    4.5535   23.5907 H   0  0  0  0  0  0  0  0  0  0  0  0
  1  2  1  0
  2  3  2  0
  3  4  1  0
  4  5  2  0
  5  6  1  0
  6  7  1  0
  7  8  2  0
  8  9  1  0
  9 10  1  0
 10 11  2  0
 11 12  1  0
 12 13  2  0
 13 14  1  0
 14 15  2  0
 15 16  1  0
 13 17  1  0
 12 18  1  0
 11 19  1  0
  9 20  1  0
  9 21  1  0
  8 22  1  0
 22 23  2  0
 23 24  1  0
 24 25  2  0
 25 26  1  0
 26 27  2  0
 27 28  1  0
 28 29  2  0
 29 30  1  0
 30 31  1  0
 31 32  2  0
 31 33  1  0
 30 34  1  0
 27 35  1  0
 25 36  1  0
  5 37  1  0
 37 38  2  0
 38 39  1  0
 37 40  1  0
  4 41  1  0
  3 42  1  0
  1 43  1  0
  1 44  1  0
  1 45  1  0
 38  2  1  0
 23  6  1  0
 29 24  1  0
 15 10  1  0
 32 28  1  0
M  END
>  <cnnaffinity>  (1) 
-6.30126

>  <filename>  (1) 
Cc1ccc(-n2nc(Cc3cccnc3)nc2-c2cncc3nc[nH]c23)cc1

$$$$
