
     RDKit          3D

 31 33  0  0  0  0  0  0  0  0999 V2000
    4.9618    1.9408   16.7105 H   0  0  0  0  0  0  0  0  0  0  0  0
    5.4563    1.4446   17.5399 C   0  0  0  0  0  0  0  0  0  0  0  0
    6.6037    0.8167   17.2349 N   0  0  0  0  0  0  0  0  0  0  0  0
    7.2410    0.1805   18.2266 C   0  0  0  0  0  0  0  0  0  0  0  0
    8.1573   -0.3354   17.9340 H   0  0  0  0  0  0  0  0  0  0  0  0
    6.7611    0.1274   19.5508 C   0  0  0  0  0  0  0  0  0  0  0  0
    7.3712   -0.6866   20.6040 C   0  0  0  0  0  0  0  0  0  0  0  0
    6.7668   -1.4000   21.5747 C   0  0  0  0  0  0  0  0  0  0  0  0
    5.7150   -1.5868   21.7642 H   0  0  0  0  0  0  0  0  0  0  0  0
    7.7603   -2.0177   22.3363 N   0  0  0  0  0  0  0  0  0  0  0  0
    7.5031   -2.7547   23.5169 C   0  0  0  0  0  0  0  0  0  0  0  0
    6.3705   -3.4574   23.4850 N   0  0  0  0  0  0  0  0  0  0  0  0
    6.0384   -4.1353   24.5884 C   0  0  0  0  0  0  0  0  0  0  0  0
    5.1015   -4.6879   24.5301 H   0  0  0  0  0  0  0  0  0  0  0  0
    6.7827   -4.1112   25.7616 C   0  0  0  0  0  0  0  0  0  0  0  0
    6.4478   -4.6711   26.6268 H   0  0  0  0  0  0  0  0  0  0  0  0
    7.9652   -3.3596   25.7929 C   0  0  0  0  0  0  0  0  0  0  0  0
    8.8535   -3.2997   26.9987 C   0  0  0  0  0  0  0  0  0  0  0  0
    9.2284   -2.2783   27.1303 H   0  0  0  0  0  0  0  0  0  0  0  0
    9.7273   -3.9474   26.8509 H   0  0  0  0  0  0  0  0  0  0  0  0
    8.3187   -3.6081   27.9035 H   0  0  0  0  0  0  0  0  0  0  0  0
    8.3263   -2.6680   24.6349 C   0  0  0  0  0  0  0  0  0  0  0  0
    9.2227   -2.0635   24.5949 H   0  0  0  0  0  0  0  0  0  0  0  0
    8.9987   -1.7127   21.8170 C   0  0  0  0  0  0  0  0  0  0  0  0
   10.5349   -2.1557   22.2486 S   0  0  0  0  0  0  0  0  0  0  0  0
    8.7276   -0.9107   20.7592 N   0  0  0  0  0  0  0  0  0  0  0  0
    9.5115   -0.5256   20.2593 H   0  0  0  0  0  0  0  0  0  0  0  0
    5.5679    0.8087   19.8493 C   0  0  0  0  0  0  0  0  0  0  0  0
    5.1948    0.8199   20.8774 H   0  0  0  0  0  0  0  0  0  0  0  0
    4.8983    1.4704   18.8240 C   0  0  0  0  0  0  0  0  0  0  0  0
    3.9639    1.9921   19.0029 H   0  0  0  0  0  0  0  0  0  0  0  0
  1  2  1  0
  2  3  2  0
  3  4  1  0
  4  5  1  0
  4  6  2  0
  6  7  1  0
  7  8  2  0
  8  9  1  0
  8 10  1  0
 10 11  1  0
 11 12  2  0
 12 13  1  0
 13 14  1  0
 13 15  2  0
 15 16  1  0
 15 17  1  0
 17 18  1  0
 18 19  1  0
 18 20  1  0
 18 21  1  0
 17 22  2  0
 22 23  1  0
 10 24  1  0
 24 25  2  0
 24 26  1  0
 26 27  1  0
  6 28  1  0
 28 29  1  0
 28 30  2  0
 30 31  1  0
 30  2  1  0
 26  7  1  0
 22 11  1  0
M  END
>  <cnnaffinity>  (1) 
-5.27524

>  <filename>  (1) 
Cc1ccnc(-n2cc(-c3cccnc3)[nH]c2=S)c1

$$$$
