
     RDKit          3D

 29 30  0  0  0  0  0  0  0  0999 V2000
    4.9825    1.7513   17.0233 H   0  0  0  0  0  0  0  0  0  0  0  0
    5.4404    1.2651   17.8798 C   0  0  0  0  0  0  0  0  0  0  0  0
    6.6024    0.6398   17.6502 N   0  0  0  0  0  0  0  0  0  0  0  0
    7.2061    0.0439   18.6759 C   0  0  0  0  0  0  0  0  0  0  0  0
    8.1378   -0.4710   18.4370 H   0  0  0  0  0  0  0  0  0  0  0  0
    6.6601    0.0712   19.9565 C   0  0  0  0  0  0  0  0  0  0  0  0
    7.5238   -0.7471   21.2232 S   0  0  0  0  0  0  0  0  0  0  0  0
    6.5634   -1.0917   22.2507 O   0  0  0  0  0  0  0  0  0  0  0  0
    8.3643   -1.7495   20.5808 O   0  0  0  0  0  0  0  0  0  0  0  0
    8.6875    0.3714   21.8954 C   0  0  0  0  0  0  0  0  0  0  0  0
    9.0784   -0.1990   22.7348 H   0  0  0  0  0  0  0  0  0  0  0  0
    9.4313    0.5113   21.1146 H   0  0  0  0  0  0  0  0  0  0  0  0
    7.9820    1.5849   22.3166 C   0  0  0  0  0  0  0  0  0  0  0  0
    7.3915    1.5363   23.5069 N   0  0  0  0  0  0  0  0  0  0  0  0
    6.7868    2.6535   23.9474 C   0  0  0  0  0  0  0  0  0  0  0  0
    6.1503    2.6451   25.3146 C   0  0  0  0  0  0  0  0  0  0  0  0
    6.4153    3.5555   25.8695 H   0  0  0  0  0  0  0  0  0  0  0  0
    5.0582    2.6483   25.2049 H   0  0  0  0  0  0  0  0  0  0  0  0
    6.4491    1.7678   25.8950 H   0  0  0  0  0  0  0  0  0  0  0  0
    6.6953    3.8131   23.1603 C   0  0  0  0  0  0  0  0  0  0  0  0
    6.1534    4.6675   23.5495 H   0  0  0  0  0  0  0  0  0  0  0  0
    7.2850    3.8355   21.8978 C   0  0  0  0  0  0  0  0  0  0  0  0
    7.2146    4.7306   21.2785 H   0  0  0  0  0  0  0  0  0  0  0  0
    7.9567    2.6905   21.4722 C   0  0  0  0  0  0  0  0  0  0  0  0
    8.4684    2.6113   20.5207 H   0  0  0  0  0  0  0  0  0  0  0  0
    5.4241    0.6758   20.2060 C   0  0  0  0  0  0  0  0  0  0  0  0
    4.9540    0.6454   21.1941 H   0  0  0  0  0  0  0  0  0  0  0  0
    4.8169    1.3061   19.1309 C   0  0  0  0  0  0  0  0  0  0  0  0
    3.8783    1.8315   19.2494 H   0  0  0  0  0  0  0  0  0  0  0  0
  1  2  1  0
  2  3  2  0
  3  4  1  0
  4  5  1  0
  4  6  2  0
  6  7  1  0
  7  8  2  0
  7  9  2  0
  7 10  1  0
 10 11  1  0
 10 12  1  0
 10 13  1  0
 13 14  2  0
 14 15  1  0
 15 16  1  0
 16 17  1  0
 16 18  1  0
 16 19  1  0
 15 20  2  0
 20 21  1  0
 20 22  1  0
 22 23  1  0
 22 24  2  0
 24 25  1  0
  6 26  1  0
 26 27  1  0
 26 28  2  0
 28 29  1  0
 28  2  1  0
 24 13  1  0
M  END
>  <cnnaffinity>  (1) 
-4.08095

>  <filename>  (1) 
Cc1cccc(CS(=O)(=O)c2cccnc2)n1

$$$$
