
     RDKit          3D

 34 36  0  0  0  0  0  0  0  0999 V2000
    4.9296    1.7918   16.9923 H   0  0  0  0  0  0  0  0  0  0  0  0
    5.4029    1.2878   17.8333 C   0  0  0  0  0  0  0  0  0  0  0  0
    6.5674    0.6674   17.5755 N   0  0  0  0  0  0  0  0  0  0  0  0
    7.1748    0.0403   18.5919 C   0  0  0  0  0  0  0  0  0  0  0  0
    8.1280   -0.4324   18.3519 H   0  0  0  0  0  0  0  0  0  0  0  0
    6.6658   -0.0118   19.9123 C   0  0  0  0  0  0  0  0  0  0  0  0
    7.3295   -0.6853   20.9786 N   0  0  0  0  0  0  0  0  0  0  0  0
    7.8802   -1.5033   20.7776 H   0  0  0  0  0  0  0  0  0  0  0  0
    7.3961   -0.2402   22.2819 C   0  0  0  0  0  0  0  0  0  0  0  0
    6.9922    0.8504   22.6303 O   0  0  0  0  0  0  0  0  0  0  0  0
    8.0289   -1.2263   23.2777 C   0  0  0  0  0  0  0  0  0  0  0  0
    7.0486   -2.2231   23.8387 C   0  0  0  0  0  0  0  0  0  0  0  0
    6.8695   -3.4720   23.2352 C   0  0  0  0  0  0  0  0  0  0  0  0
    7.4505   -3.7490   22.3657 H   0  0  0  0  0  0  0  0  0  0  0  0
    5.9756   -4.3747   23.8036 C   0  0  0  0  0  0  0  0  0  0  0  0
    5.8334   -5.3598   23.3634 H   0  0  0  0  0  0  0  0  0  0  0  0
    5.2507   -4.1196   24.9013 N   0  0  0  0  0  0  0  0  0  0  0  0
    5.3954   -2.9165   25.4762 C   0  0  0  0  0  0  0  0  0  0  0  0
    4.5668   -2.6308   26.6986 C   0  0  0  0  0  0  0  0  0  0  0  0
    4.0283   -3.5241   27.0255 H   0  0  0  0  0  0  0  0  0  0  0  0
    5.1958   -2.2719   27.5215 H   0  0  0  0  0  0  0  0  0  0  0  0
    3.8393   -1.8413   26.4790 H   0  0  0  0  0  0  0  0  0  0  0  0
    6.2766   -1.9485   24.9674 C   0  0  0  0  0  0  0  0  0  0  0  0
    6.3750   -0.9998   25.4826 H   0  0  0  0  0  0  0  0  0  0  0  0
    9.0913   -0.6685   24.2112 C   0  0  0  0  0  0  0  0  0  0  0  0
    9.3365    0.3894   24.1179 H   0  0  0  0  0  0  0  0  0  0  0  0
    9.0864   -1.0189   25.2467 H   0  0  0  0  0  0  0  0  0  0  0  0
    9.4849   -1.6313   23.1178 C   0  0  0  0  0  0  0  0  0  0  0  0
   10.0391   -1.2547   22.2573 H   0  0  0  0  0  0  0  0  0  0  0  0
    9.7611   -2.6482   23.4078 H   0  0  0  0  0  0  0  0  0  0  0  0
    5.4495    0.6422   20.1588 C   0  0  0  0  0  0  0  0  0  0  0  0
    5.0411    0.6333   21.1678 H   0  0  0  0  0  0  0  0  0  0  0  0
    4.8127    1.2968   19.1000 C   0  0  0  0  0  0  0  0  0  0  0  0
    3.8831    1.8326   19.2552 H   0  0  0  0  0  0  0  0  0  0  0  0
  1  2  1  0
  2  3  2  0
  3  4  1  0
  4  5  1  0
  4  6  2  0
  6  7  1  0
  7  8  1  0
  7  9  1  0
  9 10  2  0
  9 11  1  0
 11 12  1  0
 12 13  2  0
 13 14  1  0
 13 15  1  0
 15 16  1  0
 15 17  2  0
 17 18  1  0
 18 19  1  0
 19 20  1  0
 19 21  1  0
 19 22  1  0
 18 23  2  0
 23 24  1  0
 11 25  1  0
 25 26  1  0
 25 27  1  0
 25 28  1  0
 28 29  1  0
 28 30  1  0
  6 31  1  0
 31 32  1  0
 31 33  2  0
 33 34  1  0
 33  2  1  0
 28 11  1  0
 23 12  1  0
M  END
>  <cnnaffinity>  (1) 
-5.10386

>  <filename>  (1) 
Cc1cc(C2(C(=O)Nc3cccnc3)CC2)ccn1

$$$$
