
     RDKit          3D

 38 40  0  0  0  0  0  0  0  0999 V2000
    6.9368   -1.6755   26.8043 C   0  0  0  0  0  0  0  0  0  0  0  0
    6.0999   -0.4393   27.0635 C   0  0  0  0  0  0  0  0  0  0  0  0
    5.2766   -0.3959   28.1981 C   0  0  0  0  0  0  0  0  0  0  0  0
    4.4873    0.7235   28.4754 C   0  0  0  0  0  0  0  0  0  0  0  0
    3.4641    0.7242   29.8813 Cl  0  0  0  0  0  0  0  0  0  0  0  0
    4.5001    1.8314   27.6306 C   0  0  0  0  0  0  0  0  0  0  0  0
    5.2900    1.7941   26.4794 C   0  0  0  0  0  0  0  0  0  0  0  0
    6.0860    0.6756   26.1936 C   0  0  0  0  0  0  0  0  0  0  0  0
    6.8821    0.6854   25.0292 N   0  0  0  0  0  0  0  0  0  0  0  0
    6.4580    1.1318   23.8041 C   0  0  0  0  0  0  0  0  0  0  0  0
    5.3157    1.4596   23.5356 O   0  0  0  0  0  0  0  0  0  0  0  0
    7.5627    1.2006   22.7619 C   0  0  0  0  0  0  0  0  0  0  0  0
    7.7778   -0.1143   22.1982 N   0  0  0  0  0  0  0  0  0  0  0  0
    8.3912   -1.0039   22.9979 N   0  0  0  0  0  0  0  0  0  0  0  0
    8.3251   -2.1559   22.3426 C   0  0  0  0  0  0  0  0  0  0  0  0
    7.6283   -2.0216   21.1307 C   0  0  0  0  0  0  0  0  0  0  0  0
    7.3004   -0.6829   21.0506 C   0  0  0  0  0  0  0  0  0  0  0  0
    6.6102    0.0583   19.9650 C   0  0  0  0  0  0  0  0  0  0  0  0
    5.4117    0.7576   20.1826 C   0  0  0  0  0  0  0  0  0  0  0  0
    4.7875    1.3718   19.0908 C   0  0  0  0  0  0  0  0  0  0  0  0
    5.3933    1.3142   17.8319 C   0  0  0  0  0  0  0  0  0  0  0  0
    6.5524    0.6764   17.6084 N   0  0  0  0  0  0  0  0  0  0  0  0
    7.1287    0.0609   18.6520 C   0  0  0  0  0  0  0  0  0  0  0  0
    8.0744   -0.4341   18.4350 H   0  0  0  0  0  0  0  0  0  0  0  0
    4.9290    1.7925   16.9654 H   0  0  0  0  0  0  0  0  0  0  0  0
    3.8388    1.8811   19.1971 H   0  0  0  0  0  0  0  0  0  0  0  0
    4.9891    0.8289   21.1887 H   0  0  0  0  0  0  0  0  0  0  0  0
    7.3565   -2.7853   20.4222 H   0  0  0  0  0  0  0  0  0  0  0  0
    8.8068   -3.0386   22.7388 H   0  0  0  0  0  0  0  0  0  0  0  0
    7.2986    1.9061   21.9789 H   0  0  0  0  0  0  0  0  0  0  0  0
    8.4976    1.5044   23.2304 H   0  0  0  0  0  0  0  0  0  0  0  0
    7.6890    0.0758   25.0126 H   0  0  0  0  0  0  0  0  0  0  0  0
    5.2888    2.6192   25.7749 H   0  0  0  0  0  0  0  0  0  0  0  0
    3.8842    2.6962   27.8595 H   0  0  0  0  0  0  0  0  0  0  0  0
    5.2343   -1.2497   28.8677 H   0  0  0  0  0  0  0  0  0  0  0  0
    6.6052   -2.4988   27.4444 H   0  0  0  0  0  0  0  0  0  0  0  0
    6.8556   -2.0149   25.7627 H   0  0  0  0  0  0  0  0  0  0  0  0
    8.0002   -1.5145   27.0215 H   0  0  0  0  0  0  0  0  0  0  0  0
  1  2  1  0
  2  3  2  0
  3  4  1  0
  4  5  1  0
  4  6  2  0
  6  7  1  0
  7  8  2  0
  8  9  1  0
  9 10  1  0
 10 11  2  0
 10 12  1  0
 12 13  1  0
 13 14  1  0
 14 15  2  0
 15 16  1  0
 16 17  2  0
 17 18  1  0
 18 19  2  0
 19 20  1  0
 20 21  2  0
 21 22  1  0
 22 23  2  0
 23 24  1  0
 21 25  1  0
 20 26  1  0
 19 27  1  0
 16 28  1  0
 15 29  1  0
 12 30  1  0
 12 31  1  0
  9 32  1  0
  7 33  1  0
  6 34  1  0
  3 35  1  0
  1 36  1  0
  1 37  1  0
  1 38  1  0
  8  2  1  0
 17 13  1  0
 23 18  1  0
M  END
>  <cnnaffinity>  (1) 
-5.29049

>  <filename>  (1) 
Cc1cc(Cl)ccc1NC(=O)Cn1nccc1-c1cccnc1

$$$$
