
     RDKit          3D

 35 37  0  0  0  0  0  0  0  0999 V2000
    9.3506    0.7027   20.7518 C   0  0  0  0  0  0  0  0  0  0  0  0
    8.5874   -0.4413   21.3665 C   0  0  0  0  0  0  0  0  0  0  0  0
    9.1486   -1.2162   22.3668 C   0  0  0  0  0  0  0  0  0  0  0  0
    8.5347   -2.2348   22.9625 N   0  0  0  0  0  0  0  0  0  0  0  0
    7.2912   -2.4376   22.5673 C   0  0  0  0  0  0  0  0  0  0  0  0
    6.5633   -3.4081   23.1279 N   0  0  0  0  0  0  0  0  0  0  0  0
    6.9535   -4.2392   24.2436 C   0  0  1  0  0  0  0  0  0  0  0  0
    8.2147   -5.0910   23.9461 C   0  0  0  0  0  0  0  0  0  0  0  0
    9.2077   -4.6706   25.0319 C   0  0  0  0  0  0  0  0  0  0  0  0
    8.3937   -4.2850   26.1331 O   0  0  0  0  0  0  0  0  0  0  0  0
    7.3353   -3.5204   25.5774 C   0  0  0  0  0  0  0  0  0  0  0  0
    7.6575   -2.4917   25.3673 H   0  0  0  0  0  0  0  0  0  0  0  0
    6.5096   -3.4932   26.2933 H   0  0  0  0  0  0  0  0  0  0  0  0
    9.8248   -3.8263   24.6910 H   0  0  0  0  0  0  0  0  0  0  0  0
    9.8633   -5.4853   25.3598 H   0  0  0  0  0  0  0  0  0  0  0  0
    8.6058   -4.9354   22.9382 H   0  0  0  0  0  0  0  0  0  0  0  0
    7.9699   -6.1503   24.0577 H   0  0  0  0  0  0  0  0  0  0  0  0
    6.1047   -4.9022   24.4411 H   0  0  0  0  0  0  0  0  0  0  0  0
    5.6279   -3.2488   22.8002 H   0  0  0  0  0  0  0  0  0  0  0  0
    6.5961   -1.7733   21.6431 N   0  0  0  0  0  0  0  0  0  0  0  0
    7.2606   -0.8030   21.0379 C   0  0  0  0  0  0  0  0  0  0  0  0
    6.5395   -0.0968   19.9794 C   0  0  0  0  0  0  0  0  0  0  0  0
    5.3286    0.5755   20.1859 C   0  0  0  0  0  0  0  0  0  0  0  0
    4.7894    1.2885   19.1124 C   0  0  0  0  0  0  0  0  0  0  0  0
    5.4534    1.2636   17.8775 C   0  0  0  0  0  0  0  0  0  0  0  0
    6.5848    0.5767   17.6592 N   0  0  0  0  0  0  0  0  0  0  0  0
    7.1011   -0.0811   18.7008 C   0  0  0  0  0  0  0  0  0  0  0  0
    8.0275   -0.6173   18.5030 H   0  0  0  0  0  0  0  0  0  0  0  0
    5.0576    1.8156   17.0260 H   0  0  0  0  0  0  0  0  0  0  0  0
    3.8759    1.8686   19.2159 H   0  0  0  0  0  0  0  0  0  0  0  0
    4.8292    0.5414   21.1577 H   0  0  0  0  0  0  0  0  0  0  0  0
   10.1551   -0.9896   22.7158 H   0  0  0  0  0  0  0  0  0  0  0  0
    9.6409    0.4673   19.7268 H   0  0  0  0  0  0  0  0  0  0  0  0
    8.7244    1.5967   20.7016 H   0  0  0  0  0  0  0  0  0  0  0  0
   10.2556    0.9325   21.3235 H   0  0  0  0  0  0  0  0  0  0  0  0
  1  2  1  0
  2  3  2  0
  3  4  1  0
  4  5  2  0
  5  6  1  0
  6  7  1  0
  7  8  1  0
  8  9  1  0
  9 10  1  0
 10 11  1  0
 11 12  1  0
 11 13  1  0
  9 14  1  0
  9 15  1  0
  8 16  1  0
  8 17  1  0
  7 18  1  1
  6 19  1  0
  5 20  1  0
 20 21  2  0
 21 22  1  0
 22 23  2  0
 23 24  1  0
 24 25  2  0
 25 26  1  0
 26 27  2  0
 27 28  1  0
 25 29  1  0
 24 30  1  0
 23 31  1  0
  3 32  1  0
  1 33  1  0
  1 34  1  0
  1 35  1  0
 21  2  1  0
 27 22  1  0
 11  7  1  0
M  END
>  <cnnaffinity>  (1) 
-5.02617

>  <filename>  (1) 
Cc1cnc(N[C@H]2CCOC2)nc1-c1cccnc1

$$$$
