
     RDKit          3D

 30 31  0  0  0  0  0  0  0  0999 V2000
    8.5105   -0.8204   20.7679 H   0  0  0  0  0  0  0  0  0  0  0  0
    7.4423   -0.7104   20.9524 C   0  0  0  0  0  0  0  0  0  0  0  0
    6.9007   -1.2596   22.0407 C   0  0  0  0  0  0  0  0  0  0  0  0
    5.8257   -1.2204   22.1816 H   0  0  0  0  0  0  0  0  0  0  0  0
    7.6288   -1.9289   22.9996 N   0  0  0  0  0  0  0  0  0  0  0  0
    8.6275   -1.8205   22.9333 H   0  0  0  0  0  0  0  0  0  0  0  0
    7.1283   -2.6390   24.0907 C   0  0  0  0  0  0  0  0  0  0  0  0
    5.8381   -3.1903   24.0676 C   0  0  0  0  0  0  0  0  0  0  0  0
    5.2253   -3.0967   23.1792 H   0  0  0  0  0  0  0  0  0  0  0  0
    5.3539   -3.8899   25.1702 C   0  0  0  0  0  0  0  0  0  0  0  0
    4.3545   -4.3162   25.1336 H   0  0  0  0  0  0  0  0  0  0  0  0
    6.1312   -4.0628   26.3230 C   0  0  0  0  0  0  0  0  0  0  0  0
    5.6069   -4.8447   27.4973 C   0  0  0  0  0  0  0  0  0  0  0  0
    5.8520   -5.9079   27.3897 H   0  0  0  0  0  0  0  0  0  0  0  0
    6.0419   -4.5005   28.4416 H   0  0  0  0  0  0  0  0  0  0  0  0
    4.5175   -4.7662   27.5846 H   0  0  0  0  0  0  0  0  0  0  0  0
    7.4263   -3.5214   26.3297 C   0  0  0  0  0  0  0  0  0  0  0  0
    8.0487   -3.6661   27.2102 H   0  0  0  0  0  0  0  0  0  0  0  0
    7.9268   -2.8236   25.2295 C   0  0  0  0  0  0  0  0  0  0  0  0
    8.9328   -2.4145   25.2613 H   0  0  0  0  0  0  0  0  0  0  0  0
    6.6730    0.0090   19.9099 C   0  0  0  0  0  0  0  0  0  0  0  0
    7.1772    0.0736   18.5942 C   0  0  0  0  0  0  0  0  0  0  0  0
    8.1205   -0.4232   18.3691 H   0  0  0  0  0  0  0  0  0  0  0  0
    6.5678    0.6792   17.5704 N   0  0  0  0  0  0  0  0  0  0  0  0
    5.4011    1.2922   17.8387 C   0  0  0  0  0  0  0  0  0  0  0  0
    4.9108    1.7788   16.9986 H   0  0  0  0  0  0  0  0  0  0  0  0
    4.8065    1.3089   19.1058 C   0  0  0  0  0  0  0  0  0  0  0  0
    3.8717    1.8436   19.2617 H   0  0  0  0  0  0  0  0  0  0  0  0
    5.4407    0.6435   20.1572 C   0  0  0  0  0  0  0  0  0  0  0  0
    5.0080    0.6388   21.1588 H   0  0  0  0  0  0  0  0  0  0  0  0
  1  2  1  0
  2  3  2  3
  3  4  1  0
  3  5  1  0
  5  6  1  0
  5  7  1  0
  7  8  2  0
  8  9  1  0
  8 10  1  0
 10 11  1  0
 10 12  2  0
 12 13  1  0
 13 14  1  0
 13 15  1  0
 13 16  1  0
 12 17  1  0
 17 18  1  0
 17 19  2  0
 19 20  1  0
  2 21  1  0
 21 22  2  0
 22 23  1  0
 22 24  1  0
 24 25  2  0
 25 26  1  0
 25 27  1  0
 27 28  1  0
 27 29  2  0
 29 30  1  0
 19  7  1  0
 29 21  1  0
M  END
>  <cnnaffinity>  (1) 
-4.75584

>  <filename>  (1) 
Cc1ccc(NC=Cc2cccnc2)cc1

$$$$
