
     RDKit          3D

 36 38  0  0  0  0  0  0  0  0999 V2000
    7.5641    1.4671   22.4556 C   0  0  0  0  0  0  0  0  0  0  0  0
    7.7466   -0.0137   22.1646 C   0  0  0  0  0  0  0  0  0  0  0  0
    8.3439   -0.8597   23.0973 C   0  0  0  0  0  0  0  0  0  0  0  0
    8.4216   -2.1791   22.9944 N   0  0  0  0  0  0  0  0  0  0  0  0
    7.9291   -2.6756   21.8673 C   0  0  0  0  0  0  0  0  0  0  0  0
    7.9215   -4.0047   21.6762 N   0  0  0  0  0  0  0  0  0  0  0  0
    8.6016   -4.9237   22.5633 C   0  0  0  0  0  0  0  0  0  0  0  0
    7.7498   -5.2232   23.7605 C   0  0  0  0  0  0  0  0  0  0  0  0
    6.4666   -5.7444   23.5567 C   0  0  0  0  0  0  0  0  0  0  0  0
    5.6235   -6.0761   24.5353 N   0  0  0  0  0  0  0  0  0  0  0  0
    6.0318   -5.8727   25.7910 C   0  0  0  0  0  0  0  0  0  0  0  0
    7.2619   -5.3216   26.1262 C   0  0  0  0  0  0  0  0  0  0  0  0
    8.1222   -4.9823   25.0874 C   0  0  0  0  0  0  0  0  0  0  0  0
    9.6256   -4.2183   25.4942 Cl  0  0  0  0  0  0  0  0  0  0  0  0
    7.5290   -5.1283   27.1539 H   0  0  0  0  0  0  0  0  0  0  0  0
    5.3209   -6.1400   26.5670 H   0  0  0  0  0  0  0  0  0  0  0  0
    6.1034   -5.9140   22.5446 H   0  0  0  0  0  0  0  0  0  0  0  0
    8.8176   -5.8476   22.0116 H   0  0  0  0  0  0  0  0  0  0  0  0
    9.5545   -4.5111   22.9098 H   0  0  0  0  0  0  0  0  0  0  0  0
    7.8065   -4.1233   20.6839 H   0  0  0  0  0  0  0  0  0  0  0  0
    7.4632   -2.0048   20.8191 N   0  0  0  0  0  0  0  0  0  0  0  0
    7.3006   -0.7006   21.0084 C   0  0  0  0  0  0  0  0  0  0  0  0
    6.5976   -0.0112   19.9222 C   0  0  0  0  0  0  0  0  0  0  0  0
    5.3927    0.6786   20.1119 C   0  0  0  0  0  0  0  0  0  0  0  0
    4.8294    1.3312   19.0197 C   0  0  0  0  0  0  0  0  0  0  0  0
    5.4882    1.2682   17.7876 C   0  0  0  0  0  0  0  0  0  0  0  0
    6.6101    0.5575   17.5831 N   0  0  0  0  0  0  0  0  0  0  0  0
    7.1254   -0.0956   18.6305 C   0  0  0  0  0  0  0  0  0  0  0  0
    8.0028   -0.7099   18.4210 H   0  0  0  0  0  0  0  0  0  0  0  0
    5.0834    1.7872   16.9212 H   0  0  0  0  0  0  0  0  0  0  0  0
    3.8966    1.8760   19.1074 H   0  0  0  0  0  0  0  0  0  0  0  0
    4.8974    0.6861   21.0866 H   0  0  0  0  0  0  0  0  0  0  0  0
    8.7965   -0.4456   24.0001 H   0  0  0  0  0  0  0  0  0  0  0  0
    8.2809    1.8283   23.2020 H   0  0  0  0  0  0  0  0  0  0  0  0
    7.6733    2.0775   21.5520 H   0  0  0  0  0  0  0  0  0  0  0  0
    6.5652    1.6679   22.8678 H   0  0  0  0  0  0  0  0  0  0  0  0
  1  2  1  0
  2  3  2  0
  3  4  1  0
  4  5  2  0
  5  6  1  0
  6  7  1  0
  7  8  1  0
  8  9  2  0
  9 10  1  0
 10 11  2  0
 11 12  1  0
 12 13  2  0
 13 14  1  0
 12 15  1  0
 11 16  1  0
  9 17  1  0
  7 18  1  0
  7 19  1  0
  6 20  1  0
  5 21  1  0
 21 22  2  0
 22 23  1  0
 23 24  2  0
 24 25  1  0
 25 26  2  0
 26 27  1  0
 27 28  2  0
 28 29  1  0
 26 30  1  0
 25 31  1  0
 24 32  1  0
  3 33  1  0
  1 34  1  0
  1 35  1  0
  1 36  1  0
 22  2  1  0
 28 23  1  0
 13  8  1  0
M  END
>  <cnnaffinity>  (1) 
-5.85033

>  <filename>  (1) 
Cc1cnc(NCc2cnccc2Cl)nc1-c1cccnc1

$$$$
