
     RDKit          3D

 50 53  0  0  0  0  0  0  0  0999 V2000
    5.6457   -0.1012   25.6074 C   0  0  0  0  0  0  0  0  0  0  0  0
    5.4462   -1.5578   25.3152 C   0  0  0  0  0  0  0  0  0  0  0  0
    4.3248   -2.3313   25.4253 C   0  0  0  0  0  0  0  0  0  0  0  0
    4.6353   -3.6327   24.8940 C   0  0  0  0  0  0  0  0  0  0  0  0
    3.9060   -4.8286   24.7045 C   0  0  0  0  0  0  0  0  0  0  0  0
    4.5290   -5.9144   24.1035 C   0  0  0  0  0  0  0  0  0  0  0  0
    5.8760   -5.8310   23.6737 C   0  0  0  0  0  0  0  0  0  0  0  0
    6.6236   -4.6727   23.8527 C   0  0  0  0  0  0  0  0  0  0  0  0
    5.9898   -3.5771   24.4721 C   0  0  0  0  0  0  0  0  0  0  0  0
    6.4771   -2.3123   24.7704 N   0  0  0  0  0  0  0  0  0  0  0  0
    7.7601   -1.8005   24.3408 C   0  0  0  0  0  0  0  0  0  0  0  0
    7.7778   -1.4128   22.8848 C   0  0  0  0  0  0  0  0  0  0  0  0
    6.8681   -0.6870   22.2644 N   0  0  0  0  0  0  0  0  0  0  0  0
    7.3217   -0.6371   20.9859 C   0  0  0  0  0  0  0  0  0  0  0  0
    6.6113    0.0336   19.9105 C   0  0  0  0  0  0  0  0  0  0  0  0
    5.3932    0.6873   20.1302 C   0  0  0  0  0  0  0  0  0  0  0  0
    4.7947    1.3280   19.0493 C   0  0  0  0  0  0  0  0  0  0  0  0
    5.4326    1.2944   17.8019 C   0  0  0  0  0  0  0  0  0  0  0  0
    6.5942    0.6584   17.5831 N   0  0  0  0  0  0  0  0  0  0  0  0
    7.1656    0.0436   18.6232 C   0  0  0  0  0  0  0  0  0  0  0  0
    8.1090   -0.4633   18.4281 H   0  0  0  0  0  0  0  0  0  0  0  0
    4.9921    1.7956   16.9409 H   0  0  0  0  0  0  0  0  0  0  0  0
    3.8584    1.8615   19.1634 H   0  0  0  0  0  0  0  0  0  0  0  0
    4.9533    0.6932   21.1304 H   0  0  0  0  0  0  0  0  0  0  0  0
    8.4695   -1.2543   20.7939 N   0  0  0  0  0  0  0  0  0  0  0  0
    8.7662   -1.7412   22.0183 N   0  0  0  0  0  0  0  0  0  0  0  0
   10.0459   -2.4073   22.1922 C   0  0  0  0  0  0  0  0  0  0  0  0
   11.2317   -1.5085   22.5980 C   0  0  0  0  0  0  0  0  0  0  0  0
   11.7009   -0.5946   21.4565 C   0  0  0  0  0  0  0  0  0  0  0  0
   10.8904    0.0537   21.0974 H   0  0  0  0  0  0  0  0  0  0  0  0
   12.5227    0.0361   21.8137 H   0  0  0  0  0  0  0  0  0  0  0  0
   12.0752   -1.1679   20.6015 H   0  0  0  0  0  0  0  0  0  0  0  0
   10.9510   -0.6973   23.8783 C   0  0  0  0  0  0  0  0  0  0  0  0
   12.0848    0.0400   24.3074 O   0  0  0  0  0  0  0  0  0  0  0  0
   12.8389   -0.5656   24.3194 H   0  0  0  0  0  0  0  0  0  0  0  0
   10.5799   -1.3555   24.6869 H   0  0  0  0  0  0  0  0  0  0  0  0
   10.1669    0.0451   23.6903 H   0  0  0  0  0  0  0  0  0  0  0  0
   12.0454   -2.2222   22.8036 H   0  0  0  0  0  0  0  0  0  0  0  0
    9.9121   -3.2472   22.8853 H   0  0  0  0  0  0  0  0  0  0  0  0
   10.2401   -2.8163   21.2032 H   0  0  0  0  0  0  0  0  0  0  0  0
    7.9918   -0.9176   24.9494 H   0  0  0  0  0  0  0  0  0  0  0  0
    8.5334   -2.5431   24.5638 H   0  0  0  0  0  0  0  0  0  0  0  0
    7.6586   -4.6186   23.5250 H   0  0  0  0  0  0  0  0  0  0  0  0
    6.3313   -6.6877   23.1872 H   0  0  0  0  0  0  0  0  0  0  0  0
    3.9767   -6.8394   23.9523 H   0  0  0  0  0  0  0  0  0  0  0  0
    2.8654   -4.8963   25.0151 H   0  0  0  0  0  0  0  0  0  0  0  0
    3.3630   -1.9946   25.7914 H   0  0  0  0  0  0  0  0  0  0  0  0
    6.4008    0.0687   26.3865 H   0  0  0  0  0  0  0  0  0  0  0  0
    4.7111    0.3467   25.9548 H   0  0  0  0  0  0  0  0  0  0  0  0
    5.9655    0.4192   24.6939 H   0  0  0  0  0  0  0  0  0  0  0  0
  1  2  1  0
  2  3  2  0
  3  4  1  0
  4  5  2  0
  5  6  1  0
  6  7  2  0
  7  8  1  0
  8  9  2  0
  9 10  1  0
 10 11  1  0
 11 12  1  0
 12 13  2  0
 13 14  1  0
 14 15  1  0
 15 16  2  0
 16 17  1  0
 17 18  2  0
 18 19  1  0
 19 20  2  0
 20 21  1  0
 18 22  1  0
 17 23  1  0
 16 24  1  0
 14 25  2  0
 25 26  1  0
 26 27  1  0
 27 28  1  0
 28 29  1  0
 29 30  1  0
 29 31  1  0
 29 32  1  0
 28 33  1  0
 33 34  1  0
 34 35  1  0
 33 36  1  0
 33 37  1  0
 28 38  1  0
 27 39  1  0
 27 40  1  0
 11 41  1  0
 11 42  1  0
  8 43  1  0
  7 44  1  0
  6 45  1  0
  5 46  1  0
  3 47  1  0
  1 48  1  0
  1 49  1  0
  1 50  1  0
 10  2  1  0
 26 12  1  0
  9  4  1  0
 20 15  1  0
M  END
>  <cnnaffinity>  (1) 
-6.07896

>  <filename>  (1) 
Cc1cc2ccccc2n1Cc1nc(-c2cccnc2)nn1CC(C)CO

$$$$
