
     RDKit          3D

 48 52  0  0  0  0  0  0  0  0999 V2000
    6.8440    8.0863   22.0441 C   0  0  0  0  0  0  0  0  0  0  0  0
    7.3867    6.7679   22.5482 C   0  0  0  0  0  0  0  0  0  0  0  0
    8.6044    6.6744   23.2440 C   0  0  0  0  0  0  0  0  0  0  0  0
    9.0788    5.4362   23.7050 C   0  0  0  0  0  0  0  0  0  0  0  0
    8.3521    4.2542   23.4868 C   0  0  0  0  0  0  0  0  0  0  0  0
    8.8167    2.8980   24.0186 C   0  0  0  0  0  0  0  0  0  0  0  0
    8.8981    1.8422   23.0035 N   0  0  0  0  0  0  0  0  0  0  0  0
    7.8202    1.0737   22.7147 N   0  0  0  0  0  0  0  0  0  0  0  0
    8.2324    0.3388   21.6982 C   0  0  0  0  0  0  0  0  0  0  0  0
    7.3571   -0.6620   20.9949 C   0  0  0  0  0  0  0  0  0  0  0  0
    6.5843   -0.0383   19.8456 C   0  0  0  0  0  0  0  0  0  0  0  0
    5.3804    0.6359   20.0839 C   0  0  0  0  0  0  0  0  0  0  0  0
    4.7721    1.3151   19.0271 C   0  0  0  0  0  0  0  0  0  0  0  0
    5.3914    1.3050   17.7737 C   0  0  0  0  0  0  0  0  0  0  0  0
    6.5351    0.6508   17.5178 N   0  0  0  0  0  0  0  0  0  0  0  0
    7.1063    0.0047   18.5417 C   0  0  0  0  0  0  0  0  0  0  0  0
    8.0419   -0.5105   18.3216 H   0  0  0  0  0  0  0  0  0  0  0  0
    4.9525    1.8492   16.9390 H   0  0  0  0  0  0  0  0  0  0  0  0
    3.8509    1.8691   19.1682 H   0  0  0  0  0  0  0  0  0  0  0  0
    4.9329    0.6410   21.0814 H   0  0  0  0  0  0  0  0  0  0  0  0
    6.6583   -1.0822   21.7236 H   0  0  0  0  0  0  0  0  0  0  0  0
    7.9827   -1.4883   20.6392 H   0  0  0  0  0  0  0  0  0  0  0  0
    9.5094    0.5819   21.3140 N   0  0  0  0  0  0  0  0  0  0  0  0
    9.9220    1.5046   22.1741 C   0  0  0  0  0  0  0  0  0  0  0  0
   11.2821    2.0871   22.3347 C   0  0  0  0  0  0  0  0  0  0  0  0
   11.5482    3.4828   22.3199 C   0  0  0  0  0  0  0  0  0  0  0  0
   12.8462    3.9907   22.4953 C   0  0  0  0  0  0  0  0  0  0  0  0
   13.9284    3.2270   22.7151 N   0  0  0  0  0  0  0  0  0  0  0  0
   13.6497    1.9259   22.7290 C   0  0  0  0  0  0  0  0  0  0  0  0
   12.4129    1.2650   22.5395 C   0  0  0  0  0  0  0  0  0  0  0  0
   12.6062   -0.1139   22.5256 N   0  0  0  0  0  0  0  0  0  0  0  0
   13.8934   -0.2540   22.6606 C   0  0  0  0  0  0  0  0  0  0  0  0
   14.5702    0.9251   22.8295 N   0  0  0  0  0  0  0  0  0  0  0  0
   15.5447    1.1285   22.7255 H   0  0  0  0  0  0  0  0  0  0  0  0
   14.4255   -1.1998   22.6394 H   0  0  0  0  0  0  0  0  0  0  0  0
   13.0155    5.0685   22.4620 H   0  0  0  0  0  0  0  0  0  0  0  0
   10.7313    4.1756   22.1709 H   0  0  0  0  0  0  0  0  0  0  0  0
    9.8010    2.9912   24.4864 H   0  0  0  0  0  0  0  0  0  0  0  0
    8.1294    2.5419   24.7933 H   0  0  0  0  0  0  0  0  0  0  0  0
    7.1429    4.3475   22.7826 C   0  0  0  0  0  0  0  0  0  0  0  0
    6.6734    5.5808   22.3245 C   0  0  0  0  0  0  0  0  0  0  0  0
    5.7289    5.6201   21.7844 H   0  0  0  0  0  0  0  0  0  0  0  0
    6.5627    3.4482   22.5878 H   0  0  0  0  0  0  0  0  0  0  0  0
   10.0394    5.3988   24.2188 H   0  0  0  0  0  0  0  0  0  0  0  0
    9.1888    7.5717   23.4305 H   0  0  0  0  0  0  0  0  0  0  0  0
    7.2741    8.3468   21.0697 H   0  0  0  0  0  0  0  0  0  0  0  0
    5.7572    8.0421   21.9170 H   0  0  0  0  0  0  0  0  0  0  0  0
    7.0568    8.9116   22.7326 H   0  0  0  0  0  0  0  0  0  0  0  0
  1  2  1  0
  2  3  2  0
  3  4  1  0
  4  5  2  0
  5  6  1  0
  6  7  1  0
  7  8  1  0
  8  9  2  0
  9 10  1  0
 10 11  1  0
 11 12  2  0
 12 13  1  0
 13 14  2  0
 14 15  1  0
 15 16  2  0
 16 17  1  0
 14 18  1  0
 13 19  1  0
 12 20  1  0
 10 21  1  0
 10 22  1  0
  9 23  1  0
 23 24  2  0
 24 25  1  0
 25 26  2  0
 26 27  1  0
 27 28  2  0
 28 29  1  0
 29 30  2  0
 30 31  1  0
 31 32  2  0
 32 33  1  0
 33 34  1  0
 32 35  1  0
 27 36  1  0
 26 37  1  0
  6 38  1  0
  6 39  1  0
  5 40  1  0
 40 41  2  0
 41 42  1  0
 40 43  1  0
  4 44  1  0
  3 45  1  0
  1 46  1  0
  1 47  1  0
  1 48  1  0
 41  2  1  0
 24  7  1  0
 30 25  1  0
 16 11  1  0
 33 29  1  0
M  END
>  <cnnaffinity>  (1) 
-6.77419

>  <filename>  (1) 
Cc1ccc(Cn2nc(Cc3cccnc3)nc2-c2ccnc3[nH]cnc23)cc1

$$$$
