
     RDKit          3D

 51 55  0  0  0  0  0  0  0  0999 V2000
    6.6551    4.0178   22.9188 C   0  0  0  0  0  0  0  0  0  0  0  0
    8.0567    4.2747   23.4908 C   0  0  0  0  0  0  0  0  0  0  0  0
    8.0563    5.3019   24.6440 C   0  0  0  0  0  0  0  0  0  0  0  0
    7.4601    4.7325   25.9441 C   0  0  0  0  0  0  0  0  0  0  0  0
    8.2019    3.4658   26.3952 C   0  0  0  0  0  0  0  0  0  0  0  0
    8.2186    2.4057   25.2903 C   0  0  0  0  0  0  0  0  0  0  0  0
    8.7865    2.9906   23.9864 C   0  0  0  0  0  0  0  0  0  0  0  0
    8.8713    1.9558   22.9563 N   0  0  0  0  0  0  0  0  0  0  0  0
    7.8020    1.1848   22.6246 N   0  0  0  0  0  0  0  0  0  0  0  0
    8.3036    0.3406   21.7412 C   0  0  0  0  0  0  0  0  0  0  0  0
    7.4341   -0.6448   21.0095 C   0  0  0  0  0  0  0  0  0  0  0  0
    6.6455   -0.0187   19.8597 C   0  0  0  0  0  0  0  0  0  0  0  0
    5.4320    0.6392   20.1043 C   0  0  0  0  0  0  0  0  0  0  0  0
    4.7990    1.3047   19.0514 C   0  0  0  0  0  0  0  0  0  0  0  0
    5.4009    1.3008   17.7913 C   0  0  0  0  0  0  0  0  0  0  0  0
    6.5489    0.6589   17.5257 N   0  0  0  0  0  0  0  0  0  0  0  0
    7.1438    0.0217   18.5429 C   0  0  0  0  0  0  0  0  0  0  0  0
    8.0831   -0.4766   18.2988 H   0  0  0  0  0  0  0  0  0  0  0  0
    4.9435    1.8365   16.9601 H   0  0  0  0  0  0  0  0  0  0  0  0
    3.8656    1.8351   19.1965 H   0  0  0  0  0  0  0  0  0  0  0  0
    5.0002    0.6489   21.1084 H   0  0  0  0  0  0  0  0  0  0  0  0
    8.0796   -1.4539   20.6564 H   0  0  0  0  0  0  0  0  0  0  0  0
    6.7402   -1.0854   21.7345 H   0  0  0  0  0  0  0  0  0  0  0  0
    9.6366    0.4765   21.5281 N   0  0  0  0  0  0  0  0  0  0  0  0
    9.9539    1.5271   22.2713 C   0  0  0  0  0  0  0  0  0  0  0  0
   11.2771    2.1046   22.3902 C   0  0  0  0  0  0  0  0  0  0  0  0
   11.5563    3.4667   22.3622 C   0  0  0  0  0  0  0  0  0  0  0  0
   12.7919    3.9943   22.5031 N   0  0  0  0  0  0  0  0  0  0  0  0
   13.8323    3.1709   22.6921 C   0  0  0  0  0  0  0  0  0  0  0  0
   13.6736    1.7641   22.7610 C   0  0  0  0  0  0  0  0  0  0  0  0
   12.3841    1.2638   22.5521 C   0  0  0  0  0  0  0  0  0  0  0  0
   12.5003   -0.0856   22.5576 N   0  0  0  0  0  0  0  0  0  0  0  0
   13.8236   -0.3631   22.7521 C   0  0  0  0  0  0  0  0  0  0  0  0
   14.5657    0.6962   22.8980 N   0  0  0  0  0  0  0  0  0  0  0  0
   14.1791   -1.3820   22.7607 H   0  0  0  0  0  0  0  0  0  0  0  0
   11.7437   -0.7004   22.3009 H   0  0  0  0  0  0  0  0  0  0  0  0
   14.8159    3.6335   22.7436 H   0  0  0  0  0  0  0  0  0  0  0  0
   10.7508    4.1922   22.2405 H   0  0  0  0  0  0  0  0  0  0  0  0
    9.8126    3.2878   24.2227 H   0  0  0  0  0  0  0  0  0  0  0  0
    8.8355    1.5462   25.5822 H   0  0  0  0  0  0  0  0  0  0  0  0
    7.2086    2.0246   25.0955 H   0  0  0  0  0  0  0  0  0  0  0  0
    7.7509    3.0488   27.3027 H   0  0  0  0  0  0  0  0  0  0  0  0
    9.2394    3.7310   26.6485 H   0  0  0  0  0  0  0  0  0  0  0  0
    6.3996    4.4914   25.7758 H   0  0  0  0  0  0  0  0  0  0  0  0
    7.4872    5.4904   26.7358 H   0  0  0  0  0  0  0  0  0  0  0  0
    9.0921    5.6245   24.8348 H   0  0  0  0  0  0  0  0  0  0  0  0
    7.5077    6.2003   24.3338 H   0  0  0  0  0  0  0  0  0  0  0  0
    8.6605    4.6887   22.6659 H   0  0  0  0  0  0  0  0  0  0  0  0
    6.7212    3.4199   22.0055 H   0  0  0  0  0  0  0  0  0  0  0  0
    6.0206    3.4645   23.6211 H   0  0  0  0  0  0  0  0  0  0  0  0
    6.1548    4.9659   22.6875 H   0  0  0  0  0  0  0  0  0  0  0  0
  1  2  1  0
  2  3  1  0
  3  4  1  0
  4  5  1  0
  5  6  1  0
  6  7  1  0
  7  8  1  0
  8  9  1  0
  9 10  2  0
 10 11  1  0
 11 12  1  0
 12 13  2  0
 13 14  1  0
 14 15  2  0
 15 16  1  0
 16 17  2  0
 17 18  1  0
 15 19  1  0
 14 20  1  0
 13 21  1  0
 11 22  1  0
 11 23  1  0
 10 24  1  0
 24 25  2  0
 25 26  1  0
 26 27  2  0
 27 28  1  0
 28 29  2  0
 29 30  1  0
 30 31  2  0
 31 32  1  0
 32 33  1  0
 33 34  2  0
 33 35  1  0
 32 36  1  0
 29 37  1  0
 27 38  1  0
  7 39  1  0
  6 40  1  0
  6 41  1  0
  5 42  1  0
  5 43  1  0
  4 44  1  0
  4 45  1  0
  3 46  1  0
  3 47  1  0
  2 48  1  0
  1 49  1  0
  1 50  1  0
  1 51  1  0
  7  2  1  0
 25  8  1  0
 31 26  1  0
 17 12  1  0
 34 30  1  0
M  END
>  <cnnaffinity>  (1) 
-6.87274

>  <filename>  (1) 
CC1CCCCC1n1nc(Cc2cccnc2)nc1-c1cncc2nc[nH]c12

$$$$
