
     RDKit          3D

 47 52  0  0  0  0  0  0  0  0999 V2000
    5.3642    5.4735   25.0699 C   0  0  0  0  0  0  0  0  0  0  0  0
    6.6803    4.7243   25.0308 C   0  0  0  0  0  0  0  0  0  0  0  0
    7.6659    4.8918   26.0278 C   0  0  0  0  0  0  0  0  0  0  0  0
    8.8413    4.2469   26.0375 N   0  0  0  0  0  0  0  0  0  0  0  0
    9.0957    3.3991   25.0329 C   0  0  0  0  0  0  0  0  0  0  0  0
    8.1986    3.1667   23.9801 C   0  0  0  0  0  0  0  0  0  0  0  0
    8.5183    2.2797   22.9226 N   0  0  0  0  0  0  0  0  0  0  0  0
    7.6479    1.3131   22.5385 N   0  0  0  0  0  0  0  0  0  0  0  0
    8.2613    0.7438   21.5201 C   0  0  0  0  0  0  0  0  0  0  0  0
    7.6391   -0.3827   20.7461 C   0  0  0  0  0  0  0  0  0  0  0  0
    6.8185    0.0779   19.5452 C   0  0  0  0  0  0  0  0  0  0  0  0
    5.6662    0.8558   19.7373 C   0  0  0  0  0  0  0  0  0  0  0  0
    4.9509    1.2856   18.6170 C   0  0  0  0  0  0  0  0  0  0  0  0
    5.4207    0.9394   17.3477 C   0  0  0  0  0  0  0  0  0  0  0  0
    6.5177    0.1998   17.1439 N   0  0  0  0  0  0  0  0  0  0  0  0
    7.1905   -0.2149   18.2232 C   0  0  0  0  0  0  0  0  0  0  0  0
    8.0902   -0.8017   18.0326 H   0  0  0  0  0  0  0  0  0  0  0  0
    4.8978    1.2648   16.4521 H   0  0  0  0  0  0  0  0  0  0  0  0
    4.0548    1.8907   18.7078 H   0  0  0  0  0  0  0  0  0  0  0  0
    5.3487    1.1267   20.7468 H   0  0  0  0  0  0  0  0  0  0  0  0
    8.4358   -1.0706   20.4426 H   0  0  0  0  0  0  0  0  0  0  0  0
    6.9937   -0.9190   21.4489 H   0  0  0  0  0  0  0  0  0  0  0  0
    9.4690    1.2758   21.1987 N   0  0  0  0  0  0  0  0  0  0  0  0
    9.6098    2.2478   22.0819 C   0  0  0  0  0  0  0  0  0  0  0  0
   10.7865    3.1354   22.1728 C   0  0  0  0  0  0  0  0  0  0  0  0
   12.1478    2.4305   22.4433 C   0  0  0  0  0  0  0  0  0  0  0  0
   12.2793    0.9917   22.8520 C   0  0  0  0  0  0  0  0  0  0  0  0
   12.8455    2.0996   23.7282 C   0  0  0  0  0  0  0  0  0  0  0  0
   13.9247    2.2360   23.7245 H   0  0  0  0  0  0  0  0  0  0  0  0
   12.3370    2.3882   24.6473 H   0  0  0  0  0  0  0  0  0  0  0  0
   11.3678    0.4862   23.1932 H   0  0  0  0  0  0  0  0  0  0  0  0
   12.9783    0.3448   22.3121 H   0  0  0  0  0  0  0  0  0  0  0  0
   11.8969    3.0304   21.2307 C   0  0  0  0  0  0  0  0  0  0  0  0
   12.7437    4.3346   20.9897 C   0  0  0  0  0  0  0  0  0  0  0  0
   12.4883    4.2987   20.8663 C   0  0  0  0  0  0  0  0  0  0  0  0
   13.8225    4.2147   20.4422 H   0  0  0  0  0  0  0  0  0  0  0  0
   13.8811    4.3817   22.1398 H   0  0  0  0  0  0  0  0  0  0  0  0
   12.0651    5.2497   21.5268 H   0  0  0  0  0  0  0  0  0  0  0  0
   12.0686    4.4676   19.7470 H   0  0  0  0  0  0  0  0  0  0  0  0
   10.5252    4.0463   22.7669 H   0  0  0  0  0  0  0  0  0  0  0  0
    6.9652    3.8294   23.9910 C   0  0  0  0  0  0  0  0  0  0  0  0
    6.2437    3.6307   23.1920 H   0  0  0  0  0  0  0  0  0  0  0  0
   10.0623    2.8961   25.0557 H   0  0  0  0  0  0  0  0  0  0  0  0
    7.4830    5.5795   26.8546 H   0  0  0  0  0  0  0  0  0  0  0  0
    4.5658    4.9045   24.5814 H   0  0  0  0  0  0  0  0  0  0  0  0
    5.4341    6.4335   24.5470 H   0  0  0  0  0  0  0  0  0  0  0  0
    5.0441    5.6838   26.0952 H   0  0  0  0  0  0  0  0  0  0  0  0
  1  2  1  0
  2  3  2  0
  3  4  1  0
  4  5  2  0
  5  6  1  0
  6  7  1  0
  7  8  1  0
  8  9  2  0
  9 10  1  0
 10 11  1  0
 11 12  2  0
 12 13  1  0
 13 14  2  0
 14 15  1  0
 15 16  2  0
 16 17  1  0
 14 18  1  0
 13 19  1  0
 12 20  1  0
 10 21  1  0
 10 22  1  0
  9 23  1  0
 23 24  2  0
 24 25  1  0
 25 26  1  0
 26 27  1  0
 27 28  1  0
 28 29  1  0
 28 30  1  0
 27 31  1  0
 27 32  1  0
 26 33  1  0
 33 34  1  0
 34 35  1  0
 35 36  1  0
 35 37  1  0
 34 38  1  0
 34 39  1  0
 25 40  1  0
  6 41  2  0
 41 42  1  0
  5 43  1  0
  3 44  1  0
  1 45  1  0
  1 46  1  0
  1 47  1  0
 41  2  1  0
 24  7  1  0
 33 25  1  0
 16 11  1  0
 28 26  1  0
 35 33  1  0
M  END
>  <cnnaffinity>  (1) 
-6.05824

>  <filename>  (1) 
Cc1cncc(-n2nc(Cc3cccnc3)nc2C2C3(CC3)C23CC3)c1

$$$$
