
     RDKit          3D

 49 52  0  0  0  0  0  0  0  0999 V2000
    6.9078    4.3410   22.0310 C   0  0  0  0  0  0  0  0  0  0  0  0
    7.5681    4.2270   23.3768 C   0  0  0  0  0  0  0  0  0  0  0  0
    7.4546    5.2582   24.3145 C   0  0  0  0  0  0  0  0  0  0  0  0
    8.0672    5.1701   25.5653 C   0  0  0  0  0  0  0  0  0  0  0  0
    8.8283    4.0438   25.8745 C   0  0  0  0  0  0  0  0  0  0  0  0
    9.0038    2.9937   24.9605 C   0  0  0  0  0  0  0  0  0  0  0  0
    9.8847    1.8185   25.3293 C   0  0  0  0  0  0  0  0  0  0  0  0
    9.8915    1.6508   26.4057 H   0  0  0  0  0  0  0  0  0  0  0  0
    9.5549    0.8968   24.8414 H   0  0  0  0  0  0  0  0  0  0  0  0
   10.9212    1.9984   25.0238 H   0  0  0  0  0  0  0  0  0  0  0  0
    8.3668    3.1057   23.7050 C   0  0  0  0  0  0  0  0  0  0  0  0
    8.5403    2.0674   22.7171 N   0  0  0  0  0  0  0  0  0  0  0  0
    7.4799    1.3061   22.3374 N   0  0  0  0  0  0  0  0  0  0  0  0
    8.0274    0.3924   21.5574 C   0  0  0  0  0  0  0  0  0  0  0  0
    7.2205   -0.6716   20.8722 C   0  0  0  0  0  0  0  0  0  0  0  0
    6.4515   -0.1138   19.6829 C   0  0  0  0  0  0  0  0  0  0  0  0
    5.2602    0.5920   19.8910 C   0  0  0  0  0  0  0  0  0  0  0  0
    4.7106    1.3194   18.8339 C   0  0  0  0  0  0  0  0  0  0  0  0
    5.3618    1.2918   17.5981 C   0  0  0  0  0  0  0  0  0  0  0  0
    6.4671    0.5692   17.3574 N   0  0  0  0  0  0  0  0  0  0  0  0
    6.9880   -0.1156   18.3833 C   0  0  0  0  0  0  0  0  0  0  0  0
    7.8949   -0.6859   18.1700 H   0  0  0  0  0  0  0  0  0  0  0  0
    4.9758    1.8692   16.7607 H   0  0  0  0  0  0  0  0  0  0  0  0
    3.8180    1.9211   18.9628 H   0  0  0  0  0  0  0  0  0  0  0  0
    4.8012    0.6006   20.8816 H   0  0  0  0  0  0  0  0  0  0  0  0
    7.9116   -1.4663   20.5747 H   0  0  0  0  0  0  0  0  0  0  0  0
    6.5310   -1.0903   21.6126 H   0  0  0  0  0  0  0  0  0  0  0  0
    9.3659    0.5009   21.4043 N   0  0  0  0  0  0  0  0  0  0  0  0
    9.6690    1.5597   22.1389 C   0  0  0  0  0  0  0  0  0  0  0  0
   11.0297    2.1168   22.3449 C   0  0  0  0  0  0  0  0  0  0  0  0
   11.2772    3.4859   22.5584 C   0  0  0  0  0  0  0  0  0  0  0  0
   12.5774    3.9198   22.7975 C   0  0  0  0  0  0  0  0  0  0  0  0
   13.6308    3.0940   22.8419 N   0  0  0  0  0  0  0  0  0  0  0  0
   13.4069    1.7830   22.6514 C   0  0  0  0  0  0  0  0  0  0  0  0
   14.5988    0.8502   22.6657 C   0  0  0  0  0  0  0  0  0  0  0  0
   14.6065    0.0685   23.8609 O   0  0  0  0  0  0  0  0  0  0  0  0
   15.3986   -0.4878   23.8546 H   0  0  0  0  0  0  0  0  0  0  0  0
   15.5011    1.4629   22.5232 H   0  0  0  0  0  0  0  0  0  0  0  0
   14.5082    0.1890   21.7923 H   0  0  0  0  0  0  0  0  0  0  0  0
   12.1328    1.2588   22.3863 C   0  0  0  0  0  0  0  0  0  0  0  0
   12.0091    0.1873   22.2444 H   0  0  0  0  0  0  0  0  0  0  0  0
   12.7803    4.9755   22.9632 H   0  0  0  0  0  0  0  0  0  0  0  0
   10.4689    4.2061   22.5509 H   0  0  0  0  0  0  0  0  0  0  0  0
    9.2709    3.9504   26.8584 H   0  0  0  0  0  0  0  0  0  0  0  0
    7.9392    5.9679   26.2930 H   0  0  0  0  0  0  0  0  0  0  0  0
    6.8684    6.1360   24.0528 H   0  0  0  0  0  0  0  0  0  0  0  0
    6.4475    5.3208   21.8782 H   0  0  0  0  0  0  0  0  0  0  0  0
    7.6926    4.1927   21.2985 H   0  0  0  0  0  0  0  0  0  0  0  0
    6.1640    3.5512   21.8807 H   0  0  0  0  0  0  0  0  0  0  0  0
  1  2  1  0
  2  3  2  0
  3  4  1  0
  4  5  2  0
  5  6  1  0
  6  7  1  0
  7  8  1  0
  7  9  1  0
  7 10  1  0
  6 11  2  0
 11 12  1  0
 12 13  1  0
 13 14  2  0
 14 15  1  0
 15 16  1  0
 16 17  2  0
 17 18  1  0
 18 19  2  0
 19 20  1  0
 20 21  2  0
 21 22  1  0
 19 23  1  0
 18 24  1  0
 17 25  1  0
 15 26  1  0
 15 27  1  0
 14 28  1  0
 28 29  2  0
 29 30  1  0
 30 31  2  0
 31 32  1  0
 32 33  2  0
 33 34  1  0
 34 35  1  0
 35 36  1  0
 36 37  1  0
 35 38  1  0
 35 39  1  0
 34 40  2  0
 40 41  1  0
 32 42  1  0
 31 43  1  0
  5 44  1  0
  4 45  1  0
  3 46  1  0
  1 47  1  0
  1 48  1  0
  1 49  1  0
 11  2  1  0
 29 12  1  0
 40 30  1  0
 21 16  1  0
M  END
>  <cnnaffinity>  (1) 
-6.1045

>  <filename>  (1) 
Cc1cccc(C)c1-n1nc(Cc2cccnc2)nc1-c1ccnc(CO)c1

$$$$
