
     RDKit          3D

 35 37  0  0  0  0  0  0  0  0999 V2000
    4.9439    1.8380   16.9682 H   0  0  0  0  0  0  0  0  0  0  0  0
    5.4003    1.3004   17.7970 C   0  0  0  0  0  0  0  0  0  0  0  0
    6.5495    0.6670   17.5259 N   0  0  0  0  0  0  0  0  0  0  0  0
    7.1474    0.0258   18.5350 C   0  0  0  0  0  0  0  0  0  0  0  0
    8.0853   -0.4738   18.3018 H   0  0  0  0  0  0  0  0  0  0  0  0
    6.6447   -0.0189   19.8431 C   0  0  0  0  0  0  0  0  0  0  0  0
    7.3733   -0.7194   20.9068 C   0  0  0  0  0  0  0  0  0  0  0  0
    6.6493   -1.5019   21.6725 N   0  0  0  0  0  0  0  0  0  0  0  0
    7.2564   -2.1953   22.6836 C   0  0  0  0  0  0  0  0  0  0  0  0
    6.3320   -2.9906   23.3235 N   0  0  0  0  0  0  0  0  0  0  0  0
    5.4281   -2.6983   22.9802 H   0  0  0  0  0  0  0  0  0  0  0  0
    6.4116   -3.4827   24.6426 C   0  0  0  0  0  0  0  0  0  0  0  0
    6.9767   -2.7216   25.6720 C   0  0  0  0  0  0  0  0  0  0  0  0
    7.2700   -1.6957   25.4684 H   0  0  0  0  0  0  0  0  0  0  0  0
    7.1261   -3.2781   26.9435 C   0  0  0  0  0  0  0  0  0  0  0  0
    7.5660   -2.6560   27.7174 H   0  0  0  0  0  0  0  0  0  0  0  0
    6.7056   -4.5914   27.2237 C   0  0  0  0  0  0  0  0  0  0  0  0
    6.9645   -5.2415   28.5677 C   0  0  0  0  0  0  0  0  0  0  0  0
    6.4822   -6.2223   28.6249 H   0  0  0  0  0  0  0  0  0  0  0  0
    8.0392   -5.4178   28.7065 H   0  0  0  0  0  0  0  0  0  0  0  0
    6.6019   -4.6286   29.4028 H   0  0  0  0  0  0  0  0  0  0  0  0
    6.0363   -5.2918   26.2053 C   0  0  0  0  0  0  0  0  0  0  0  0
    5.6056   -6.2666   26.4357 H   0  0  0  0  0  0  0  0  0  0  0  0
    5.8823   -4.7457   24.9246 C   0  0  0  0  0  0  0  0  0  0  0  0
    5.3744   -5.2819   24.1264 H   0  0  0  0  0  0  0  0  0  0  0  0
    8.6019   -2.1090   22.9503 C   0  0  0  0  0  0  0  0  0  0  0  0
    9.0608   -2.6722   23.7554 H   0  0  0  0  0  0  0  0  0  0  0  0
    9.3742   -1.2717   22.1625 N   0  0  0  0  0  0  0  0  0  0  0  0
   10.3685   -1.0819   22.2558 H   0  0  0  0  0  0  0  0  0  0  0  0
    8.8713   -0.5183   21.1102 C   0  0  0  0  0  0  0  0  0  0  0  0
    9.6610    0.1890   20.5029 O   0  0  0  0  0  0  0  0  0  0  0  0
    5.4073    0.5945   20.0954 C   0  0  0  0  0  0  0  0  0  0  0  0
    4.9512    0.5260   21.0861 H   0  0  0  0  0  0  0  0  0  0  0  0
    4.7876    1.2861   19.0572 C   0  0  0  0  0  0  0  0  0  0  0  0
    3.8553    1.8191   19.2120 H   0  0  0  0  0  0  0  0  0  0  0  0
  1  2  1  0
  2  3  2  0
  3  4  1  0
  4  5  1  0
  4  6  2  0
  6  7  1  0
  7  8  2  0
  8  9  1  0
  9 10  1  0
 10 11  1  0
 10 12  1  0
 12 13  2  0
 13 14  1  0
 13 15  1  0
 15 16  1  0
 15 17  2  0
 17 18  1  0
 18 19  1  0
 18 20  1  0
 18 21  1  0
 17 22  1  0
 22 23  1  0
 22 24  2  0
 24 25  1  0
  9 26  2  0
 26 27  1  0
 26 28  1  0
 28 29  1  0
 28 30  1  0
 30 31  2  0
  6 32  1  0
 32 33  1  0
 32 34  2  0
 34 35  1  0
 34  2  1  0
 30  7  1  0
 24 12  1  0
M  END
>  <cnnaffinity>  (1) 
-5.42793

>  <filename>  (1) 
Cc1ccc(Nc2c[nH]c(=O)c(-c3cccnc3)n2)cc1

$$$$
