
     RDKit          3D

 33 35  0  0  0  0  0  0  0  0999 V2000
   10.5918   -2.0360   21.7405 C   0  0  0  0  0  0  0  0  0  0  0  0
    9.1569   -1.6878   21.9311 C   0  0  0  0  0  0  0  0  0  0  0  0
    8.5034   -1.9592   23.1208 C   0  0  0  0  0  0  0  0  0  0  0  0
    7.2299   -1.4197   23.2538 C   0  0  0  0  0  0  0  0  0  0  0  0
    6.4855   -1.3564   24.8711 S   0  0  0  0  0  0  0  0  0  0  0  0
    7.3108    0.1529   25.3737 C   0  0  0  0  0  0  0  0  0  0  0  0
    6.6841    1.3846   25.1384 C   0  0  0  0  0  0  0  0  0  0  0  0
    7.3428    2.5798   25.4333 C   0  0  0  0  0  0  0  0  0  0  0  0
    8.6465    2.5286   25.9195 C   0  0  0  0  0  0  0  0  0  0  0  0
    9.2696    3.6885   26.1766 F   0  0  0  0  0  0  0  0  0  0  0  0
    9.3131    1.3208   26.1176 C   0  0  0  0  0  0  0  0  0  0  0  0
    8.6297    0.1306   25.8550 C   0  0  0  0  0  0  0  0  0  0  0  0
    9.1419   -0.8186   25.9983 H   0  0  0  0  0  0  0  0  0  0  0  0
   10.3422    1.3048   26.4566 H   0  0  0  0  0  0  0  0  0  0  0  0
    6.8643    3.5424   25.2993 H   0  0  0  0  0  0  0  0  0  0  0  0
    5.6931    1.3951   24.6896 H   0  0  0  0  0  0  0  0  0  0  0  0
    6.6126   -0.8089   22.2555 N   0  0  0  0  0  0  0  0  0  0  0  0
    7.2869   -0.6746   21.1148 C   0  0  0  0  0  0  0  0  0  0  0  0
    6.6024    0.0136   20.0123 C   0  0  0  0  0  0  0  0  0  0  0  0
    5.3761    0.6845   20.1719 C   0  0  0  0  0  0  0  0  0  0  0  0
    4.8225    1.3147   19.0603 C   0  0  0  0  0  0  0  0  0  0  0  0
    5.5003    1.2455   17.8369 C   0  0  0  0  0  0  0  0  0  0  0  0
    6.6578    0.5943   17.6712 N   0  0  0  0  0  0  0  0  0  0  0  0
    7.1954   -0.0024   18.7403 C   0  0  0  0  0  0  0  0  0  0  0  0
    8.1327   -0.5228   18.5661 H   0  0  0  0  0  0  0  0  0  0  0  0
    5.0876    1.7208   16.9503 H   0  0  0  0  0  0  0  0  0  0  0  0
    3.8851    1.8579   19.1204 H   0  0  0  0  0  0  0  0  0  0  0  0
    4.8717    0.7034   21.1408 H   0  0  0  0  0  0  0  0  0  0  0  0
    8.5359   -1.0883   20.9110 N   0  0  0  0  0  0  0  0  0  0  0  0
    8.9930   -2.4497   23.9456 H   0  0  0  0  0  0  0  0  0  0  0  0
   10.9259   -2.8289   22.4157 H   0  0  0  0  0  0  0  0  0  0  0  0
   11.2362   -1.1747   21.9105 H   0  0  0  0  0  0  0  0  0  0  0  0
   10.7108   -2.3390   20.7089 H   0  0  0  0  0  0  0  0  0  0  0  0
  1  2  1  0
  2  3  2  0
  3  4  1  0
  4  5  1  0
  5  6  1  0
  6  7  2  0
  7  8  1  0
  8  9  2  0
  9 10  1  0
  9 11  1  0
 11 12  2  0
 12 13  1  0
 11 14  1  0
  8 15  1  0
  7 16  1  0
  4 17  2  0
 17 18  1  0
 18 19  1  0
 19 20  2  0
 20 21  1  0
 21 22  2  0
 22 23  1  0
 23 24  2  0
 24 25  1  0
 22 26  1  0
 21 27  1  0
 20 28  1  0
 18 29  2  0
  3 30  1  0
  1 31  1  0
  1 32  1  0
  1 33  1  0
 29  2  1  0
 12  6  1  0
 24 19  1  0
M  END
>  <cnnaffinity>  (1) 
-5.15374

>  <filename>  (1) 
Cc1cc(Sc2ccc(F)cc2)nc(-c2cccnc2)n1

$$$$
