
     RDKit          3D

 45 49  0  0  0  0  0  0  0  0999 V2000
   11.8948    0.9019   24.3012 C   0  0  0  0  0  0  0  0  0  0  0  0
   12.1917    1.8111   23.1233 C   0  0  0  0  0  0  0  0  0  0  0  0
   13.3148    2.6436   23.1974 C   0  0  0  0  0  0  0  0  0  0  0  0
   13.5290    3.6479   22.2617 C   0  0  0  0  0  0  0  0  0  0  0  0
   14.5571    4.4959   22.4397 F   0  0  0  0  0  0  0  0  0  0  0  0
   12.7175    3.7744   21.1443 C   0  0  0  0  0  0  0  0  0  0  0  0
   11.6549    2.8813   20.9976 C   0  0  0  0  0  0  0  0  0  0  0  0
   11.3213    2.0038   22.0276 C   0  0  0  0  0  0  0  0  0  0  0  0
    9.9721    1.5042   22.0567 N   0  0  0  0  0  0  0  0  0  0  0  0
    9.5221    0.5708   21.1950 N   0  0  0  0  0  0  0  0  0  0  0  0
    8.3080    0.3098   21.6449 C   0  0  0  0  0  0  0  0  0  0  0  0
    7.4077   -0.6795   20.9646 C   0  0  0  0  0  0  0  0  0  0  0  0
    6.6268   -0.0491   19.8253 C   0  0  0  0  0  0  0  0  0  0  0  0
    5.4278    0.6207   20.0880 C   0  0  0  0  0  0  0  0  0  0  0  0
    4.7984    1.3052   19.0481 C   0  0  0  0  0  0  0  0  0  0  0  0
    5.3955    1.3029   17.7836 C   0  0  0  0  0  0  0  0  0  0  0  0
    6.5412    0.6605   17.5084 N   0  0  0  0  0  0  0  0  0  0  0  0
    7.1317    0.0077   18.5165 C   0  0  0  0  0  0  0  0  0  0  0  0
    8.0734   -0.4913   18.2843 H   0  0  0  0  0  0  0  0  0  0  0  0
    4.9335    1.8332   16.9524 H   0  0  0  0  0  0  0  0  0  0  0  0
    3.8753    1.8489   19.2085 H   0  0  0  0  0  0  0  0  0  0  0  0
    5.0131    0.6157   21.0988 H   0  0  0  0  0  0  0  0  0  0  0  0
    6.7169   -1.0795   21.7124 H   0  0  0  0  0  0  0  0  0  0  0  0
    8.0259   -1.5071   20.6054 H   0  0  0  0  0  0  0  0  0  0  0  0
    7.9322    1.0400   22.7133 N   0  0  0  0  0  0  0  0  0  0  0  0
    8.9782    1.8357   22.9376 C   0  0  0  0  0  0  0  0  0  0  0  0
    9.0840    2.9504   23.9220 C   0  0  0  0  0  0  0  0  0  0  0  0
   10.0170    3.9008   23.7465 N   0  0  0  0  0  0  0  0  0  0  0  0
   10.1014    4.9325   24.6042 C   0  0  0  0  0  0  0  0  0  0  0  0
    9.2939    5.1095   25.7177 C   0  0  0  0  0  0  0  0  0  0  0  0
    8.3213    4.1091   25.9237 C   0  0  0  0  0  0  0  0  0  0  0  0
    8.1966    3.0244   25.0367 C   0  0  0  0  0  0  0  0  0  0  0  0
    7.1273    2.2512   25.5736 C   0  0  0  0  0  0  0  0  0  0  0  0
    6.6400    2.8001   26.6702 N   0  0  0  0  0  0  0  0  0  0  0  0
    7.3736    3.9217   26.8709 N   0  0  0  0  0  0  0  0  0  0  0  0
    7.1823    4.5342   27.6509 H   0  0  0  0  0  0  0  0  0  0  0  0
    6.7379    1.3342   25.1494 H   0  0  0  0  0  0  0  0  0  0  0  0
    9.4132    5.9634   26.3681 H   0  0  0  0  0  0  0  0  0  0  0  0
   10.8926    5.6401   24.3690 H   0  0  0  0  0  0  0  0  0  0  0  0
   11.0251    2.9283   20.1228 H   0  0  0  0  0  0  0  0  0  0  0  0
   12.8979    4.5676   20.4283 H   0  0  0  0  0  0  0  0  0  0  0  0
   13.9734    2.5397   24.0400 H   0  0  0  0  0  0  0  0  0  0  0  0
   11.2039    0.0986   24.0214 H   0  0  0  0  0  0  0  0  0  0  0  0
   11.4165    1.4949   25.0957 H   0  0  0  0  0  0  0  0  0  0  0  0
   12.8183    0.4841   24.7258 H   0  0  0  0  0  0  0  0  0  0  0  0
  1  2  1  0
  2  3  2  0
  3  4  1  0
  4  5  1  0
  4  6  2  0
  6  7  1  0
  7  8  2  0
  8  9  1  0
  9 10  1  0
 10 11  2  0
 11 12  1  0
 12 13  1  0
 13 14  2  0
 14 15  1  0
 15 16  2  0
 16 17  1  0
 17 18  2  0
 18 19  1  0
 16 20  1  0
 15 21  1  0
 14 22  1  0
 12 23  1  0
 12 24  1  0
 11 25  1  0
 25 26  2  0
 26 27  1  0
 27 28  2  0
 28 29  1  0
 29 30  2  0
 30 31  1  0
 31 32  2  0
 32 33  1  0
 33 34  2  0
 34 35  1  0
 35 36  1  0
 33 37  1  0
 30 38  1  0
 29 39  1  0
  7 40  1  0
  6 41  1  0
  3 42  1  0
  1 43  1  0
  1 44  1  0
  1 45  1  0
  8  2  1  0
 26  9  1  0
 32 27  1  0
 18 13  1  0
 35 31  1  0
M  END
>  <cnnaffinity>  (1) 
-6.40751

>  <filename>  (1) 
Cc1cc(F)ccc1-n1nc(Cc2cccnc2)nc1-c1nccc2[nH]ncc12

$$$$
