
     RDKit          3D

 39 41  0  0  0  0  0  0  0  0999 V2000
    5.0208   -2.7207   28.9630 C   0  0  0  0  0  0  0  0  0  0  0  0
    4.8787   -1.3678   28.2945 C   0  0  0  0  0  0  0  0  0  0  0  0
    3.6179   -0.7551   28.2005 C   0  0  0  0  0  0  0  0  0  0  0  0
    3.3864    0.4223   27.6081 N   0  0  0  0  0  0  0  0  0  0  0  0
    4.4297    1.0469   27.0557 C   0  0  0  0  0  0  0  0  0  0  0  0
    5.7469    0.5608   27.0893 C   0  0  0  0  0  0  0  0  0  0  0  0
    6.8603    1.3042   26.3640 C   0  0  0  0  0  0  0  0  0  0  0  0
    6.8860    1.0194   24.8553 C   0  0  0  0  0  0  0  0  0  0  0  0
    6.2724    1.6900   24.0594 O   0  0  0  0  0  0  0  0  0  0  0  0
    7.6675   -0.0564   24.5543 N   0  0  0  0  0  0  0  0  0  0  0  0
    7.8084   -0.6423   23.3267 C   0  0  0  0  0  0  0  0  0  0  0  0
    8.5755   -1.8149   23.2259 C   0  0  0  0  0  0  0  0  0  0  0  0
    8.7939   -2.3214   21.9483 C   0  0  0  0  0  0  0  0  0  0  0  0
    8.2338   -1.6316   20.8684 C   0  0  0  0  0  0  0  0  0  0  0  0
    7.3898   -0.5434   21.1101 C   0  0  0  0  0  0  0  0  0  0  0  0
    6.6250    0.1303   20.0352 C   0  0  0  0  0  0  0  0  0  0  0  0
    5.3998    0.7916   20.2376 C   0  0  0  0  0  0  0  0  0  0  0  0
    4.7761    1.3559   19.1256 C   0  0  0  0  0  0  0  0  0  0  0  0
    5.4113    1.2877   17.8776 C   0  0  0  0  0  0  0  0  0  0  0  0
    6.5929    0.6853   17.6826 N   0  0  0  0  0  0  0  0  0  0  0  0
    7.1677    0.1258   18.7469 C   0  0  0  0  0  0  0  0  0  0  0  0
    8.1315   -0.3466   18.5715 H   0  0  0  0  0  0  0  0  0  0  0  0
    4.9565    1.7345   16.9975 H   0  0  0  0  0  0  0  0  0  0  0  0
    3.8196    1.8606   19.2053 H   0  0  0  0  0  0  0  0  0  0  0  0
    4.9692    0.8726   21.2417 H   0  0  0  0  0  0  0  0  0  0  0  0
    7.2032   -0.0429   22.3232 N   0  0  0  0  0  0  0  0  0  0  0  0
    8.4768   -1.8888   19.8566 H   0  0  0  0  0  0  0  0  0  0  0  0
    9.3873   -3.2218   21.7877 H   0  0  0  0  0  0  0  0  0  0  0  0
    8.9933   -2.2765   24.1156 H   0  0  0  0  0  0  0  0  0  0  0  0
    8.0529   -0.5772   25.3074 H   0  0  0  0  0  0  0  0  0  0  0  0
    6.7382    2.3820   26.4581 H   0  0  0  0  0  0  0  0  0  0  0  0
    7.8367    1.0687   26.7991 H   0  0  0  0  0  0  0  0  0  0  0  0
    5.9620   -0.6615   27.7424 C   0  0  0  0  0  0  0  0  0  0  0  0
    6.9730   -1.0657   27.8447 H   0  0  0  0  0  0  0  0  0  0  0  0
    4.2185    1.9844   26.5379 H   0  0  0  0  0  0  0  0  0  0  0  0
    2.7489   -1.2423   28.6519 H   0  0  0  0  0  0  0  0  0  0  0  0
    4.0408   -3.1701   29.1546 H   0  0  0  0  0  0  0  0  0  0  0  0
    5.5790   -3.4280   28.3361 H   0  0  0  0  0  0  0  0  0  0  0  0
    5.5254   -2.6527   29.9329 H   0  0  0  0  0  0  0  0  0  0  0  0
  1  2  1  0
  2  3  2  0
  3  4  1  0
  4  5  2  0
  5  6  1  0
  6  7  1  0
  7  8  1  0
  8  9  2  0
  8 10  1  0
 10 11  1  0
 11 12  2  0
 12 13  1  0
 13 14  2  0
 14 15  1  0
 15 16  1  0
 16 17  2  0
 17 18  1  0
 18 19  2  0
 19 20  1  0
 20 21  2  0
 21 22  1  0
 19 23  1  0
 18 24  1  0
 17 25  1  0
 15 26  2  0
 14 27  1  0
 13 28  1  0
 12 29  1  0
 10 30  1  0
  7 31  1  0
  7 32  1  0
  6 33  2  0
 33 34  1  0
  5 35  1  0
  3 36  1  0
  1 37  1  0
  1 38  1  0
  1 39  1  0
 33  2  1  0
 26 11  1  0
 21 16  1  0
M  END
>  <cnnaffinity>  (1) 
-5.06393

>  <filename>  (1) 
Cc1cncc(CC(=O)Nc2cccc(-c3cccnc3)n2)c1

$$$$
