
     RDKit          3D

 51 55  0  0  0  0  0  0  0  0999 V2000
    8.8844    1.3020   25.8709 C   0  0  0  0  0  0  0  0  0  0  0  0
    8.1454    2.5115   25.2969 C   0  0  0  0  0  0  0  0  0  0  0  0
    6.6169    2.2984   25.2257 C   0  0  0  0  0  0  0  0  0  0  0  0
    5.8904    3.2902   24.2804 C   0  0  0  0  0  0  0  0  0  0  0  0
    6.6998    4.5713   24.0405 C   0  0  0  0  0  0  0  0  0  0  0  0
    8.0450    4.2385   23.3657 C   0  0  0  0  0  0  0  0  0  0  0  0
    8.7395    2.9736   23.9456 C   0  0  0  0  0  0  0  0  0  0  0  0
    8.8031    1.8849   22.9468 N   0  0  0  0  0  0  0  0  0  0  0  0
    7.7144    1.1714   22.5704 N   0  0  0  0  0  0  0  0  0  0  0  0
    8.2131    0.2844   21.7253 C   0  0  0  0  0  0  0  0  0  0  0  0
    7.3530   -0.6962   20.9828 C   0  0  0  0  0  0  0  0  0  0  0  0
    6.5939   -0.0543   19.8297 C   0  0  0  0  0  0  0  0  0  0  0  0
    5.3940    0.6248   20.0736 C   0  0  0  0  0  0  0  0  0  0  0  0
    4.7817    1.3107   19.0234 C   0  0  0  0  0  0  0  0  0  0  0  0
    5.3960    1.3079   17.7687 C   0  0  0  0  0  0  0  0  0  0  0  0
    6.5411    0.6572   17.5084 N   0  0  0  0  0  0  0  0  0  0  0  0
    7.1155    0.0008   18.5247 C   0  0  0  0  0  0  0  0  0  0  0  0
    8.0547   -0.5035   18.2912 H   0  0  0  0  0  0  0  0  0  0  0  0
    4.9486    1.8506   16.9368 H   0  0  0  0  0  0  0  0  0  0  0  0
    3.8553    1.8542   19.1689 H   0  0  0  0  0  0  0  0  0  0  0  0
    4.9592    0.6327   21.0761 H   0  0  0  0  0  0  0  0  0  0  0  0
    7.9967   -1.5061   20.6273 H   0  0  0  0  0  0  0  0  0  0  0  0
    6.6476   -1.1333   21.6967 H   0  0  0  0  0  0  0  0  0  0  0  0
    9.5507    0.3640   21.5447 N   0  0  0  0  0  0  0  0  0  0  0  0
    9.8857    1.3981   22.2957 C   0  0  0  0  0  0  0  0  0  0  0  0
   11.2187    2.0057   22.4121 C   0  0  0  0  0  0  0  0  0  0  0  0
   12.3400    1.1421   22.5832 C   0  0  0  0  0  0  0  0  0  0  0  0
   13.6137    1.6558   22.7573 C   0  0  0  0  0  0  0  0  0  0  0  0
   13.7519    3.0591   22.6215 C   0  0  0  0  0  0  0  0  0  0  0  0
   14.8079    3.8995   22.5499 N   0  0  0  0  0  0  0  0  0  0  0  0
   14.4292    5.1744   22.3273 N   0  0  0  0  0  0  0  0  0  0  0  0
   13.1485    5.2027   22.2300 N   0  0  0  0  0  0  0  0  0  0  0  0
   12.6715    3.9195   22.3930 C   0  0  0  0  0  0  0  0  0  0  0  0
   11.3754    3.3936   22.3427 C   0  0  0  0  0  0  0  0  0  0  0  0
   10.5453    4.0850   22.2440 H   0  0  0  0  0  0  0  0  0  0  0  0
   15.7699    3.6658   22.7338 H   0  0  0  0  0  0  0  0  0  0  0  0
   14.4672    1.0117   22.9583 H   0  0  0  0  0  0  0  0  0  0  0  0
   12.1798    0.0608   22.5377 H   0  0  0  0  0  0  0  0  0  0  0  0
    9.7746    3.2171   24.1729 H   0  0  0  0  0  0  0  0  0  0  0  0
    7.8747    4.0768   22.2924 H   0  0  0  0  0  0  0  0  0  0  0  0
    8.7272    5.0977   23.4528 H   0  0  0  0  0  0  0  0  0  0  0  0
    6.1406    5.2681   23.4050 H   0  0  0  0  0  0  0  0  0  0  0  0
    6.8803    5.0847   24.9972 H   0  0  0  0  0  0  0  0  0  0  0  0
    5.7223    2.8050   23.3097 H   0  0  0  0  0  0  0  0  0  0  0  0
    4.9048    3.5315   24.6916 H   0  0  0  0  0  0  0  0  0  0  0  0
    6.2297    2.3918   26.2489 H   0  0  0  0  0  0  0  0  0  0  0  0
    6.4043    1.2748   24.8964 H   0  0  0  0  0  0  0  0  0  0  0  0
    8.3307    3.3615   25.9741 H   0  0  0  0  0  0  0  0  0  0  0  0
    9.9602    1.5005   25.9662 H   0  0  0  0  0  0  0  0  0  0  0  0
    8.4955    1.0538   26.8648 H   0  0  0  0  0  0  0  0  0  0  0  0
    8.7611    0.4269   25.2215 H   0  0  0  0  0  0  0  0  0  0  0  0
  1  2  1  0
  2  3  1  0
  3  4  1  0
  4  5  1  0
  5  6  1  0
  6  7  1  0
  7  8  1  0
  8  9  1  0
  9 10  2  0
 10 11  1  0
 11 12  1  0
 12 13  2  0
 13 14  1  0
 14 15  2  0
 15 16  1  0
 16 17  2  0
 17 18  1  0
 15 19  1  0
 14 20  1  0
 13 21  1  0
 11 22  1  0
 11 23  1  0
 10 24  1  0
 24 25  2  0
 25 26  1  0
 26 27  2  0
 27 28  1  0
 28 29  2  0
 29 30  1  0
 30 31  1  0
 31 32  2  0
 32 33  1  0
 33 34  2  0
 34 35  1  0
 30 36  1  0
 28 37  1  0
 27 38  1  0
  7 39  1  0
  6 40  1  0
  6 41  1  0
  5 42  1  0
  5 43  1  0
  4 44  1  0
  4 45  1  0
  3 46  1  0
  3 47  1  0
  2 48  1  0
  1 49  1  0
  1 50  1  0
  1 51  1  0
  7  2  1  0
 25  8  1  0
 34 26  1  0
 17 12  1  0
 33 29  1  0
M  END
>  <cnnaffinity>  (1) 
-6.64692

>  <filename>  (1) 
CC1CCCCC1n1nc(Cc2cccnc2)nc1-c1ccc2[nH]nnc2c1

$$$$
