
     RDKit          3D

 36 38  0  0  0  0  0  0  0  0999 V2000
    4.9207    1.8004   16.9787 H   0  0  0  0  0  0  0  0  0  0  0  0
    5.3998    1.3052   17.8207 C   0  0  0  0  0  0  0  0  0  0  0  0
    6.5655    0.6924   17.5582 N   0  0  0  0  0  0  0  0  0  0  0  0
    7.1888    0.0886   18.5776 C   0  0  0  0  0  0  0  0  0  0  0  0
    8.1237   -0.4203   18.3445 H   0  0  0  0  0  0  0  0  0  0  0  0
    6.6719    0.0334   19.8865 C   0  0  0  0  0  0  0  0  0  0  0  0
    7.3506   -0.6815   20.9345 N   0  0  0  0  0  0  0  0  0  0  0  0
    8.6281   -0.2790   21.2727 C   0  0  0  0  0  0  0  0  0  0  0  0
    9.0320    0.5613   20.7228 H   0  0  0  0  0  0  0  0  0  0  0  0
    9.3581   -0.8756   22.2618 C   0  0  0  0  0  0  0  0  0  0  0  0
   10.6391   -0.4363   22.6038 N   0  0  0  0  0  0  0  0  0  0  0  0
   11.2954   -1.1199   22.9431 H   0  0  0  0  0  0  0  0  0  0  0  0
   11.1255    0.8762   22.5448 C   0  0  0  0  0  0  0  0  0  0  0  0
   12.4997    1.0981   22.3618 C   0  0  0  0  0  0  0  0  0  0  0  0
   13.1503    0.2443   22.1763 H   0  0  0  0  0  0  0  0  0  0  0  0
   13.0028    2.4060   22.3806 C   0  0  0  0  0  0  0  0  0  0  0  0
   14.0786    2.5919   22.3814 H   0  0  0  0  0  0  0  0  0  0  0  0
   12.1480    3.5198   22.4457 C   0  0  0  0  0  0  0  0  0  0  0  0
   12.7059    4.9227   22.3356 C   0  0  0  0  0  0  0  0  0  0  0  0
   13.0631    5.2704   23.3094 H   0  0  0  0  0  0  0  0  0  0  0  0
   13.5579    4.9769   21.6485 H   0  0  0  0  0  0  0  0  0  0  0  0
   11.9590    5.6422   21.9857 H   0  0  0  0  0  0  0  0  0  0  0  0
   10.7812    3.2822   22.6674 C   0  0  0  0  0  0  0  0  0  0  0  0
   10.1064    4.1288   22.8029 H   0  0  0  0  0  0  0  0  0  0  0  0
   10.2764    1.9763   22.7416 C   0  0  0  0  0  0  0  0  0  0  0  0
    9.2315    1.7805   22.9714 H   0  0  0  0  0  0  0  0  0  0  0  0
    8.7762   -1.9858   22.9563 C   0  0  0  0  0  0  0  0  0  0  0  0
    9.3603   -2.4564   23.7472 H   0  0  0  0  0  0  0  0  0  0  0  0
    7.5145   -2.4015   22.6509 C   0  0  0  0  0  0  0  0  0  0  0  0
    7.0110   -3.2226   23.1399 H   0  0  0  0  0  0  0  0  0  0  0  0
    6.7084   -1.7811   21.6042 C   0  0  0  0  0  0  0  0  0  0  0  0
    5.6004   -2.1859   21.2911 O   0  0  0  0  0  0  0  0  0  0  0  0
    5.4547    0.6671   20.1464 C   0  0  0  0  0  0  0  0  0  0  0  0
    5.0321    0.6043   21.1474 H   0  0  0  0  0  0  0  0  0  0  0  0
    4.8149    1.3229   19.0915 C   0  0  0  0  0  0  0  0  0  0  0  0
    3.8755    1.8379   19.2435 H   0  0  0  0  0  0  0  0  0  0  0  0
  1  2  1  0
  2  3  2  0
  3  4  1  0
  4  5  1  0
  4  6  2  0
  6  7  1  0
  7  8  1  0
  8  9  1  0
  8 10  2  0
 10 11  1  0
 11 12  1  0
 11 13  1  0
 13 14  2  0
 14 15  1  0
 14 16  1  0
 16 17  1  0
 16 18  2  0
 18 19  1  0
 19 20  1  0
 19 21  1  0
 19 22  1  0
 18 23  1  0
 23 24  1  0
 23 25  2  0
 25 26  1  0
 10 27  1  0
 27 28  1  0
 27 29  2  0
 29 30  1  0
 29 31  1  0
 31 32  2  0
  6 33  1  0
 33 34  1  0
 33 35  2  0
 35 36  1  0
 35  2  1  0
 31  7  1  0
 25 13  1  0
M  END
>  <cnnaffinity>  (1) 
-5.30766

>  <filename>  (1) 
Cc1ccc(Nc2ccc(=O)n(-c3cccnc3)c2)cc1

$$$$
