
     RDKit          3D

 49 52  0  0  0  0  0  0  0  0999 V2000
    7.1466    4.1808   24.8955 C   0  0  0  0  0  0  0  0  0  0  0  0
    8.5259    4.2946   24.2039 C   0  0  0  0  0  0  0  0  0  0  0  0
    9.6848    3.9010   25.1370 C   0  0  0  0  0  0  0  0  0  0  0  0
    9.8283    2.3644   25.2237 C   0  0  0  0  0  0  0  0  0  0  0  0
   10.2190    1.7710   23.8657 C   0  0  0  0  0  0  0  0  0  0  0  0
    9.4324    2.3800   22.7943 N   0  0  0  0  0  0  0  0  0  0  0  0
    9.1563    1.8430   21.5577 C   0  0  0  0  0  0  0  0  0  0  0  0
    9.6118    0.5233   21.0125 C   0  0  0  0  0  0  0  0  0  0  0  0
    8.6782   -0.5837   21.3996 C   0  0  0  0  0  0  0  0  0  0  0  0
    8.8902   -1.4369   22.3758 N   0  0  0  0  0  0  0  0  0  0  0  0
    7.6694   -2.0165   22.5484 C   0  0  0  0  0  0  0  0  0  0  0  0
    7.3843   -2.8794   23.7346 C   0  0  0  0  0  0  0  0  0  0  0  0
    6.5290   -2.2125   24.8502 C   0  0  0  0  0  0  0  0  0  0  0  0
    7.0907   -0.9785   25.5396 C   0  0  0  0  0  0  0  0  0  0  0  0
    8.3239   -1.1816   26.0393 F   0  0  0  0  0  0  0  0  0  0  0  0
    6.2916   -0.6221   26.5630 F   0  0  0  0  0  0  0  0  0  0  0  0
    7.1686    0.0920   24.7181 F   0  0  0  0  0  0  0  0  0  0  0  0
    5.5483   -1.9148   24.4679 H   0  0  0  0  0  0  0  0  0  0  0  0
    6.3531   -2.9363   25.6525 H   0  0  0  0  0  0  0  0  0  0  0  0
    6.8747   -3.7837   23.3871 H   0  0  0  0  0  0  0  0  0  0  0  0
    8.3548   -3.1861   24.1342 H   0  0  0  0  0  0  0  0  0  0  0  0
    6.7481   -1.6326   21.6915 N   0  0  0  0  0  0  0  0  0  0  0  0
    7.4009   -0.7169   20.9216 N   0  0  0  0  0  0  0  0  0  0  0  0
    6.6941   -0.0356   19.8873 C   0  0  0  0  0  0  0  0  0  0  0  0
    5.4687    0.5971   20.1592 C   0  0  0  0  0  0  0  0  0  0  0  0
    4.8337    1.2766   19.1166 C   0  0  0  0  0  0  0  0  0  0  0  0
    5.4195    1.2772   17.8466 C   0  0  0  0  0  0  0  0  0  0  0  0
    6.5699    0.6416   17.5698 N   0  0  0  0  0  0  0  0  0  0  0  0
    7.1879    0.0072   18.5733 C   0  0  0  0  0  0  0  0  0  0  0  0
    8.1207   -0.5000   18.3238 H   0  0  0  0  0  0  0  0  0  0  0  0
    4.9474    1.8048   17.0209 H   0  0  0  0  0  0  0  0  0  0  0  0
    3.9010    1.8098   19.2763 H   0  0  0  0  0  0  0  0  0  0  0  0
    5.0399    0.5534   21.1608 H   0  0  0  0  0  0  0  0  0  0  0  0
    9.6197    0.5825   19.9241 H   0  0  0  0  0  0  0  0  0  0  0  0
   10.6183    0.2538   21.3425 H   0  0  0  0  0  0  0  0  0  0  0  0
    8.1550    2.6137   21.0642 C   0  0  0  0  0  0  0  0  0  0  0  0
    7.8138    3.6286   21.9031 N   0  0  0  0  0  0  0  0  0  0  0  0
    8.5933    3.4680   22.9443 C   0  0  0  0  0  0  0  0  0  0  0  0
    7.6143    2.3892   20.1613 H   0  0  0  0  0  0  0  0  0  0  0  0
   11.2851    1.9229   23.6612 H   0  0  0  0  0  0  0  0  0  0  0  0
   10.0377    0.6900   23.8365 H   0  0  0  0  0  0  0  0  0  0  0  0
    8.8730    1.9300   25.5405 H   0  0  0  0  0  0  0  0  0  0  0  0
   10.5744    2.0429   25.9563 H   0  0  0  0  0  0  0  0  0  0  0  0
    9.5285    4.3435   26.1282 H   0  0  0  0  0  0  0  0  0  0  0  0
   10.6180    4.3357   24.7535 H   0  0  0  0  0  0  0  0  0  0  0  0
    8.6530    5.3384   23.8846 H   0  0  0  0  0  0  0  0  0  0  0  0
    6.9088    3.1389   25.1474 H   0  0  0  0  0  0  0  0  0  0  0  0
    6.3613    4.5551   24.2315 H   0  0  0  0  0  0  0  0  0  0  0  0
    7.1213    4.7738   25.8183 H   0  0  0  0  0  0  0  0  0  0  0  0
  1  2  1  0
  2  3  1  0
  3  4  1  0
  4  5  1  0
  5  6  1  0
  6  7  1  0
  7  8  1  0
  8  9  1  0
  9 10  2  0
 10 11  1  0
 11 12  1  0
 12 13  1  0
 13 14  1  0
 14 15  1  0
 14 16  1  0
 14 17  1  0
 13 18  1  0
 13 19  1  0
 12 20  1  0
 12 21  1  0
 11 22  2  0
 22 23  1  0
 23 24  1  0
 24 25  2  0
 25 26  1  0
 26 27  2  0
 27 28  1  0
 28 29  2  0
 29 30  1  0
 27 31  1  0
 26 32  1  0
 25 33  1  0
  8 34  1  0
  8 35  1  0
  7 36  2  0
 36 37  1  0
 37 38  2  0
 36 39  1  0
  5 40  1  0
  5 41  1  0
  4 42  1  0
  4 43  1  0
  3 44  1  0
  3 45  1  0
  2 46  1  0
  1 47  1  0
  1 48  1  0
  1 49  1  0
 38  2  1  0
 38  6  1  0
 23  9  1  0
 29 24  1  0
M  END
>  <cnnaffinity>  (1) 
-6.54221

>  <filename>  (1) 
CC1CCCn2c(Cc3nc(CCC(F)(F)F)nn3-c3cccnc3)cnc21

$$$$
