
     RDKit          3D

 48 52  0  0  0  0  0  0  0  0999 V2000
    9.9495    5.3046   25.3488 C   0  0  0  0  0  0  0  0  0  0  0  0
    8.8555    5.3851   24.3055 C   0  0  0  0  0  0  0  0  0  0  0  0
    8.4211    6.6427   23.8545 C   0  0  0  0  0  0  0  0  0  0  0  0
    7.4063    6.7696   22.8971 C   0  0  0  0  0  0  0  0  0  0  0  0
    6.8037    5.6203   22.3800 C   0  0  0  0  0  0  0  0  0  0  0  0
    7.2317    4.3605   22.8110 C   0  0  0  0  0  0  0  0  0  0  0  0
    8.2650    4.2248   23.7500 C   0  0  0  0  0  0  0  0  0  0  0  0
    8.6991    2.8155   24.1730 C   0  0  0  0  0  0  0  0  0  0  0  0
    8.7880    1.8537   23.0755 N   0  0  0  0  0  0  0  0  0  0  0  0
    7.7480    1.0292   22.8048 N   0  0  0  0  0  0  0  0  0  0  0  0
    8.1832    0.3341   21.7732 C   0  0  0  0  0  0  0  0  0  0  0  0
    7.3805   -0.6787   21.0292 C   0  0  0  0  0  0  0  0  0  0  0  0
    6.6232   -0.0344   19.8761 C   0  0  0  0  0  0  0  0  0  0  0  0
    5.4263    0.6436   20.1285 C   0  0  0  0  0  0  0  0  0  0  0  0
    4.7894    1.3146   19.0814 C   0  0  0  0  0  0  0  0  0  0  0  0
    5.3873    1.3028   17.8173 C   0  0  0  0  0  0  0  0  0  0  0  0
    6.5473    0.6806   17.5554 N   0  0  0  0  0  0  0  0  0  0  0  0
    7.1459    0.0450   18.5716 C   0  0  0  0  0  0  0  0  0  0  0  0
    8.1046   -0.4205   18.3355 H   0  0  0  0  0  0  0  0  0  0  0  0
    4.9196    1.8135   16.9762 H   0  0  0  0  0  0  0  0  0  0  0  0
    3.8609    1.8551   19.2336 H   0  0  0  0  0  0  0  0  0  0  0  0
    5.0174    0.6484   21.1400 H   0  0  0  0  0  0  0  0  0  0  0  0
    8.0904   -1.4272   20.6671 H   0  0  0  0  0  0  0  0  0  0  0  0
    6.7010   -1.1626   21.7374 H   0  0  0  0  0  0  0  0  0  0  0  0
    9.4345    0.6404   21.3687 N   0  0  0  0  0  0  0  0  0  0  0  0
    9.8046    1.5853   22.2194 C   0  0  0  0  0  0  0  0  0  0  0  0
   11.1168    2.2526   22.3138 C   0  0  0  0  0  0  0  0  0  0  0  0
   11.3093    3.6583   22.3085 C   0  0  0  0  0  0  0  0  0  0  0  0
   12.5980    4.2085   22.3344 C   0  0  0  0  0  0  0  0  0  0  0  0
   13.7279    3.4958   22.4918 N   0  0  0  0  0  0  0  0  0  0  0  0
   13.5056    2.1840   22.5699 C   0  0  0  0  0  0  0  0  0  0  0  0
   12.2883    1.4824   22.4393 C   0  0  0  0  0  0  0  0  0  0  0  0
   12.5144    0.1107   22.4714 N   0  0  0  0  0  0  0  0  0  0  0  0
   13.8036    0.0110   22.5899 C   0  0  0  0  0  0  0  0  0  0  0  0
   14.4619    1.2117   22.6966 N   0  0  0  0  0  0  0  0  0  0  0  0
   15.4295    1.4280   22.5544 H   0  0  0  0  0  0  0  0  0  0  0  0
   14.3301   -0.9352   22.6073 H   0  0  0  0  0  0  0  0  0  0  0  0
   12.7224    5.2820   22.2186 H   0  0  0  0  0  0  0  0  0  0  0  0
   10.4608    4.3304   22.2993 H   0  0  0  0  0  0  0  0  0  0  0  0
    9.6748    2.8538   24.6647 H   0  0  0  0  0  0  0  0  0  0  0  0
    7.9759    2.3813   24.8694 H   0  0  0  0  0  0  0  0  0  0  0  0
    6.7760    3.4538   22.4195 H   0  0  0  0  0  0  0  0  0  0  0  0
    6.0088    5.6928   21.6393 H   0  0  0  0  0  0  0  0  0  0  0  0
    7.0851    7.7555   22.5619 H   0  0  0  0  0  0  0  0  0  0  0  0
    8.8944    7.5293   24.2703 H   0  0  0  0  0  0  0  0  0  0  0  0
    9.6514    4.6812   26.1990 H   0  0  0  0  0  0  0  0  0  0  0  0
   10.1962    6.2955   25.7390 H   0  0  0  0  0  0  0  0  0  0  0  0
   10.8659    4.8738   24.9260 H   0  0  0  0  0  0  0  0  0  0  0  0
  1  2  1  0
  2  3  2  0
  3  4  1  0
  4  5  2  0
  5  6  1  0
  6  7  2  0
  7  8  1  0
  8  9  1  0
  9 10  1  0
 10 11  2  0
 11 12  1  0
 12 13  1  0
 13 14  2  0
 14 15  1  0
 15 16  2  0
 16 17  1  0
 17 18  2  0
 18 19  1  0
 16 20  1  0
 15 21  1  0
 14 22  1  0
 12 23  1  0
 12 24  1  0
 11 25  1  0
 25 26  2  0
 26 27  1  0
 27 28  2  0
 28 29  1  0
 29 30  2  0
 30 31  1  0
 31 32  2  0
 32 33  1  0
 33 34  2  0
 34 35  1  0
 35 36  1  0
 34 37  1  0
 29 38  1  0
 28 39  1  0
  8 40  1  0
  8 41  1  0
  6 42  1  0
  5 43  1  0
  4 44  1  0
  3 45  1  0
  1 46  1  0
  1 47  1  0
  1 48  1  0
  7  2  1  0
 26  9  1  0
 32 27  1  0
 18 13  1  0
 35 31  1  0
M  END
>  <cnnaffinity>  (1) 
-6.8217

>  <filename>  (1) 
Cc1ccccc1Cn1nc(Cc2cccnc2)nc1-c1ccnc2[nH]cnc12

$$$$
