
     RDKit          3D

 50 53  0  0  0  0  0  0  0  0999 V2000
    6.2042   -6.0271   24.3278 C   0  0  0  0  0  0  0  0  0  0  0  0
    6.0795   -5.8388   23.9631 C   0  0  0  0  0  0  0  0  0  0  0  0
    7.9551   -4.0653   24.8535 C   0  0  0  0  0  0  0  0  0  0  0  0
    7.0712   -3.1346   24.5878 N   0  0  0  0  0  0  0  0  0  0  0  0
    7.5472   -1.7367   24.3341 C   0  0  0  0  0  0  0  0  0  0  0  0
    7.6069   -1.3331   22.8910 C   0  0  0  0  0  0  0  0  0  0  0  0
    6.7172   -0.6024   22.2529 N   0  0  0  0  0  0  0  0  0  0  0  0
    7.2188   -0.5258   20.9953 C   0  0  0  0  0  0  0  0  0  0  0  0
    6.5456    0.1445   19.8895 C   0  0  0  0  0  0  0  0  0  0  0  0
    5.3215    0.8159   20.0313 C   0  0  0  0  0  0  0  0  0  0  0  0
    4.7767    1.4206   18.9009 C   0  0  0  0  0  0  0  0  0  0  0  0
    5.4631    1.3270   17.6839 C   0  0  0  0  0  0  0  0  0  0  0  0
    6.6277    0.6773   17.5379 N   0  0  0  0  0  0  0  0  0  0  0  0
    7.1513    0.1053   18.6247 C   0  0  0  0  0  0  0  0  0  0  0  0
    8.0989   -0.4137   18.4890 H   0  0  0  0  0  0  0  0  0  0  0  0
    5.0607    1.7912   16.7865 H   0  0  0  0  0  0  0  0  0  0  0  0
    3.8432    1.9713   18.9472 H   0  0  0  0  0  0  0  0  0  0  0  0
    4.8206    0.8628   21.0007 H   0  0  0  0  0  0  0  0  0  0  0  0
    8.3763   -1.1456   20.8380 N   0  0  0  0  0  0  0  0  0  0  0  0
    8.6179   -1.6706   22.0566 N   0  0  0  0  0  0  0  0  0  0  0  0
    9.8141   -2.4753   22.2604 C   0  0  0  0  0  0  0  0  0  0  0  0
   11.0977   -1.7219   22.6719 C   0  0  0  0  0  0  0  0  0  0  0  0
   10.8821   -0.7580   23.8472 C   0  0  0  0  0  0  0  0  0  0  0  0
   10.6096   -1.2911   24.7647 H   0  0  0  0  0  0  0  0  0  0  0  0
   10.1007   -0.0236   23.6213 H   0  0  0  0  0  0  0  0  0  0  0  0
   11.8040   -0.2070   24.0483 H   0  0  0  0  0  0  0  0  0  0  0  0
   11.7645   -1.0274   21.4843 C   0  0  0  0  0  0  0  0  0  0  0  0
   13.0140   -0.5186   21.9274 O   0  0  0  0  0  0  0  0  0  0  0  0
   13.2767    0.2131   21.3580 H   0  0  0  0  0  0  0  0  0  0  0  0
   11.9408   -1.7648   20.6865 H   0  0  0  0  0  0  0  0  0  0  0  0
   11.1002   -0.2430   21.0846 H   0  0  0  0  0  0  0  0  0  0  0  0
   11.7986   -2.5196   22.9551 H   0  0  0  0  0  0  0  0  0  0  0  0
    9.9758   -2.9568   21.2937 H   0  0  0  0  0  0  0  0  0  0  0  0
    9.5695   -3.2460   23.0039 H   0  0  0  0  0  0  0  0  0  0  0  0
    6.8999   -1.0143   24.8316 H   0  0  0  0  0  0  0  0  0  0  0  0
    8.5410   -1.5840   24.7868 H   0  0  0  0  0  0  0  0  0  0  0  0
    5.6656   -3.3871   24.6655 C   0  0  0  0  0  0  0  0  0  0  0  0
    4.7584   -2.3443   25.0215 C   0  0  0  0  0  0  0  0  0  0  0  0
    3.3863   -2.5800   24.9955 C   0  0  0  0  0  0  0  0  0  0  0  0
    2.8862   -3.8293   24.6341 C   0  0  0  0  0  0  0  0  0  0  0  0
    3.7960   -4.8683   24.3547 C   0  0  0  0  0  0  0  0  0  0  0  0
    5.1471   -4.6342   24.4506 C   0  0  0  0  0  0  0  0  0  0  0  0
    3.3795   -5.8442   24.1069 H   0  0  0  0  0  0  0  0  0  0  0  0
    1.8039   -3.9719   24.6033 H   0  0  0  0  0  0  0  0  0  0  0  0
    2.7121   -1.7611   25.2419 H   0  0  0  0  0  0  0  0  0  0  0  0
    5.0735   -1.3438   25.3281 H   0  0  0  0  0  0  0  0  0  0  0  0
    8.9283   -3.6802   25.1609 H   0  0  0  0  0  0  0  0  0  0  0  0
    5.4795   -6.8900   23.9990 H   0  0  0  0  0  0  0  0  0  0  0  0
    7.2416   -5.9471   23.8364 H   0  0  0  0  0  0  0  0  0  0  0  0
    6.5386   -6.2767   25.4640 H   0  0  0  0  0  0  0  0  0  0  0  0
  1  2  1  0
  2  3  2  0
  3  4  1  0
  4  5  1  0
  5  6  1  0
  6  7  2  0
  7  8  1  0
  8  9  1  0
  9 10  2  0
 10 11  1  0
 11 12  2  0
 12 13  1  0
 13 14  2  0
 14 15  1  0
 12 16  1  0
 11 17  1  0
 10 18  1  0
  8 19  2  0
 19 20  1  0
 20 21  1  0
 21 22  1  0
 22 23  1  0
 23 24  1  0
 23 25  1  0
 23 26  1  0
 22 27  1  0
 27 28  1  0
 28 29  1  0
 27 30  1  0
 27 31  1  0
 22 32  1  0
 21 33  1  0
 21 34  1  0
  5 35  1  0
  5 36  1  0
  4 37  1  0
 37 38  2  0
 38 39  1  0
 39 40  2  0
 40 41  1  0
 41 42  2  0
 41 43  1  0
 40 44  1  0
 39 45  1  0
 38 46  1  0
  3 47  1  0
  1 48  1  0
  1 49  1  0
  1 50  1  0
 42  2  1  0
 20  6  1  0
 42 37  1  0
 14  9  1  0
M  END
>  <cnnaffinity>  (1) 
-6.171

>  <filename>  (1) 
Cc1cn(Cc2nc(-c3cccnc3)nn2CC(C)CO)c2ccccc12

$$$$
