
     RDKit          3D

 38 41  0  0  0  0  0  0  0  0999 V2000
    4.9147    1.8080   16.9758 H   0  0  0  0  0  0  0  0  0  0  0  0
    5.3799    1.3024   17.8222 C   0  0  0  0  0  0  0  0  0  0  0  0
    6.5430    0.6817   17.5673 N   0  0  0  0  0  0  0  0  0  0  0  0
    7.1540    0.0767   18.5906 C   0  0  0  0  0  0  0  0  0  0  0  0
    8.1038   -0.3948   18.3424 H   0  0  0  0  0  0  0  0  0  0  0  0
    6.6610    0.0351   19.9172 C   0  0  0  0  0  0  0  0  0  0  0  0
    7.4065   -0.6508   20.9879 C   0  0  0  0  0  0  0  0  0  0  0  0
    8.3190   -1.6806   20.9330 C   0  0  0  0  0  0  0  0  0  0  0  0
    8.7162   -2.1106   20.0335 H   0  0  0  0  0  0  0  0  0  0  0  0
    8.7702   -2.0891   22.1557 N   0  0  0  0  0  0  0  0  0  0  0  0
    8.1550   -1.2734   22.9681 C   0  0  0  0  0  0  0  0  0  0  0  0
    8.2407   -0.9413   24.6598 S   0  0  0  0  0  0  0  0  0  0  0  0
    7.1241    0.4039   24.3364 C   0  0  0  0  0  0  0  0  0  0  0  0
    6.7325    1.2392   25.3291 N   0  0  0  0  0  0  0  0  0  0  0  0
    5.5868    2.1285   25.0907 C   0  0  0  0  0  0  0  0  0  0  0  0
    4.6545    1.6194   25.3939 H   0  0  0  0  0  0  0  0  0  0  0  0
    5.5062    2.3363   24.0195 H   0  0  0  0  0  0  0  0  0  0  0  0
    5.7489    3.4325   25.8777 C   0  0  0  0  0  0  0  0  0  0  0  0
    6.6023    3.9922   25.4644 H   0  0  0  0  0  0  0  0  0  0  0  0
    4.8514    4.0477   25.7355 H   0  0  0  0  0  0  0  0  0  0  0  0
    5.9967    3.1844   27.3747 C   0  0  0  0  0  0  0  0  0  0  0  0
    5.1203    2.6515   27.7876 H   0  0  0  0  0  0  0  0  0  0  0  0
    6.1768    4.4931   28.1503 C   0  0  0  0  0  0  0  0  0  0  0  0
    7.0409    5.0556   27.7742 H   0  0  0  0  0  0  0  0  0  0  0  0
    5.2966    5.1392   28.0570 H   0  0  0  0  0  0  0  0  0  0  0  0
    6.3430    4.3087   29.2179 H   0  0  0  0  0  0  0  0  0  0  0  0
    7.2229    2.2679   27.5102 C   0  0  0  0  0  0  0  0  0  0  0  0
    7.4043    2.0184   28.5630 H   0  0  0  0  0  0  0  0  0  0  0  0
    8.1147    2.7969   27.1377 H   0  0  0  0  0  0  0  0  0  0  0  0
    7.0601    0.9650   26.7316 C   0  0  0  0  0  0  0  0  0  0  0  0
    7.9905    0.3877   26.7903 H   0  0  0  0  0  0  0  0  0  0  0  0
    6.2652    0.3457   27.1839 H   0  0  0  0  0  0  0  0  0  0  0  0
    6.7179    0.5558   23.1065 N   0  0  0  0  0  0  0  0  0  0  0  0
    7.3174   -0.4002   22.3515 N   0  0  0  0  0  0  0  0  0  0  0  0
    5.4288    0.6717   20.1491 C   0  0  0  0  0  0  0  0  0  0  0  0
    5.0122    0.6592   21.1543 H   0  0  0  0  0  0  0  0  0  0  0  0
    4.7865    1.3160   19.0886 C   0  0  0  0  0  0  0  0  0  0  0  0
    3.8535    1.8502   19.2302 H   0  0  0  0  0  0  0  0  0  0  0  0
  1  2  1  0
  2  3  2  0
  3  4  1  0
  4  5  1  0
  4  6  2  0
  6  7  1  0
  7  8  2  0
  8  9  1  0
  8 10  1  0
 10 11  2  0
 11 12  1  0
 12 13  1  0
 13 14  1  0
 14 15  1  0
 15 16  1  0
 15 17  1  0
 15 18  1  0
 18 19  1  0
 18 20  1  0
 18 21  1  0
 21 22  1  0
 21 23  1  0
 23 24  1  0
 23 25  1  0
 23 26  1  0
 21 27  1  0
 27 28  1  0
 27 29  1  0
 27 30  1  0
 30 31  1  0
 30 32  1  0
 13 33  2  0
 33 34  1  0
  6 35  1  0
 35 36  1  0
 35 37  2  0
 37 38  1  0
 37  2  1  0
 34  7  1  0
 34 11  1  0
 30 14  1  0
M  END
>  <cnnaffinity>  (1) 
-5.1598

>  <filename>  (1) 
CC1CCN(c2nn3c(-c4cccnc4)cnc3s2)CC1

$$$$
