
     RDKit          3D

 32 33  0  0  0  0  0  0  0  0999 V2000
    4.9668    1.8369   16.9672 H   0  0  0  0  0  0  0  0  0  0  0  0
    5.4264    1.3119   17.8036 C   0  0  0  0  0  0  0  0  0  0  0  0
    6.5771    0.6750   17.5466 N   0  0  0  0  0  0  0  0  0  0  0  0
    7.1615    0.0371   18.5709 C   0  0  0  0  0  0  0  0  0  0  0  0
    8.0929   -0.4763   18.3316 H   0  0  0  0  0  0  0  0  0  0  0  0
    6.6561   -0.0002   19.8832 C   0  0  0  0  0  0  0  0  0  0  0  0
    7.4296   -0.6953   20.9880 C   0  0  2  0  0  0  0  0  0  0  0  0
    8.3225   -1.1800   20.5829 H   0  0  0  0  0  0  0  0  0  0  0  0
    6.4427   -2.0426   21.6773 Cl  0  0  0  0  0  0  0  0  0  0  0  0
    7.8911    0.2050   22.1510 C   0  0  0  0  0  0  0  0  0  0  0  0
    8.2300   -0.4353   22.9747 H   0  0  0  0  0  0  0  0  0  0  0  0
    7.0333    0.7879   22.5267 H   0  0  0  0  0  0  0  0  0  0  0  0
    9.0022    1.0322   21.7097 N   0  0  0  0  0  0  0  0  0  0  0  0
    8.9824    1.2708   20.7299 H   0  0  0  0  0  0  0  0  0  0  0  0
    9.5411    2.0596   22.4799 C   0  0  0  0  0  0  0  0  0  0  0  0
   10.5294    2.8711   21.9046 C   0  0  0  0  0  0  0  0  0  0  0  0
   10.8869    2.6643   20.9001 H   0  0  0  0  0  0  0  0  0  0  0  0
   11.0648    3.9538   22.5984 C   0  0  0  0  0  0  0  0  0  0  0  0
   11.7661    4.6056   22.0833 H   0  0  0  0  0  0  0  0  0  0  0  0
   10.6789    4.2461   23.9133 C   0  0  0  0  0  0  0  0  0  0  0  0
   11.2716    5.4243   24.6438 C   0  0  0  0  0  0  0  0  0  0  0  0
   12.2423    5.1738   25.0864 H   0  0  0  0  0  0  0  0  0  0  0  0
   10.6173    5.7733   25.4484 H   0  0  0  0  0  0  0  0  0  0  0  0
   11.4334    6.2572   23.9523 H   0  0  0  0  0  0  0  0  0  0  0  0
    9.7231    3.4103   24.4985 C   0  0  0  0  0  0  0  0  0  0  0  0
    9.3849    3.6114   25.5102 H   0  0  0  0  0  0  0  0  0  0  0  0
    9.1523    2.3354   23.8023 C   0  0  0  0  0  0  0  0  0  0  0  0
    8.3860    1.7329   24.2732 H   0  0  0  0  0  0  0  0  0  0  0  0
    5.4358    0.6511   20.1234 C   0  0  0  0  0  0  0  0  0  0  0  0
    4.9822    0.6344   21.1174 H   0  0  0  0  0  0  0  0  0  0  0  0
    4.8178    1.3145   19.0627 C   0  0  0  0  0  0  0  0  0  0  0  0
    3.8865    1.8426   19.2025 H   0  0  0  0  0  0  0  0  0  0  0  0
  1  2  1  0
  2  3  2  0
  3  4  1  0
  4  5  1  0
  4  6  2  0
  6  7  1  0
  7  8  1  6
  7  9  1  0
  7 10  1  0
 10 11  1  0
 10 12  1  0
 10 13  1  0
 13 14  1  0
 13 15  1  0
 15 16  2  0
 16 17  1  0
 16 18  1  0
 18 19  1  0
 18 20  2  0
 20 21  1  0
 21 22  1  0
 21 23  1  0
 21 24  1  0
 20 25  1  0
 25 26  1  0
 25 27  2  0
 27 28  1  0
  6 29  1  0
 29 30  1  0
 29 31  2  0
 31 32  1  0
 31  2  1  0
 27 15  1  0
M  END
>  <cnnaffinity>  (1) 
-4.4775

>  <filename>  (1) 
Cc1ccc(NC[C@@H](Cl)c2cccnc2)cc1

$$$$
