
     RDKit          3D

 38 40  0  0  0  0  0  0  0  0999 V2000
    4.8335   -1.8998   25.9079 C   0  0  0  0  0  0  0  0  0  0  0  0
    5.2090   -3.3640   25.9494 C   0  0  0  0  0  0  0  0  0  0  0  0
    5.7977   -3.8829   27.1100 C   0  0  0  0  0  0  0  0  0  0  0  0
    6.1424   -5.2313   27.1741 C   0  0  0  0  0  0  0  0  0  0  0  0
    6.7384   -5.6952   28.2856 F   0  0  0  0  0  0  0  0  0  0  0  0
    5.8919   -6.1023   26.1213 C   0  0  0  0  0  0  0  0  0  0  0  0
    5.3081   -5.5840   24.9623 C   0  0  0  0  0  0  0  0  0  0  0  0
    4.9833   -4.2256   24.8482 C   0  0  0  0  0  0  0  0  0  0  0  0
    4.4134   -3.7261   23.5333 C   0  0  0  0  0  0  0  0  0  0  0  0
    5.4039   -3.2062   22.5246 C   0  0  0  0  0  0  0  0  0  0  0  0
    5.4138   -3.6866   21.3120 N   0  0  0  0  0  0  0  0  0  0  0  0
    6.2794   -2.8396   20.6364 O   0  0  0  0  0  0  0  0  0  0  0  0
    6.6990   -1.9199   21.5090 C   0  0  0  0  0  0  0  0  0  0  0  0
    7.5463   -0.7884   20.9548 C   0  0  0  0  0  0  0  0  0  0  0  0
    7.9995    0.2297   22.0237 C   0  0  0  0  0  0  0  0  0  0  0  0
    7.1530    0.7159   22.5247 H   0  0  0  0  0  0  0  0  0  0  0  0
    8.5990   -0.2651   22.7927 H   0  0  0  0  0  0  0  0  0  0  0  0
    8.5852    1.0354   21.5635 H   0  0  0  0  0  0  0  0  0  0  0  0
    6.7935   -0.0737   19.8314 C   0  0  0  0  0  0  0  0  0  0  0  0
    5.5515    0.5078   20.1148 C   0  0  0  0  0  0  0  0  0  0  0  0
    4.8879    1.2066   19.1087 C   0  0  0  0  0  0  0  0  0  0  0  0
    5.4768    1.2780   17.8417 C   0  0  0  0  0  0  0  0  0  0  0  0
    6.6369    0.6784   17.5305 N   0  0  0  0  0  0  0  0  0  0  0  0
    7.2673    0.0234   18.5164 C   0  0  0  0  0  0  0  0  0  0  0  0
    8.1998   -0.4749   18.2531 H   0  0  0  0  0  0  0  0  0  0  0  0
    4.9979    1.8383   17.0405 H   0  0  0  0  0  0  0  0  0  0  0  0
    3.9439    1.7031   19.2991 H   0  0  0  0  0  0  0  0  0  0  0  0
    5.1131    0.3760   21.1072 H   0  0  0  0  0  0  0  0  0  0  0  0
    8.4286   -1.3036   20.5544 H   0  0  0  0  0  0  0  0  0  0  0  0
    6.2348   -2.1231   22.7092 N   0  0  0  0  0  0  0  0  0  0  0  0
    3.8673   -4.5319   23.0366 H   0  0  0  0  0  0  0  0  0  0  0  0
    3.6853   -2.9309   23.7365 H   0  0  0  0  0  0  0  0  0  0  0  0
    5.1083   -6.2452   24.1205 H   0  0  0  0  0  0  0  0  0  0  0  0
    6.1611   -7.1498   26.2205 H   0  0  0  0  0  0  0  0  0  0  0  0
    5.9952   -3.2488   27.9692 H   0  0  0  0  0  0  0  0  0  0  0  0
    5.2583   -1.4233   25.0189 H   0  0  0  0  0  0  0  0  0  0  0  0
    5.2044   -1.3754   26.7931 H   0  0  0  0  0  0  0  0  0  0  0  0
    3.7473   -1.7521   25.8770 H   0  0  0  0  0  0  0  0  0  0  0  0
  1  2  1  0
  2  3  2  0
  3  4  1  0
  4  5  1  0
  4  6  2  0
  6  7  1  0
  7  8  2  0
  8  9  1  0
  9 10  1  0
 10 11  2  0
 11 12  1  0
 12 13  1  0
 13 14  1  0
 14 15  1  0
 15 16  1  0
 15 17  1  0
 15 18  1  0
 14 19  1  0
 19 20  2  0
 20 21  1  0
 21 22  2  0
 22 23  1  0
 23 24  2  0
 24 25  1  0
 22 26  1  0
 21 27  1  0
 20 28  1  0
 14 29  1  0
 13 30  2  0
  9 31  1  0
  9 32  1  0
  7 33  1  0
  6 34  1  0
  3 35  1  0
  1 36  1  0
  1 37  1  0
  1 38  1  0
  8  2  1  0
 30 10  1  0
 24 19  1  0
M  END
>  <cnnaffinity>  (1) 
-5.55981

>  <filename>  (1) 
Cc1cc(F)ccc1Cc1noc(C(C)c2cccnc2)n1

$$$$
