
     RDKit          3D

 48 52  0  0  0  0  0  0  0  0999 V2000
   13.0690    5.2907   22.4084 C   0  0  0  0  0  0  0  0  0  0  0  0
   12.6349    3.8546   22.4659 C   0  0  0  0  0  0  0  0  0  0  0  0
   11.2880    3.4799   22.3535 C   0  0  0  0  0  0  0  0  0  0  0  0
   10.9648    2.1216   22.4121 C   0  0  0  0  0  0  0  0  0  0  0  0
    9.6217    1.6319   22.3173 N   0  0  0  0  0  0  0  0  0  0  0  0
    9.3519    0.5531   21.5301 N   0  0  0  0  0  0  0  0  0  0  0  0
    8.0572    0.3841   21.6742 C   0  0  0  0  0  0  0  0  0  0  0  0
    7.3135   -0.6733   20.8947 C   0  0  0  0  0  0  0  0  0  0  0  0
    6.5408   -0.1027   19.7076 C   0  0  0  0  0  0  0  0  0  0  0  0
    5.3274    0.5666   19.9204 C   0  0  0  0  0  0  0  0  0  0  0  0
    4.7492    1.2778   18.8666 C   0  0  0  0  0  0  0  0  0  0  0  0
    5.3871    1.2668   17.6239 C   0  0  0  0  0  0  0  0  0  0  0  0
    6.5127    0.5783   17.3774 N   0  0  0  0  0  0  0  0  0  0  0  0
    7.0633   -0.0870   18.4012 C   0  0  0  0  0  0  0  0  0  0  0  0
    7.9840   -0.6290   18.1777 H   0  0  0  0  0  0  0  0  0  0  0  0
    4.9799    1.8374   16.7902 H   0  0  0  0  0  0  0  0  0  0  0  0
    3.8420    1.8575   18.9996 H   0  0  0  0  0  0  0  0  0  0  0  0
    4.8663    0.5470   20.9097 H   0  0  0  0  0  0  0  0  0  0  0  0
    8.0406   -1.4224   20.5596 H   0  0  0  0  0  0  0  0  0  0  0  0
    6.6267   -1.1669   21.5909 H   0  0  0  0  0  0  0  0  0  0  0  0
    7.4708    1.2565   22.5289 N   0  0  0  0  0  0  0  0  0  0  0  0
    8.4652    2.0323   22.9342 C   0  0  0  0  0  0  0  0  0  0  0  0
    8.3460    3.1272   23.8938 C   0  0  0  0  0  0  0  0  0  0  0  0
    9.3146    3.3511   24.8723 C   0  0  0  0  0  0  0  0  0  0  0  0
    9.2781    4.3539   25.7709 N   0  0  0  0  0  0  0  0  0  0  0  0
    8.2290    5.1753   25.7736 C   0  0  0  0  0  0  0  0  0  0  0  0
    7.1595    5.0067   24.8716 C   0  0  0  0  0  0  0  0  0  0  0  0
    7.2158    3.9747   23.9087 C   0  0  0  0  0  0  0  0  0  0  0  0
    6.0061    4.0582   23.1513 C   0  0  0  0  0  0  0  0  0  0  0  0
    5.2646    5.0778   23.6650 C   0  0  0  0  0  0  0  0  0  0  0  0
    5.9545    5.6620   24.7051 N   0  0  0  0  0  0  0  0  0  0  0  0
    5.5990    6.4155   25.2712 H   0  0  0  0  0  0  0  0  0  0  0  0
    4.2909    5.4397   23.3613 H   0  0  0  0  0  0  0  0  0  0  0  0
    5.7677    3.4010   22.3328 H   0  0  0  0  0  0  0  0  0  0  0  0
    8.2198    5.9654   26.5208 H   0  0  0  0  0  0  0  0  0  0  0  0
   10.1806    2.6979   24.9434 H   0  0  0  0  0  0  0  0  0  0  0  0
   12.0015    1.2059   22.5730 C   0  0  0  0  0  0  0  0  0  0  0  0
   13.3103    1.6670   22.6813 C   0  0  0  0  0  0  0  0  0  0  0  0
   14.4643    0.7200   22.8081 C   0  0  0  0  0  0  0  0  0  0  0  0
   14.5856    0.3992   23.8480 H   0  0  0  0  0  0  0  0  0  0  0  0
   14.3157   -0.1743   22.1982 H   0  0  0  0  0  0  0  0  0  0  0  0
   15.3643    1.2372   22.4730 H   0  0  0  0  0  0  0  0  0  0  0  0
   13.6121    2.9696   22.6697 N   0  0  0  0  0  0  0  0  0  0  0  0
   11.8026    0.1442   22.5706 H   0  0  0  0  0  0  0  0  0  0  0  0
   10.5313    4.2455   22.2584 H   0  0  0  0  0  0  0  0  0  0  0  0
   12.8334    5.7766   21.4520 H   0  0  0  0  0  0  0  0  0  0  0  0
   14.1499    5.3455   22.5696 H   0  0  0  0  0  0  0  0  0  0  0  0
   12.5664    5.8481   23.2042 H   0  0  0  0  0  0  0  0  0  0  0  0
  1  2  1  0
  2  3  2  0
  3  4  1  0
  4  5  1  0
  5  6  1  0
  6  7  2  0
  7  8  1  0
  8  9  1  0
  9 10  2  0
 10 11  1  0
 11 12  2  0
 12 13  1  0
 13 14  2  0
 14 15  1  0
 12 16  1  0
 11 17  1  0
 10 18  1  0
  8 19  1  0
  8 20  1  0
  7 21  1  0
 21 22  2  0
 22 23  1  0
 23 24  2  0
 24 25  1  0
 25 26  2  0
 26 27  1  0
 27 28  2  0
 28 29  1  0
 29 30  2  0
 30 31  1  0
 31 32  1  0
 30 33  1  0
 29 34  1  0
 26 35  1  0
 24 36  1  0
  4 37  2  0
 37 38  1  0
 38 39  1  0
 39 40  1  0
 39 41  1  0
 39 42  1  0
 38 43  2  0
 37 44  1  0
  3 45  1  0
  1 46  1  0
  1 47  1  0
  1 48  1  0
 43  2  1  0
 22  5  1  0
 28 23  1  0
 14  9  1  0
 31 27  1  0
M  END
>  <cnnaffinity>  (1) 
-6.62493

>  <filename>  (1) 
Cc1cc(-n2nc(Cc3cccnc3)nc2-c2cncc3[nH]ccc23)cc(C)n1

$$$$
