
     RDKit          3D

 45 48  0  0  0  0  0  0  0  0999 V2000
   14.4754    0.7589   22.5752 C   0  0  0  0  0  0  0  0  0  0  0  0
   13.3183    1.7321   22.6428 C   0  0  0  0  0  0  0  0  0  0  0  0
   13.5054    3.0798   22.8294 C   0  0  0  0  0  0  0  0  0  0  0  0
   12.4173    3.9264   22.9307 N   0  0  0  0  0  0  0  0  0  0  0  0
   12.3661    5.2849   23.1695 C   0  0  0  0  0  0  0  0  0  0  0  0
   11.0295    5.5862   23.2348 C   0  0  0  0  0  0  0  0  0  0  0  0
   10.2527    4.4696   23.0561 N   0  0  0  0  0  0  0  0  0  0  0  0
   11.1017    3.4739   22.8576 C   0  0  0  0  0  0  0  0  0  0  0  0
   10.8990    2.0828   22.5457 C   0  0  0  0  0  0  0  0  0  0  0  0
    9.5626    1.5288   22.3449 C   0  0  0  0  0  0  0  0  0  0  0  0
    9.2450    0.6906   21.3609 N   0  0  0  0  0  0  0  0  0  0  0  0
    7.9667    0.3512   21.6538 C   0  0  0  0  0  0  0  0  0  0  0  0
    7.1489   -0.6011   20.8385 C   0  0  0  0  0  0  0  0  0  0  0  0
    6.4840    0.0456   19.6364 C   0  0  0  0  0  0  0  0  0  0  0  0
    5.3193    0.8100   19.7956 C   0  0  0  0  0  0  0  0  0  0  0  0
    4.7655    1.4323   18.6781 C   0  0  0  0  0  0  0  0  0  0  0  0
    5.3971    1.2792   17.4415 C   0  0  0  0  0  0  0  0  0  0  0  0
    6.5162    0.5573   17.2672 N   0  0  0  0  0  0  0  0  0  0  0  0
    7.0344   -0.0361   18.3475 C   0  0  0  0  0  0  0  0  0  0  0  0
    7.9412   -0.6225   18.1831 H   0  0  0  0  0  0  0  0  0  0  0  0
    4.9867    1.7500   16.5517 H   0  0  0  0  0  0  0  0  0  0  0  0
    3.8669    2.0370   18.7532 H   0  0  0  0  0  0  0  0  0  0  0  0
    4.8629    0.9075   20.7825 H   0  0  0  0  0  0  0  0  0  0  0  0
    6.3956   -1.0194   21.5148 H   0  0  0  0  0  0  0  0  0  0  0  0
    7.8042   -1.4208   20.5305 H   0  0  0  0  0  0  0  0  0  0  0  0
    7.4897    0.9009   22.7495 N   0  0  0  0  0  0  0  0  0  0  0  0
    8.5200    1.6558   23.1974 N   0  0  0  0  0  0  0  0  0  0  0  0
    8.4276    2.2953   24.5055 C   0  0  0  0  0  0  0  0  0  0  0  0
    8.7701    1.3717   25.6872 C   0  0  0  0  0  0  0  0  0  0  0  0
   10.1551    0.7572   25.6457 C   0  0  0  0  0  0  0  0  0  0  0  0
   10.4227    0.0987   26.7864 F   0  0  0  0  0  0  0  0  0  0  0  0
   10.2990   -0.1472   24.6592 F   0  0  0  0  0  0  0  0  0  0  0  0
   11.0996    1.6998   25.4633 F   0  0  0  0  0  0  0  0  0  0  0  0
    8.0583    0.5482   25.7644 H   0  0  0  0  0  0  0  0  0  0  0  0
    8.7038    1.9549   26.6094 H   0  0  0  0  0  0  0  0  0  0  0  0
    9.0738    3.1760   24.4811 H   0  0  0  0  0  0  0  0  0  0  0  0
    7.3901    2.6319   24.5727 H   0  0  0  0  0  0  0  0  0  0  0  0
   11.9922    1.2477   22.4413 C   0  0  0  0  0  0  0  0  0  0  0  0
   11.8204    0.1900   22.2151 H   0  0  0  0  0  0  0  0  0  0  0  0
   10.5943    6.5560   23.4203 H   0  0  0  0  0  0  0  0  0  0  0  0
   13.2630    5.8723   23.2834 H   0  0  0  0  0  0  0  0  0  0  0  0
   14.4669    3.5778   22.8710 H   0  0  0  0  0  0  0  0  0  0  0  0
   14.3063    0.0276   21.7759 H   0  0  0  0  0  0  0  0  0  0  0  0
   15.4147    1.2801   22.3625 H   0  0  0  0  0  0  0  0  0  0  0  0
   14.5913    0.1946   23.5092 H   0  0  0  0  0  0  0  0  0  0  0  0
  1  2  1  0
  2  3  2  0
  3  4  1  0
  4  5  1  0
  5  6  2  0
  6  7  1  0
  7  8  2  0
  8  9  1  0
  9 10  1  0
 10 11  2  0
 11 12  1  0
 12 13  1  0
 13 14  1  0
 14 15  2  0
 15 16  1  0
 16 17  2  0
 17 18  1  0
 18 19  2  0
 19 20  1  0
 17 21  1  0
 16 22  1  0
 15 23  1  0
 13 24  1  0
 13 25  1  0
 12 26  2  0
 26 27  1  0
 27 28  1  0
 28 29  1  0
 29 30  1  0
 30 31  1  0
 30 32  1  0
 30 33  1  0
 29 34  1  0
 29 35  1  0
 28 36  1  0
 28 37  1  0
  9 38  2  0
 38 39  1  0
  6 40  1  0
  5 41  1  0
  3 42  1  0
  1 43  1  0
  1 44  1  0
  1 45  1  0
 38  2  1  0
  8  4  1  0
 27 10  1  0
 19 14  1  0
M  END
>  <cnnaffinity>  (1) 
-6.20952

>  <filename>  (1) 
Cc1cc(-c2nc(Cc3cccnc3)nn2CCC(F)(F)F)c2nccn2c1

$$$$
