
     RDKit          3D

 48 52  0  0  0  0  0  0  0  0999 V2000
    9.9392    1.6542   25.3651 C   0  0  0  0  0  0  0  0  0  0  0  0
    9.0231    2.8201   25.0565 C   0  0  0  0  0  0  0  0  0  0  0  0
    8.7724    3.8043   26.0247 C   0  0  0  0  0  0  0  0  0  0  0  0
    8.1054    4.9887   25.7218 C   0  0  0  0  0  0  0  0  0  0  0  0
    7.5878    5.1628   24.4405 C   0  0  0  0  0  0  0  0  0  0  0  0
    7.6910    4.1599   23.4729 C   0  0  0  0  0  0  0  0  0  0  0  0
    7.0711    4.3582   22.1162 C   0  0  0  0  0  0  0  0  0  0  0  0
    6.6705    5.3697   21.9945 H   0  0  0  0  0  0  0  0  0  0  0  0
    7.8357    4.1908   21.3587 H   0  0  0  0  0  0  0  0  0  0  0  0
    6.2687    3.6305   21.9555 H   0  0  0  0  0  0  0  0  0  0  0  0
    8.4306    2.9977   23.7865 C   0  0  0  0  0  0  0  0  0  0  0  0
    8.5950    1.9779   22.7767 N   0  0  0  0  0  0  0  0  0  0  0  0
    7.5415    1.2193   22.3758 N   0  0  0  0  0  0  0  0  0  0  0  0
    8.1058    0.2916   21.6241 C   0  0  0  0  0  0  0  0  0  0  0  0
    7.2740   -0.7256   20.8866 C   0  0  0  0  0  0  0  0  0  0  0  0
    6.5034   -0.1162   19.7155 C   0  0  0  0  0  0  0  0  0  0  0  0
    5.3080    0.5804   19.9388 C   0  0  0  0  0  0  0  0  0  0  0  0
    4.7399    1.3086   18.8921 C   0  0  0  0  0  0  0  0  0  0  0  0
    5.3727    1.2954   17.6486 C   0  0  0  0  0  0  0  0  0  0  0  0
    6.4857    0.5902   17.3939 N   0  0  0  0  0  0  0  0  0  0  0  0
    7.0255   -0.0942   18.4093 C   0  0  0  0  0  0  0  0  0  0  0  0
    7.9431   -0.6365   18.1742 H   0  0  0  0  0  0  0  0  0  0  0  0
    4.9682    1.8738   16.8206 H   0  0  0  0  0  0  0  0  0  0  0  0
    3.8465    1.9058   19.0333 H   0  0  0  0  0  0  0  0  0  0  0  0
    4.8574    0.5792   20.9326 H   0  0  0  0  0  0  0  0  0  0  0  0
    7.9358   -1.5296   20.5544 H   0  0  0  0  0  0  0  0  0  0  0  0
    6.5775   -1.1671   21.6078 H   0  0  0  0  0  0  0  0  0  0  0  0
    9.4563    0.3783   21.5303 N   0  0  0  0  0  0  0  0  0  0  0  0
    9.7396    1.4597   22.2380 C   0  0  0  0  0  0  0  0  0  0  0  0
   11.0773    2.0755   22.3854 C   0  0  0  0  0  0  0  0  0  0  0  0
   12.2101    1.2311   22.5952 C   0  0  0  0  0  0  0  0  0  0  0  0
   13.4884    1.7430   22.7498 C   0  0  0  0  0  0  0  0  0  0  0  0
   13.6192    3.1448   22.6754 C   0  0  0  0  0  0  0  0  0  0  0  0
   14.6612    4.0057   22.7567 N   0  0  0  0  0  0  0  0  0  0  0  0
   14.2516    5.2848   22.6342 N   0  0  0  0  0  0  0  0  0  0  0  0
   12.9826    5.2948   22.4474 N   0  0  0  0  0  0  0  0  0  0  0  0
   12.5298    3.9924   22.4604 C   0  0  0  0  0  0  0  0  0  0  0  0
   11.2392    3.4595   22.3383 C   0  0  0  0  0  0  0  0  0  0  0  0
   10.4054    4.1413   22.2665 H   0  0  0  0  0  0  0  0  0  0  0  0
   15.6054    3.7858   23.0313 H   0  0  0  0  0  0  0  0  0  0  0  0
   14.3537    1.1018   22.8700 H   0  0  0  0  0  0  0  0  0  0  0  0
   12.0442    0.1612   22.7090 H   0  0  0  0  0  0  0  0  0  0  0  0
    7.0826    6.0862   24.1652 H   0  0  0  0  0  0  0  0  0  0  0  0
    7.9676    5.7605   26.4780 H   0  0  0  0  0  0  0  0  0  0  0  0
    9.1119    3.6252   27.0343 H   0  0  0  0  0  0  0  0  0  0  0  0
   10.9455    1.8697   24.9851 H   0  0  0  0  0  0  0  0  0  0  0  0
    9.6019    0.7281   24.8864 H   0  0  0  0  0  0  0  0  0  0  0  0
   10.0154    1.4823   26.4380 H   0  0  0  0  0  0  0  0  0  0  0  0
  1  2  1  0
  2  3  2  0
  3  4  1  0
  4  5  2  0
  5  6  1  0
  6  7  1  0
  7  8  1  0
  7  9  1  0
  7 10  1  0
  6 11  2  0
 11 12  1  0
 12 13  1  0
 13 14  2  0
 14 15  1  0
 15 16  1  0
 16 17  2  0
 17 18  1  0
 18 19  2  0
 19 20  1  0
 20 21  2  0
 21 22  1  0
 19 23  1  0
 18 24  1  0
 17 25  1  0
 15 26  1  0
 15 27  1  0
 14 28  1  0
 28 29  2  0
 29 30  1  0
 30 31  2  0
 31 32  1  0
 32 33  2  0
 33 34  1  0
 34 35  1  0
 35 36  2  0
 36 37  1  0
 37 38  2  0
 38 39  1  0
 34 40  1  0
 32 41  1  0
 31 42  1  0
  5 43  1  0
  4 44  1  0
  3 45  1  0
  1 46  1  0
  1 47  1  0
  1 48  1  0
 11  2  1  0
 29 12  1  0
 38 30  1  0
 21 16  1  0
 37 33  1  0
M  END
>  <cnnaffinity>  (1) 
-6.53361

>  <filename>  (1) 
Cc1cccc(C)c1-n1nc(Cc2cccnc2)nc1-c1ccc2[nH]nnc2c1

$$$$
