
     RDKit          3D

 31 33  0  0  0  0  0  0  0  0999 V2000
    4.9718    1.8069   16.9429 H   0  0  0  0  0  0  0  0  0  0  0  0
    5.4241    1.3075   17.7947 C   0  0  0  0  0  0  0  0  0  0  0  0
    6.5751    0.6614   17.5531 N   0  0  0  0  0  0  0  0  0  0  0  0
    7.1508    0.0345   18.5836 C   0  0  0  0  0  0  0  0  0  0  0  0
    8.0752   -0.4995   18.3660 H   0  0  0  0  0  0  0  0  0  0  0  0
    6.6240    0.0027   19.8828 C   0  0  0  0  0  0  0  0  0  0  0  0
    7.3500   -0.7474   20.9060 C   0  0  0  0  0  0  0  0  0  0  0  0
    8.6731   -0.9547   21.0454 C   0  0  0  0  0  0  0  0  0  0  0  0
    9.4834   -0.6208   20.4249 H   0  0  0  0  0  0  0  0  0  0  0  0
    8.9177   -1.7056   22.2627 C   0  0  0  0  0  0  0  0  0  0  0  0
    9.9720   -2.1036   22.7128 O   0  0  0  0  0  0  0  0  0  0  0  0
    7.6258   -1.8755   22.8156 N   0  0  0  0  0  0  0  0  0  0  0  0
    7.3393   -2.5693   23.9925 C   0  0  0  0  0  0  0  0  0  0  0  0
    8.3626   -2.7838   24.8160 N   0  0  0  0  0  0  0  0  0  0  0  0
    8.1368   -3.4077   25.9723 C   0  0  0  0  0  0  0  0  0  0  0  0
    9.3693   -3.5920   26.8183 C   0  0  0  0  0  0  0  0  0  0  0  0
    9.2125   -4.2426   27.6830 H   0  0  0  0  0  0  0  0  0  0  0  0
   10.1751   -3.9866   26.1902 H   0  0  0  0  0  0  0  0  0  0  0  0
    9.6974   -2.6154   27.1858 H   0  0  0  0  0  0  0  0  0  0  0  0
    6.8629   -3.8241   26.3706 C   0  0  0  0  0  0  0  0  0  0  0  0
    6.7402   -4.3170   27.3267 H   0  0  0  0  0  0  0  0  0  0  0  0
    5.7808   -3.5915   25.5094 C   0  0  0  0  0  0  0  0  0  0  0  0
    4.7708   -3.9010   25.7800 H   0  0  0  0  0  0  0  0  0  0  0  0
    6.0240   -2.9923   24.2811 C   0  0  0  0  0  0  0  0  0  0  0  0
    5.2471   -2.8174   23.5472 H   0  0  0  0  0  0  0  0  0  0  0  0
    6.6284   -1.4129   21.9007 N   0  0  0  0  0  0  0  0  0  0  0  0
    5.9345   -0.8089   22.3470 H   0  0  0  0  0  0  0  0  0  0  0  0
    5.4162    0.6851   20.1151 C   0  0  0  0  0  0  0  0  0  0  0  0
    4.9667    0.7007   21.1109 H   0  0  0  0  0  0  0  0  0  0  0  0
    4.8089    1.3457   19.0524 C   0  0  0  0  0  0  0  0  0  0  0  0
    3.8741    1.8809   19.1827 H   0  0  0  0  0  0  0  0  0  0  0  0
  1  2  1  0
  2  3  2  0
  3  4  1  0
  4  5  1  0
  4  6  2  0
  6  7  1  0
  7  8  2  0
  8  9  1  0
  8 10  1  0
 10 11  2  0
 10 12  1  0
 12 13  1  0
 13 14  2  0
 14 15  1  0
 15 16  1  0
 16 17  1  0
 16 18  1  0
 16 19  1  0
 15 20  2  0
 20 21  1  0
 20 22  1  0
 22 23  1  0
 22 24  2  0
 24 25  1  0
 12 26  1  0
 26 27  1  0
  6 28  1  0
 28 29  1  0
 28 30  2  0
 30 31  1  0
 30  2  1  0
 26  7  1  0
 24 13  1  0
M  END
>  <cnnaffinity>  (1) 
-4.98212

>  <filename>  (1) 
Cc1cccc(-n2[nH]c(-c3cccnc3)cc2=O)n1

$$$$
