
     RDKit          3D

 34 36  0  0  0  0  0  0  0  0999 V2000
    9.2382    3.6915   22.5071 C   0  0  0  0  0  0  0  0  0  0  0  0
    9.9781    2.3888   22.4596 C   0  0  0  0  0  0  0  0  0  0  0  0
   11.3145    2.3817   22.0565 C   0  0  0  0  0  0  0  0  0  0  0  0
   12.0250    1.1857   22.0050 C   0  0  0  0  0  0  0  0  0  0  0  0
   11.3554    0.0102   22.3393 C   0  0  0  0  0  0  0  0  0  0  0  0
   12.2399   -1.6824   22.1672 Br  0  0  0  0  0  0  0  0  0  0  0  0
   10.0356    0.0970   22.8207 C   0  0  0  0  0  0  0  0  0  0  0  0
    9.3767   -1.1162   23.4483 C   0  0  0  0  0  0  0  0  0  0  0  0
    8.6538   -2.0013   22.5035 N   0  0  0  0  0  0  0  0  0  0  0  0
    8.7610   -3.3716   22.4016 C   0  0  0  0  0  0  0  0  0  0  0  0
    7.9901   -3.8191   21.4443 N   0  0  0  0  0  0  0  0  0  0  0  0
    7.3453   -2.7279   20.9015 N   0  0  0  0  0  0  0  0  0  0  0  0
    7.7400   -1.6537   21.5361 C   0  0  0  0  0  0  0  0  0  0  0  0
    7.3183   -0.3463   21.3384 N   0  0  0  0  0  0  0  0  0  0  0  0
    6.6874    0.0876   20.1597 C   0  0  0  0  0  0  0  0  0  0  0  0
    5.5386    0.8622   20.2719 C   0  0  0  0  0  0  0  0  0  0  0  0
    4.9255    1.3232   19.1018 C   0  0  0  0  0  0  0  0  0  0  0  0
    5.4950    1.0333   17.8531 C   0  0  0  0  0  0  0  0  0  0  0  0
    6.6008    0.2771   17.7232 N   0  0  0  0  0  0  0  0  0  0  0  0
    7.1731   -0.1949   18.8536 C   0  0  0  0  0  0  0  0  0  0  0  0
    8.0767   -0.7917   18.7618 H   0  0  0  0  0  0  0  0  0  0  0  0
    5.0252    1.4234   16.9564 H   0  0  0  0  0  0  0  0  0  0  0  0
    4.0156    1.9124   19.1487 H   0  0  0  0  0  0  0  0  0  0  0  0
    5.1411    1.0815   21.2596 H   0  0  0  0  0  0  0  0  0  0  0  0
    7.2318    0.2272   22.1788 H   0  0  0  0  0  0  0  0  0  0  0  0
    9.4032   -3.9874   23.0277 H   0  0  0  0  0  0  0  0  0  0  0  0
    8.6989   -0.7735   24.2350 H   0  0  0  0  0  0  0  0  0  0  0  0
   10.1635   -1.6911   23.9464 H   0  0  0  0  0  0  0  0  0  0  0  0
    9.3627    1.2655   22.8553 N   0  0  0  0  0  0  0  0  0  0  0  0
   13.0788    1.1785   21.7374 H   0  0  0  0  0  0  0  0  0  0  0  0
   11.7847    3.3202   21.7960 H   0  0  0  0  0  0  0  0  0  0  0  0
    9.9405    4.5257   22.5812 H   0  0  0  0  0  0  0  0  0  0  0  0
    8.6392    3.8169   21.6010 H   0  0  0  0  0  0  0  0  0  0  0  0
    8.5783    3.7212   23.3770 H   0  0  0  0  0  0  0  0  0  0  0  0
  1  2  1  0
  2  3  2  0
  3  4  1  0
  4  5  2  0
  5  6  1  0
  5  7  1  0
  7  8  1  0
  8  9  1  0
  9 10  1  0
 10 11  2  0
 11 12  1  0
 12 13  2  0
 13 14  1  0
 14 15  1  0
 15 16  2  0
 16 17  1  0
 17 18  2  0
 18 19  1  0
 19 20  2  0
 20 21  1  0
 18 22  1  0
 17 23  1  0
 16 24  1  0
 14 25  1  0
 10 26  1  0
  8 27  1  0
  8 28  1  0
  7 29  2  0
  4 30  1  0
  3 31  1  0
  1 32  1  0
  1 33  1  0
  1 34  1  0
 29  2  1  0
 13  9  1  0
 20 15  1  0
M  END
>  <cnnaffinity>  (1) 
-5.79179

>  <filename>  (1) 
Cc1ccc(Br)c(Cn2cnnc2Nc2cccnc2)n1

$$$$
