
     RDKit          3D

 26 27  0  0  0  0  0  0  0  0999 V2000
    4.9095    1.7708   17.0070 H   0  0  0  0  0  0  0  0  0  0  0  0
    5.4048    1.2895   17.8475 C   0  0  0  0  0  0  0  0  0  0  0  0
    6.5741    0.6786   17.5884 N   0  0  0  0  0  0  0  0  0  0  0  0
    7.1806    0.0561   18.6025 C   0  0  0  0  0  0  0  0  0  0  0  0
    8.1284   -0.4384   18.3825 H   0  0  0  0  0  0  0  0  0  0  0  0
    6.6564    0.0182   19.9060 C   0  0  0  0  0  0  0  0  0  0  0  0
    7.4025   -0.7411   20.9539 C   0  0  0  0  0  0  0  0  0  0  0  0
    8.1411   -1.6559   20.6258 O   0  0  0  0  0  0  0  0  0  0  0  0
    7.2284   -0.3355   22.3927 C   0  0  0  0  0  0  0  0  0  0  0  0
    7.3520    1.0228   22.7514 C   0  0  0  0  0  0  0  0  0  0  0  0
    7.5231    1.7772   21.9835 H   0  0  0  0  0  0  0  0  0  0  0  0
    7.2633    1.4097   24.0865 C   0  0  0  0  0  0  0  0  0  0  0  0
    7.3547    2.4556   24.3518 H   0  0  0  0  0  0  0  0  0  0  0  0
    7.0585    0.4495   25.0777 C   0  0  0  0  0  0  0  0  0  0  0  0
    6.9946    0.7481   26.1198 H   0  0  0  0  0  0  0  0  0  0  0  0
    6.9390   -0.8979   24.7266 C   0  0  0  0  0  0  0  0  0  0  0  0
    6.7841   -1.6378   25.5086 H   0  0  0  0  0  0  0  0  0  0  0  0
    7.0140   -1.3171   23.3925 C   0  0  0  0  0  0  0  0  0  0  0  0
    6.8641   -2.7775   23.0611 C   0  0  0  0  0  0  0  0  0  0  0  0
    6.4313   -3.3294   23.8984 H   0  0  0  0  0  0  0  0  0  0  0  0
    6.2166   -2.9118   22.1919 H   0  0  0  0  0  0  0  0  0  0  0  0
    7.8399   -3.2060   22.8246 H   0  0  0  0  0  0  0  0  0  0  0  0
    5.4367    0.6557   20.1594 C   0  0  0  0  0  0  0  0  0  0  0  0
    5.0034    0.6329   21.1589 H   0  0  0  0  0  0  0  0  0  0  0  0
    4.8025    1.3108   19.1111 C   0  0  0  0  0  0  0  0  0  0  0  0
    3.8685    1.8474   19.2664 H   0  0  0  0  0  0  0  0  0  0  0  0
  1  2  1  0
  2  3  2  0
  3  4  1  0
  4  5  1  0
  4  6  2  0
  6  7  1  0
  7  8  2  0
  7  9  1  0
  9 10  2  0
 10 11  1  0
 10 12  1  0
 12 13  1  0
 12 14  2  0
 14 15  1  0
 14 16  1  0
 16 17  1  0
 16 18  2  0
 18 19  1  0
 19 20  1  0
 19 21  1  0
 19 22  1  0
  6 23  1  0
 23 24  1  0
 23 25  2  0
 25 26  1  0
 25  2  1  0
 18  9  1  0
M  END
>  <cnnaffinity>  (1) 
-3.93723

>  <filename>  (1) 
Cc1ccccc1C(=O)c1cccnc1

$$$$
