
     RDKit          3D

 49 53  0  0  0  0  0  0  0  0999 V2000
    6.5888   -2.0820   26.8169 C   0  0  0  0  0  0  0  0  0  0  0  0
    7.7078   -1.1976   26.4010 C   0  0  0  0  0  0  0  0  0  0  0  0
    9.0441   -1.3958   26.2803 C   0  0  0  0  0  0  0  0  0  0  0  0
    9.5979   -0.1328   25.8708 C   0  0  0  0  0  0  0  0  0  0  0  0
    8.5552    0.7372   25.7674 C   0  0  0  0  0  0  0  0  0  0  0  0
    8.4115    2.1933   25.4262 C   0  0  0  0  0  0  0  0  0  0  0  0
    7.3778    2.5436   24.3125 C   0  0  0  0  0  0  0  0  0  0  0  0
    7.4224    1.6776   23.0922 C   0  0  0  0  0  0  0  0  0  0  0  0
    6.4210    0.9567   22.6140 N   0  0  0  0  0  0  0  0  0  0  0  0
    6.9895    0.2895   21.5784 C   0  0  0  0  0  0  0  0  0  0  0  0
    6.3142   -0.6894   20.6664 C   0  0  0  0  0  0  0  0  0  0  0  0
    5.9615   -0.0142   19.3520 C   0  0  0  0  0  0  0  0  0  0  0  0
    5.0242    1.0256   19.3890 C   0  0  0  0  0  0  0  0  0  0  0  0
    4.7052    1.6888   18.2103 C   0  0  0  0  0  0  0  0  0  0  0  0
    5.3704    1.3275   17.0421 C   0  0  0  0  0  0  0  0  0  0  0  0
    6.3045    0.3679   16.9849 N   0  0  0  0  0  0  0  0  0  0  0  0
    6.5910   -0.2766   18.1246 C   0  0  0  0  0  0  0  0  0  0  0  0
    7.3712   -1.0374   18.0577 H   0  0  0  0  0  0  0  0  0  0  0  0
    5.1458    1.8667   16.1296 H   0  0  0  0  0  0  0  0  0  0  0  0
    3.9666    2.4807   18.1739 H   0  0  0  0  0  0  0  0  0  0  0  0
    4.5851    1.3253   20.3398 H   0  0  0  0  0  0  0  0  0  0  0  0
    5.4210   -1.0680   21.1719 H   0  0  0  0  0  0  0  0  0  0  0  0
    7.0079   -1.5249   20.5221 H   0  0  0  0  0  0  0  0  0  0  0  0
    8.2553    0.5661   21.3680 N   0  0  0  0  0  0  0  0  0  0  0  0
    8.5367    1.4854   22.3321 N   0  0  0  0  0  0  0  0  0  0  0  0
    9.9066    1.8152   22.5624 C   0  0  0  0  0  0  0  0  0  0  0  0
   10.3596    3.1559   22.7025 C   0  0  0  0  0  0  0  0  0  0  0  0
   11.6990    3.4336   22.9384 C   0  0  0  0  0  0  0  0  0  0  0  0
   12.5987    2.3416   22.9578 C   0  0  0  0  0  0  0  0  0  0  0  0
   13.9525    2.2577   23.0675 N   0  0  0  0  0  0  0  0  0  0  0  0
   14.4126    0.9878   22.9703 N   0  0  0  0  0  0  0  0  0  0  0  0
   13.3519    0.2304   22.7884 C   0  0  0  0  0  0  0  0  0  0  0  0
   12.1574    1.0122   22.7940 C   0  0  0  0  0  0  0  0  0  0  0  0
   10.7845    0.7471   22.6431 C   0  0  0  0  0  0  0  0  0  0  0  0
   10.3955   -0.2582   22.5501 H   0  0  0  0  0  0  0  0  0  0  0  0
   13.4574   -0.8369   22.6378 H   0  0  0  0  0  0  0  0  0  0  0  0
   14.6046    3.0025   23.2614 H   0  0  0  0  0  0  0  0  0  0  0  0
   12.0360    4.4551   23.0608 H   0  0  0  0  0  0  0  0  0  0  0  0
    9.6411    3.9663   22.6208 H   0  0  0  0  0  0  0  0  0  0  0  0
    7.5361    3.5867   24.0065 H   0  0  0  0  0  0  0  0  0  0  0  0
    6.3538    2.4741   24.6967 H   0  0  0  0  0  0  0  0  0  0  0  0
    8.1111    2.7178   26.3427 H   0  0  0  0  0  0  0  0  0  0  0  0
    9.4033    2.5627   25.1498 H   0  0  0  0  0  0  0  0  0  0  0  0
    7.4023    0.0906   26.0928 O   0  0  0  0  0  0  0  0  0  0  0  0
   10.6410    0.0869   25.6943 H   0  0  0  0  0  0  0  0  0  0  0  0
    9.5407   -2.3434   26.4616 H   0  0  0  0  0  0  0  0  0  0  0  0
    6.8374   -3.1255   26.6106 H   0  0  0  0  0  0  0  0  0  0  0  0
    5.6632   -1.8315   26.2969 H   0  0  0  0  0  0  0  0  0  0  0  0
    6.3921   -2.0049   27.8917 H   0  0  0  0  0  0  0  0  0  0  0  0
  1  2  1  0
  2  3  2  0
  3  4  1  0
  4  5  2  0
  5  6  1  0
  6  7  1  0
  7  8  1  0
  8  9  2  0
  9 10  1  0
 10 11  1  0
 11 12  1  0
 12 13  2  0
 13 14  1  0
 14 15  2  0
 15 16  1  0
 16 17  2  0
 17 18  1  0
 15 19  1  0
 14 20  1  0
 13 21  1  0
 11 22  1  0
 11 23  1  0
 10 24  2  0
 24 25  1  0
 25 26  1  0
 26 27  2  0
 27 28  1  0
 28 29  2  0
 29 30  1  0
 30 31  1  0
 31 32  2  0
 32 33  1  0
 33 34  2  0
 34 35  1  0
 32 36  1  0
 30 37  1  0
 28 38  1  0
 27 39  1  0
  7 40  1  0
  7 41  1  0
  6 42  1  0
  6 43  1  0
  5 44  1  0
  4 45  1  0
  3 46  1  0
  1 47  1  0
  1 48  1  0
  1 49  1  0
 44  2  1  0
 25  8  1  0
 34 26  1  0
 17 12  1  0
 33 29  1  0
M  END
>  <cnnaffinity>  (1) 
-6.45182

>  <filename>  (1) 
Cc1ccc(CCc2nc(Cc3cccnc3)nn2-c2ccc3[nH]ncc3c2)o1

$$$$
