
     RDKit          3D

 50 54  0  0  0  0  0  0  0  0999 V2000
   12.1728   -0.3948   22.5992 C   0  0  0  0  0  0  0  0  0  0  0  0
   12.2490    1.1016   22.5674 C   0  0  0  0  0  0  0  0  0  0  0  0
   11.1403    1.9484   22.4720 C   0  0  0  0  0  0  0  0  0  0  0  0
    9.7988    1.3538   22.3398 C   0  0  0  0  0  0  0  0  0  0  0  0
    9.4379    0.3700   21.5216 N   0  0  0  0  0  0  0  0  0  0  0  0
    8.1109    0.2376   21.7661 C   0  0  0  0  0  0  0  0  0  0  0  0
    7.2563   -0.7184   20.9803 C   0  0  0  0  0  0  0  0  0  0  0  0
    6.5391   -0.0599   19.8017 C   0  0  0  0  0  0  0  0  0  0  0  0
    5.3447    0.6442   20.0086 C   0  0  0  0  0  0  0  0  0  0  0  0
    4.7734    1.3410   18.9421 C   0  0  0  0  0  0  0  0  0  0  0  0
    5.4103    1.3061   17.7002 C   0  0  0  0  0  0  0  0  0  0  0  0
    6.5365    0.6147   17.4662 N   0  0  0  0  0  0  0  0  0  0  0  0
    7.0743   -0.0463   18.4998 C   0  0  0  0  0  0  0  0  0  0  0  0
    7.9922   -0.5945   18.2814 H   0  0  0  0  0  0  0  0  0  0  0  0
    4.9976    1.8509   16.8532 H   0  0  0  0  0  0  0  0  0  0  0  0
    3.8612    1.9151   19.0623 H   0  0  0  0  0  0  0  0  0  0  0  0
    4.8806    0.6508   20.9964 H   0  0  0  0  0  0  0  0  0  0  0  0
    7.9088   -1.5308   20.6395 H   0  0  0  0  0  0  0  0  0  0  0  0
    6.5245   -1.1579   21.6680 H   0  0  0  0  0  0  0  0  0  0  0  0
    7.6387    1.0466   22.6993 N   0  0  0  0  0  0  0  0  0  0  0  0
    8.7323    1.7618   23.0654 N   0  0  0  0  0  0  0  0  0  0  0  0
    8.6960    2.7683   24.1347 C   0  0  0  0  0  0  0  0  0  0  0  0
    8.3322    2.1907   25.5158 C   0  0  0  0  0  0  0  0  0  0  0  0
    8.2817    3.3384   26.5305 C   0  0  0  0  0  0  0  0  0  0  0  0
    7.4063    4.3769   26.1271 O   0  0  0  0  0  0  0  0  0  0  0  0
    7.7809    4.9741   24.8980 C   0  0  0  0  0  0  0  0  0  0  0  0
    7.7993    3.9584   23.7560 C   0  0  0  0  0  0  0  0  0  0  0  0
    6.7868    3.5941   23.5477 H   0  0  0  0  0  0  0  0  0  0  0  0
    8.1684    4.4368   22.8399 H   0  0  0  0  0  0  0  0  0  0  0  0
    7.0567    5.7732   24.7192 H   0  0  0  0  0  0  0  0  0  0  0  0
    8.7775    5.4472   24.9918 H   0  0  0  0  0  0  0  0  0  0  0  0
    9.2986    3.7483   26.6698 H   0  0  0  0  0  0  0  0  0  0  0  0
    7.9236    3.0042   27.5076 H   0  0  0  0  0  0  0  0  0  0  0  0
    9.0930    1.4657   25.8306 H   0  0  0  0  0  0  0  0  0  0  0  0
    7.3690    1.6712   25.4683 H   0  0  0  0  0  0  0  0  0  0  0  0
    9.7184    3.1342   24.2475 H   0  0  0  0  0  0  0  0  0  0  0  0
   11.3082    3.3737   22.4748 C   0  0  0  0  0  0  0  0  0  0  0  0
   12.5391    3.9764   22.5892 C   0  0  0  0  0  0  0  0  0  0  0  0
   13.6514    3.1107   22.5730 C   0  0  0  0  0  0  0  0  0  0  0  0
   13.5185    1.7087   22.6285 C   0  0  0  0  0  0  0  0  0  0  0  0
   14.8518    1.2211   22.5007 C   0  0  0  0  0  0  0  0  0  0  0  0
   15.7081    2.2004   22.2742 N   0  0  0  0  0  0  0  0  0  0  0  0
   14.9637    3.3487   22.3632 N   0  0  0  0  0  0  0  0  0  0  0  0
   15.3515    4.2285   22.0627 H   0  0  0  0  0  0  0  0  0  0  0  0
   15.1723    0.1880   22.4749 H   0  0  0  0  0  0  0  0  0  0  0  0
   12.6514    5.0492   22.6891 H   0  0  0  0  0  0  0  0  0  0  0  0
   10.4381    4.0110   22.3578 H   0  0  0  0  0  0  0  0  0  0  0  0
   11.3798   -0.7079   23.2837 H   0  0  0  0  0  0  0  0  0  0  0  0
   13.1343   -0.7971   22.9321 H   0  0  0  0  0  0  0  0  0  0  0  0
   11.9240   -0.8036   21.6122 H   0  0  0  0  0  0  0  0  0  0  0  0
  1  2  1  0
  2  3  2  0
  3  4  1  0
  4  5  2  0
  5  6  1  0
  6  7  1  0
  7  8  1  0
  8  9  2  0
  9 10  1  0
 10 11  2  0
 11 12  1  0
 12 13  2  0
 13 14  1  0
 11 15  1  0
 10 16  1  0
  9 17  1  0
  7 18  1  0
  7 19  1  0
  6 20  2  0
 20 21  1  0
 21 22  1  0
 22 23  1  0
 23 24  1  0
 24 25  1  0
 25 26  1  0
 26 27  1  0
 27 28  1  0
 27 29  1  0
 26 30  1  0
 26 31  1  0
 24 32  1  0
 24 33  1  0
 23 34  1  0
 23 35  1  0
 22 36  1  0
  3 37  1  0
 37 38  2  0
 38 39  1  0
 39 40  2  0
 40 41  1  0
 41 42  2  0
 42 43  1  0
 43 44  1  0
 41 45  1  0
 38 46  1  0
 37 47  1  0
  1 48  1  0
  1 49  1  0
  1 50  1  0
 40  2  1  0
 21  4  1  0
 27 22  1  0
 43 39  1  0
 13  8  1  0
M  END
>  <cnnaffinity>  (1) 
-6.2091

>  <filename>  (1) 
Cc1c(-c2nc(Cc3cccnc3)nn2C2CCOCC2)ccc2[nH]ncc12

$$$$
