
     RDKit          3D

 51 55  0  0  0  0  0  0  0  0999 V2000
    8.4113    5.3345   24.0253 C   0  0  0  0  0  0  0  0  0  0  0  0
    7.7982    3.9299   23.8746 C   0  0  0  0  0  0  0  0  0  0  0  0
    6.6062    3.6815   24.8205 C   0  0  0  0  0  0  0  0  0  0  0  0
    7.0125    3.6628   26.3131 C   0  0  0  0  0  0  0  0  0  0  0  0
    8.3928    3.0018   26.5625 C   0  0  0  0  0  0  0  0  0  0  0  0
    8.7791    2.0504   25.4264 C   0  0  0  0  0  0  0  0  0  0  0  0
    8.8789    2.8167   24.0809 C   0  0  0  0  0  0  0  0  0  0  0  0
    8.9124    1.8764   22.9514 N   0  0  0  0  0  0  0  0  0  0  0  0
    7.8151    1.1465   22.6394 N   0  0  0  0  0  0  0  0  0  0  0  0
    8.2574    0.3183   21.7101 C   0  0  0  0  0  0  0  0  0  0  0  0
    7.3552   -0.6526   20.9966 C   0  0  0  0  0  0  0  0  0  0  0  0
    6.5875   -0.0279   19.8363 C   0  0  0  0  0  0  0  0  0  0  0  0
    5.3758    0.6365   20.0612 C   0  0  0  0  0  0  0  0  0  0  0  0
    4.7703    1.3244   19.0079 C   0  0  0  0  0  0  0  0  0  0  0  0
    5.3963    1.3084   17.7591 C   0  0  0  0  0  0  0  0  0  0  0  0
    6.5332    0.6403   17.5061 N   0  0  0  0  0  0  0  0  0  0  0  0
    7.1007   -0.0123   18.5277 C   0  0  0  0  0  0  0  0  0  0  0  0
    8.0187   -0.5594   18.2992 H   0  0  0  0  0  0  0  0  0  0  0  0
    4.9671    1.8534   16.9213 H   0  0  0  0  0  0  0  0  0  0  0  0
    3.8465    1.8777   19.1467 H   0  0  0  0  0  0  0  0  0  0  0  0
    4.9258    0.6127   21.0548 H   0  0  0  0  0  0  0  0  0  0  0  0
    7.9832   -1.4741   20.6352 H   0  0  0  0  0  0  0  0  0  0  0  0
    6.6500   -1.0563   21.7326 H   0  0  0  0  0  0  0  0  0  0  0  0
    9.5760    0.4498   21.4207 N   0  0  0  0  0  0  0  0  0  0  0  0
    9.9601    1.4517   22.2065 C   0  0  0  0  0  0  0  0  0  0  0  0
   11.3102    2.0609   22.3459 C   0  0  0  0  0  0  0  0  0  0  0  0
   11.5498    3.4469   22.3811 C   0  0  0  0  0  0  0  0  0  0  0  0
   12.8511    3.9527   22.6039 C   0  0  0  0  0  0  0  0  0  0  0  0
   13.9384    3.2048   22.7891 N   0  0  0  0  0  0  0  0  0  0  0  0
   13.6978    1.8892   22.7175 C   0  0  0  0  0  0  0  0  0  0  0  0
   12.4616    1.2504   22.4825 C   0  0  0  0  0  0  0  0  0  0  0  0
   12.8082   -0.1332   22.4448 C   0  0  0  0  0  0  0  0  0  0  0  0
   14.0934   -0.3288   22.6300 N   0  0  0  0  0  0  0  0  0  0  0  0
   14.6180    0.9057   22.8126 N   0  0  0  0  0  0  0  0  0  0  0  0
   15.6062    1.0774   22.8338 H   0  0  0  0  0  0  0  0  0  0  0  0
   12.1393   -0.9674   22.2876 H   0  0  0  0  0  0  0  0  0  0  0  0
   13.0093    5.0260   22.6508 H   0  0  0  0  0  0  0  0  0  0  0  0
   10.7535    4.1689   22.2381 H   0  0  0  0  0  0  0  0  0  0  0  0
    9.8508    3.3062   24.1129 H   0  0  0  0  0  0  0  0  0  0  0  0
    8.0393    1.2444   25.3427 H   0  0  0  0  0  0  0  0  0  0  0  0
    9.7458    1.5760   25.6298 H   0  0  0  0  0  0  0  0  0  0  0  0
    8.3962    2.4650   27.5182 H   0  0  0  0  0  0  0  0  0  0  0  0
    9.1690    3.7751   26.6517 H   0  0  0  0  0  0  0  0  0  0  0  0
    6.2393    3.1224   26.8727 H   0  0  0  0  0  0  0  0  0  0  0  0
    7.0248    4.6864   26.7100 H   0  0  0  0  0  0  0  0  0  0  0  0
    5.8124    4.4201   24.6478 H   0  0  0  0  0  0  0  0  0  0  0  0
    6.1805    2.7061   24.5443 H   0  0  0  0  0  0  0  0  0  0  0  0
    7.4288    3.8424   22.8455 H   0  0  0  0  0  0  0  0  0  0  0  0
    9.1988    5.4927   23.2766 H   0  0  0  0  0  0  0  0  0  0  0  0
    8.8657    5.4903   25.0117 H   0  0  0  0  0  0  0  0  0  0  0  0
    7.6608    6.1196   23.8804 H   0  0  0  0  0  0  0  0  0  0  0  0
  1  2  1  0
  2  3  1  0
  3  4  1  0
  4  5  1  0
  5  6  1  0
  6  7  1  0
  7  8  1  0
  8  9  1  0
  9 10  2  0
 10 11  1  0
 11 12  1  0
 12 13  2  0
 13 14  1  0
 14 15  2  0
 15 16  1  0
 16 17  2  0
 17 18  1  0
 15 19  1  0
 14 20  1  0
 13 21  1  0
 11 22  1  0
 11 23  1  0
 10 24  1  0
 24 25  2  0
 25 26  1  0
 26 27  2  0
 27 28  1  0
 28 29  2  0
 29 30  1  0
 30 31  2  0
 31 32  1  0
 32 33  2  0
 33 34  1  0
 34 35  1  0
 32 36  1  0
 28 37  1  0
 27 38  1  0
  7 39  1  0
  6 40  1  0
  6 41  1  0
  5 42  1  0
  5 43  1  0
  4 44  1  0
  4 45  1  0
  3 46  1  0
  3 47  1  0
  2 48  1  0
  1 49  1  0
  1 50  1  0
  1 51  1  0
  7  2  1  0
 25  8  1  0
 31 26  1  0
 17 12  1  0
 34 30  1  0
M  END
>  <cnnaffinity>  (1) 
-7.00786

>  <filename>  (1) 
CC1CCCCC1n1nc(Cc2cccnc2)nc1-c1ccnc2[nH]ncc12

$$$$
