
     RDKit          3D

 40 43  0  0  0  0  0  0  0  0999 V2000
    3.6900    2.3644   29.7749 C   0  0  0  0  0  0  0  0  0  0  0  0
    3.9741    1.1639   28.9211 C   0  0  0  0  0  0  0  0  0  0  0  0
    4.8332    1.0373   27.8660 C   0  0  0  0  0  0  0  0  0  0  0  0
    4.7921   -0.3263   27.4178 C   0  0  0  0  0  0  0  0  0  0  0  0
    5.4484   -1.0591   26.3942 C   0  0  0  0  0  0  0  0  0  0  0  0
    6.4135   -0.3889   25.5066 C   0  0  0  0  0  0  0  0  0  0  0  0
    6.6861    0.8950   25.5285 N   0  0  0  0  0  0  0  0  0  0  0  0
    7.6277    1.0542   24.5355 O   0  0  0  0  0  0  0  0  0  0  0  0
    7.8303   -0.1446   23.9947 C   0  0  0  0  0  0  0  0  0  0  0  0
    8.7930   -0.2578   22.8344 C   0  0  0  0  0  0  0  0  0  0  0  0
    8.2792    0.2231   21.6011 O   0  0  0  0  0  0  0  0  0  0  0  0
    7.4062   -0.7116   20.9684 C   0  0  0  0  0  0  0  0  0  0  0  0
    6.6409   -0.0001   19.8897 C   0  0  0  0  0  0  0  0  0  0  0  0
    5.4304    0.6573   20.1421 C   0  0  0  0  0  0  0  0  0  0  0  0
    4.7955    1.3199   19.0887 C   0  0  0  0  0  0  0  0  0  0  0  0
    5.3915    1.3040   17.8234 C   0  0  0  0  0  0  0  0  0  0  0  0
    6.5566    0.6892   17.5690 N   0  0  0  0  0  0  0  0  0  0  0  0
    7.1598    0.0695   18.5915 C   0  0  0  0  0  0  0  0  0  0  0  0
    8.1130   -0.4060   18.3580 H   0  0  0  0  0  0  0  0  0  0  0  0
    4.9254    1.8031   16.9744 H   0  0  0  0  0  0  0  0  0  0  0  0
    3.8640    1.8527   19.2322 H   0  0  0  0  0  0  0  0  0  0  0  0
    5.0031    0.6573   21.1477 H   0  0  0  0  0  0  0  0  0  0  0  0
    6.7161   -1.1451   21.7105 H   0  0  0  0  0  0  0  0  0  0  0  0
    8.0044   -1.5412   20.5545 H   0  0  0  0  0  0  0  0  0  0  0  0
    9.6920    0.3263   23.0458 H   0  0  0  0  0  0  0  0  0  0  0  0
    9.0682   -1.3195   22.7645 H   0  0  0  0  0  0  0  0  0  0  0  0
    7.1304   -1.0835   24.5527 N   0  0  0  0  0  0  0  0  0  0  0  0
    5.1613   -2.4246   26.2607 C   0  0  0  0  0  0  0  0  0  0  0  0
    4.2419   -3.0644   27.1154 C   0  0  0  0  0  0  0  0  0  0  0  0
    3.5844   -2.3643   28.1247 C   0  0  0  0  0  0  0  0  0  0  0  0
    3.8703   -0.9992   28.2609 C   0  0  0  0  0  0  0  0  0  0  0  0
    3.3917   -0.0659   29.1549 N   0  0  0  0  0  0  0  0  0  0  0  0
    2.7387   -0.2679   29.8927 H   0  0  0  0  0  0  0  0  0  0  0  0
    2.8777   -2.8596   28.7855 H   0  0  0  0  0  0  0  0  0  0  0  0
    4.0500   -4.1279   26.9791 H   0  0  0  0  0  0  0  0  0  0  0  0
    5.6647   -2.9945   25.4836 H   0  0  0  0  0  0  0  0  0  0  0  0
    5.4524    1.8123   27.4288 H   0  0  0  0  0  0  0  0  0  0  0  0
    2.6786    2.3680   30.1990 H   0  0  0  0  0  0  0  0  0  0  0  0
    3.8088    3.2744   29.1787 H   0  0  0  0  0  0  0  0  0  0  0  0
    4.4008    2.4349   30.6077 H   0  0  0  0  0  0  0  0  0  0  0  0
  1  2  1  0
  2  3  2  0
  3  4  1  0
  4  5  2  0
  5  6  1  0
  6  7  2  0
  7  8  1  0
  8  9  1  0
  9 10  1  0
 10 11  1  0
 11 12  1  0
 12 13  1  0
 13 14  2  0
 14 15  1  0
 15 16  2  0
 16 17  1  0
 17 18  2  0
 18 19  1  0
 16 20  1  0
 15 21  1  0
 14 22  1  0
 12 23  1  0
 12 24  1  0
 10 25  1  0
 10 26  1  0
  9 27  2  0
  5 28  1  0
 28 29  2  0
 29 30  1  0
 30 31  2  0
 31 32  1  0
 32 33  1  0
 30 34  1  0
 29 35  1  0
 28 36  1  0
  3 37  1  0
  1 38  1  0
  1 39  1  0
  1 40  1  0
 32  2  1  0
 31  4  1  0
 27  6  1  0
 18 13  1  0
M  END
>  <cnnaffinity>  (1) 
-5.0555

>  <filename>  (1) 
Cc1cc2c(-c3noc(COCc4cccnc4)n3)cccc2[nH]1

$$$$
