
     RDKit          3D

 45 49  0  0  0  0  0  0  0  0999 V2000
   12.8378    5.4790   22.2023 C   0  0  0  0  0  0  0  0  0  0  0  0
   12.5969    4.0019   22.3848 C   0  0  0  0  0  0  0  0  0  0  0  0
   13.6186    3.0752   22.6486 C   0  0  0  0  0  0  0  0  0  0  0  0
   13.4189    1.7515   22.7796 N   0  0  0  0  0  0  0  0  0  0  0  0
   12.1775    1.2844   22.6367 C   0  0  0  0  0  0  0  0  0  0  0  0
   11.0751    2.1367   22.4568 C   0  0  0  0  0  0  0  0  0  0  0  0
    9.7605    1.6060   22.4045 N   0  0  0  0  0  0  0  0  0  0  0  0
    9.5116    0.5271   21.6241 N   0  0  0  0  0  0  0  0  0  0  0  0
    8.2004    0.4163   21.6730 C   0  0  0  0  0  0  0  0  0  0  0  0
    7.4670   -0.6446   20.8857 C   0  0  0  0  0  0  0  0  0  0  0  0
    6.6502   -0.0892   19.7170 C   0  0  0  0  0  0  0  0  0  0  0  0
    5.4288    0.5512   19.9693 C   0  0  0  0  0  0  0  0  0  0  0  0
    4.8055    1.2569   18.9394 C   0  0  0  0  0  0  0  0  0  0  0  0
    5.4034    1.2665   17.6780 C   0  0  0  0  0  0  0  0  0  0  0  0
    6.5269    0.5929   17.3884 N   0  0  0  0  0  0  0  0  0  0  0  0
    7.1197   -0.0710   18.3890 C   0  0  0  0  0  0  0  0  0  0  0  0
    8.0366   -0.6004   18.1254 H   0  0  0  0  0  0  0  0  0  0  0  0
    4.9597    1.8367   16.8643 H   0  0  0  0  0  0  0  0  0  0  0  0
    3.8952    1.8194   19.1073 H   0  0  0  0  0  0  0  0  0  0  0  0
    4.9979    0.5171   20.9718 H   0  0  0  0  0  0  0  0  0  0  0  0
    6.8105   -1.1657   21.5915 H   0  0  0  0  0  0  0  0  0  0  0  0
    8.2107   -1.3768   20.5523 H   0  0  0  0  0  0  0  0  0  0  0  0
    7.5861    1.3334   22.4588 N   0  0  0  0  0  0  0  0  0  0  0  0
    8.5769    2.0731   22.9290 C   0  0  0  0  0  0  0  0  0  0  0  0
    8.4520    3.1635   23.8962 C   0  0  0  0  0  0  0  0  0  0  0  0
    9.4386    3.4027   24.8549 C   0  0  0  0  0  0  0  0  0  0  0  0
    9.4157    4.4197   25.7399 N   0  0  0  0  0  0  0  0  0  0  0  0
    8.3616    5.2363   25.7591 C   0  0  0  0  0  0  0  0  0  0  0  0
    7.2704    5.0391   24.8880 C   0  0  0  0  0  0  0  0  0  0  0  0
    7.3048    3.9915   23.9378 C   0  0  0  0  0  0  0  0  0  0  0  0
    6.0569    4.0367   23.2387 C   0  0  0  0  0  0  0  0  0  0  0  0
    5.3226    5.0533   23.7722 C   0  0  0  0  0  0  0  0  0  0  0  0
    6.0536    5.6742   24.7605 N   0  0  0  0  0  0  0  0  0  0  0  0
    5.6899    6.3929   25.3696 H   0  0  0  0  0  0  0  0  0  0  0  0
    4.3181    5.3869   23.5450 H   0  0  0  0  0  0  0  0  0  0  0  0
    5.7835    3.3558   22.4464 H   0  0  0  0  0  0  0  0  0  0  0  0
    8.3552    6.0370   26.4977 H   0  0  0  0  0  0  0  0  0  0  0  0
   10.3096    2.7514   24.9111 H   0  0  0  0  0  0  0  0  0  0  0  0
   11.2926    3.5070   22.3245 C   0  0  0  0  0  0  0  0  0  0  0  0
   10.4490    4.1863   22.2160 H   0  0  0  0  0  0  0  0  0  0  0  0
   12.0281    0.2081   22.6932 H   0  0  0  0  0  0  0  0  0  0  0  0
   14.6481    3.4168   22.7255 H   0  0  0  0  0  0  0  0  0  0  0  0
   11.9504    5.9307   21.7512 H   0  0  0  0  0  0  0  0  0  0  0  0
   13.6893    5.6917   21.5457 H   0  0  0  0  0  0  0  0  0  0  0  0
   13.0187    5.9733   23.1646 H   0  0  0  0  0  0  0  0  0  0  0  0
  1  2  1  0
  2  3  2  0
  3  4  1  0
  4  5  2  0
  5  6  1  0
  6  7  1  0
  7  8  1  0
  8  9  2  0
  9 10  1  0
 10 11  1  0
 11 12  2  0
 12 13  1  0
 13 14  2  0
 14 15  1  0
 15 16  2  0
 16 17  1  0
 14 18  1  0
 13 19  1  0
 12 20  1  0
 10 21  1  0
 10 22  1  0
  9 23  1  0
 23 24  2  0
 24 25  1  0
 25 26  2  0
 26 27  1  0
 27 28  2  0
 28 29  1  0
 29 30  2  0
 30 31  1  0
 31 32  2  0
 32 33  1  0
 33 34  1  0
 32 35  1  0
 31 36  1  0
 28 37  1  0
 26 38  1  0
  6 39  2  0
 39 40  1  0
  5 41  1  0
  3 42  1  0
  1 43  1  0
  1 44  1  0
  1 45  1  0
 39  2  1  0
 24  7  1  0
 30 25  1  0
 16 11  1  0
 33 29  1  0
M  END
>  <cnnaffinity>  (1) 
-5.77303

>  <filename>  (1) 
Cc1cncc(-n2nc(Cc3cccnc3)nc2-c2cncc3[nH]ccc23)c1

$$$$
