
     RDKit          3D

 49 52  0  0  0  0  0  0  0  0999 V2000
    6.3018    6.4499   23.0405 C   0  0  0  0  0  0  0  0  0  0  0  0
    5.7519    5.3479   23.9612 C   0  0  0  0  0  0  0  0  0  0  0  0
    5.9566    5.7030   25.4613 C   0  0  0  0  0  0  0  0  0  0  0  0
    7.4471    5.8425   25.8419 C   0  0  0  0  0  0  0  0  0  0  0  0
    8.2419    4.7050   25.2696 C   0  0  0  0  0  0  0  0  0  0  0  0
    9.4637    4.3818   25.6477 N   0  0  0  0  0  0  0  0  0  0  0  0
    9.8098    3.3575   24.8398 N   0  0  0  0  0  0  0  0  0  0  0  0
    8.8118    2.9954   23.9841 C   0  0  0  0  0  0  0  0  0  0  0  0
    8.8608    1.9167   23.0089 C   0  0  0  0  0  0  0  0  0  0  0  0
    7.8271    1.2291   22.5620 N   0  0  0  0  0  0  0  0  0  0  0  0
    8.3848    0.3569   21.6882 C   0  0  0  0  0  0  0  0  0  0  0  0
    7.5714   -0.6280   20.8872 C   0  0  0  0  0  0  0  0  0  0  0  0
    6.7576   -0.0072   19.7453 C   0  0  0  0  0  0  0  0  0  0  0  0
    5.5559    0.6601   20.0313 C   0  0  0  0  0  0  0  0  0  0  0  0
    4.8696    1.3130   19.0021 C   0  0  0  0  0  0  0  0  0  0  0  0
    5.4107    1.2749   17.7158 C   0  0  0  0  0  0  0  0  0  0  0  0
    6.5328    0.6055   17.4064 N   0  0  0  0  0  0  0  0  0  0  0  0
    7.1746   -0.0209   18.4015 C   0  0  0  0  0  0  0  0  0  0  0  0
    8.0726   -0.5717   18.1117 H   0  0  0  0  0  0  0  0  0  0  0  0
    4.9219    1.7966   16.8931 H   0  0  0  0  0  0  0  0  0  0  0  0
    3.9448    1.8559   19.1790 H   0  0  0  0  0  0  0  0  0  0  0  0
    5.1730    0.6611   21.0527 H   0  0  0  0  0  0  0  0  0  0  0  0
    8.2436   -1.4124   20.5222 H   0  0  0  0  0  0  0  0  0  0  0  0
    6.8888   -1.1190   21.5902 H   0  0  0  0  0  0  0  0  0  0  0  0
    9.6957    0.4541   21.5725 N   0  0  0  0  0  0  0  0  0  0  0  0
   10.0062    1.4676   22.4127 N   0  0  0  0  0  0  0  0  0  0  0  0
   11.3701    2.0117   22.4341 C   0  0  0  0  0  0  0  0  0  0  0  0
   11.8343    2.4916   21.0555 C   0  0  0  0  0  0  0  0  0  0  0  0
   12.1720    1.6560   20.4515 H   0  0  0  0  0  0  0  0  0  0  0  0
   12.6176    3.2547   21.1474 H   0  0  0  0  0  0  0  0  0  0  0  0
   10.9930    2.9236   20.5187 H   0  0  0  0  0  0  0  0  0  0  0  0
   12.3275    1.0465   23.1528 C   0  0  0  0  0  0  0  0  0  0  0  0
   11.9646    0.9519   24.4572 F   0  0  0  0  0  0  0  0  0  0  0  0
   12.3981   -0.1842   22.6511 F   0  0  0  0  0  0  0  0  0  0  0  0
   13.5705    1.5656   23.1399 F   0  0  0  0  0  0  0  0  0  0  0  0
   11.3571    2.8687   23.1005 H   0  0  0  0  0  0  0  0  0  0  0  0
    7.7755    3.8732   24.2326 C   0  0  0  0  0  0  0  0  0  0  0  0
    6.3942    3.9776   23.6385 C   0  0  0  0  0  0  0  0  0  0  0  0
    5.7763    3.1511   24.0206 H   0  0  0  0  0  0  0  0  0  0  0  0
    6.4411    3.8105   22.5544 H   0  0  0  0  0  0  0  0  0  0  0  0
   10.6543    2.8383   25.0674 H   0  0  0  0  0  0  0  0  0  0  0  0
    7.8497    6.7858   25.4483 H   0  0  0  0  0  0  0  0  0  0  0  0
    7.5966    5.8850   26.9242 H   0  0  0  0  0  0  0  0  0  0  0  0
    5.5186    4.9007   26.0697 H   0  0  0  0  0  0  0  0  0  0  0  0
    5.4139    6.6214   25.7144 H   0  0  0  0  0  0  0  0  0  0  0  0
    4.6708    5.2557   23.7888 H   0  0  0  0  0  0  0  0  0  0  0  0
    6.0701    6.2394   21.9893 H   0  0  0  0  0  0  0  0  0  0  0  0
    5.8758    7.4283   23.2898 H   0  0  0  0  0  0  0  0  0  0  0  0
    7.3933    6.5247   23.1332 H   0  0  0  0  0  0  0  0  0  0  0  0
  1  2  1  0
  2  3  1  0
  3  4  1  0
  4  5  1  0
  5  6  2  0
  6  7  1  0
  7  8  1  0
  8  9  1  0
  9 10  2  0
 10 11  1  0
 11 12  1  0
 12 13  1  0
 13 14  2  0
 14 15  1  0
 15 16  2  0
 16 17  1  0
 17 18  2  0
 18 19  1  0
 16 20  1  0
 15 21  1  0
 14 22  1  0
 12 23  1  0
 12 24  1  0
 11 25  2  0
 25 26  1  0
 26 27  1  0
 27 28  1  0
 28 29  1  0
 28 30  1  0
 28 31  1  0
 27 32  1  0
 32 33  1  0
 32 34  1  0
 32 35  1  0
 27 36  1  0
  8 37  2  0
 37 38  1  0
 38 39  1  0
 38 40  1  0
  7 41  1  0
  4 42  1  0
  4 43  1  0
  3 44  1  0
  3 45  1  0
  2 46  1  0
  1 47  1  0
  1 48  1  0
  1 49  1  0
 38  2  1  0
 37  5  1  0
 26  9  1  0
 18 13  1  0
M  END
>  <cnnaffinity>  (1) 
-6.09577

>  <filename>  (1) 
CC1CCc2n[nH]c(-c3nc(Cc4cccnc4)nn3C(C)C(F)(F)F)c2C1

$$$$
