
     RDKit          3D

 35 37  0  0  0  0  0  0  0  0999 V2000
    4.9273    1.7951   16.9912 H   0  0  0  0  0  0  0  0  0  0  0  0
    5.4013    1.2949   17.8356 C   0  0  0  0  0  0  0  0  0  0  0  0
    6.5710    0.6877   17.5795 N   0  0  0  0  0  0  0  0  0  0  0  0
    7.1880    0.0724   18.5977 C   0  0  0  0  0  0  0  0  0  0  0  0
    8.1434   -0.3949   18.3418 H   0  0  0  0  0  0  0  0  0  0  0  0
    6.6908    0.0017   19.9132 C   0  0  0  0  0  0  0  0  0  0  0  0
    7.4235   -0.7845   20.9932 C   0  0  0  0  0  0  0  0  0  0  0  0
    7.2134   -0.3399   21.9774 H   0  0  0  0  0  0  0  0  0  0  0  0
    8.5081   -0.7037   20.8600 H   0  0  0  0  0  0  0  0  0  0  0  0
    7.0731   -2.2715   21.1243 C   0  0  0  0  0  0  0  0  0  0  0  0
    8.0793   -3.0300   21.7631 O   0  0  0  0  0  0  0  0  0  0  0  0
    8.2288   -2.9835   23.1305 C   0  0  0  0  0  0  0  0  0  0  0  0
    9.3092   -3.7279   23.6247 C   0  0  0  0  0  0  0  0  0  0  0  0
    9.9099   -4.2513   22.9018 H   0  0  0  0  0  0  0  0  0  0  0  0
    9.5719   -3.7787   24.9890 C   0  0  0  0  0  0  0  0  0  0  0  0
   10.4120   -4.3702   25.3537 H   0  0  0  0  0  0  0  0  0  0  0  0
    8.7511   -3.0714   25.8771 C   0  0  0  0  0  0  0  0  0  0  0  0
    8.9606   -3.0970   26.9424 H   0  0  0  0  0  0  0  0  0  0  0  0
    7.6629   -2.3246   25.4076 C   0  0  0  0  0  0  0  0  0  0  0  0
    6.7722   -1.5801   26.3763 C   0  0  0  0  0  0  0  0  0  0  0  0
    6.3676   -0.6707   25.9150 H   0  0  0  0  0  0  0  0  0  0  0  0
    5.9287   -2.2089   26.6968 H   0  0  0  0  0  0  0  0  0  0  0  0
    7.3299   -1.2864   27.2748 H   0  0  0  0  0  0  0  0  0  0  0  0
    7.3998   -2.2913   24.0236 C   0  0  0  0  0  0  0  0  0  0  0  0
    6.5477   -1.7304   23.6561 H   0  0  0  0  0  0  0  0  0  0  0  0
    6.3193   -2.9923   20.0505 C   0  0  0  0  0  0  0  0  0  0  0  0
    6.0581   -2.4054   19.1728 H   0  0  0  0  0  0  0  0  0  0  0  0
    6.5893   -4.0310   19.8721 H   0  0  0  0  0  0  0  0  0  0  0  0
    5.6586   -2.6794   21.3673 C   0  0  0  0  0  0  0  0  0  0  0  0
    4.9662   -1.8526   21.4490 H   0  0  0  0  0  0  0  0  0  0  0  0
    5.4739   -3.5161   22.0315 H   0  0  0  0  0  0  0  0  0  0  0  0
    5.4615    0.6465   20.1475 C   0  0  0  0  0  0  0  0  0  0  0  0
    5.0134    0.6445   21.1423 H   0  0  0  0  0  0  0  0  0  0  0  0
    4.8099    1.3068   19.0986 C   0  0  0  0  0  0  0  0  0  0  0  0
    3.8717    1.8340   19.2440 H   0  0  0  0  0  0  0  0  0  0  0  0
  1  2  1  0
  2  3  2  0
  3  4  1  0
  4  5  1  0
  4  6  2  0
  6  7  1  0
  7  8  1  0
  7  9  1  0
  7 10  1  0
 10 11  1  0
 11 12  1  0
 12 13  2  0
 13 14  1  0
 13 15  1  0
 15 16  1  0
 15 17  2  0
 17 18  1  0
 17 19  1  0
 19 20  1  0
 20 21  1  0
 20 22  1  0
 20 23  1  0
 19 24  2  0
 24 25  1  0
 10 26  1  0
 26 27  1  0
 26 28  1  0
 26 29  1  0
 29 30  1  0
 29 31  1  0
  6 32  1  0
 32 33  1  0
 32 34  2  0
 34 35  1  0
 34  2  1  0
 29 10  1  0
 24 12  1  0
M  END
>  <cnnaffinity>  (1) 
-4.67426

>  <filename>  (1) 
Cc1cccc(OC2(Cc3cccnc3)CC2)c1

$$$$
