
     RDKit          3D

 52 54  0  0  0  0  0  0  0  0999 V2000
   10.5053   -4.3228   24.9044 C   0  0  0  0  0  0  0  0  0  0  0  0
    9.4702   -4.7078   23.8604 C   0  0  0  0  0  0  0  0  0  0  0  0
    8.8900   -5.9837   23.9360 C   0  0  0  0  0  0  0  0  0  0  0  0
    8.0006   -6.4408   22.9561 C   0  0  0  0  0  0  0  0  0  0  0  0
    7.6699   -5.6205   21.8826 C   0  0  0  0  0  0  0  0  0  0  0  0
    8.2206   -4.3444   21.7953 C   0  0  0  0  0  0  0  0  0  0  0  0
    9.0912   -3.8537   22.7887 C   0  0  0  0  0  0  0  0  0  0  0  0
    9.6004   -2.3887   22.7064 C   0  0  0  0  0  0  0  0  0  0  0  0
   10.9384   -2.1418   21.9864 C   0  0  0  0  0  0  0  0  0  0  0  0
   11.7307   -2.7879   22.3853 H   0  0  0  0  0  0  0  0  0  0  0  0
   11.2711   -1.1109   22.1624 H   0  0  0  0  0  0  0  0  0  0  0  0
   10.8660   -2.2843   20.9054 H   0  0  0  0  0  0  0  0  0  0  0  0
    8.4901   -1.4880   22.2055 C   0  0  0  0  0  0  0  0  0  0  0  0
    8.2756   -0.9771   21.0071 N   0  0  0  0  0  0  0  0  0  0  0  0
    7.0161   -0.4569   21.1086 C   0  0  0  0  0  0  0  0  0  0  0  0
    6.3528    0.1802   19.9711 C   0  0  0  0  0  0  0  0  0  0  0  0
    5.1246    0.8656   20.0374 C   0  0  0  0  0  0  0  0  0  0  0  0
    4.6531    1.4598   18.8681 C   0  0  0  0  0  0  0  0  0  0  0  0
    5.4033    1.3411   17.6907 C   0  0  0  0  0  0  0  0  0  0  0  0
    6.5605    0.6676   17.6149 N   0  0  0  0  0  0  0  0  0  0  0  0
    7.0146    0.1062   18.7380 C   0  0  0  0  0  0  0  0  0  0  0  0
    7.9543   -0.4371   18.6649 H   0  0  0  0  0  0  0  0  0  0  0  0
    5.0601    1.7964   16.7653 H   0  0  0  0  0  0  0  0  0  0  0  0
    3.7287    2.0277   18.8500 H   0  0  0  0  0  0  0  0  0  0  0  0
    4.5636    0.9386   20.9733 H   0  0  0  0  0  0  0  0  0  0  0  0
    6.4679   -0.6038   22.2963 N   0  0  0  0  0  0  0  0  0  0  0  0
    7.4151   -1.2668   22.9981 N   0  0  0  0  0  0  0  0  0  0  0  0
    7.2251   -1.5748   24.4084 C   0  0  0  0  0  0  0  0  0  0  0  0
    7.6954   -0.4777   25.4122 C   0  0  0  0  0  0  0  0  0  0  0  0
    7.6379   -1.0770   26.8291 C   0  0  0  0  0  0  0  0  0  0  0  0
    8.3577   -1.8979   26.9279 H   0  0  0  0  0  0  0  0  0  0  0  0
    6.6408   -1.4676   27.0623 H   0  0  0  0  0  0  0  0  0  0  0  0
    7.8958   -0.3268   27.5867 H   0  0  0  0  0  0  0  0  0  0  0  0
    6.7317    0.7151   25.2639 C   0  0  0  0  0  0  0  0  0  0  0  0
    5.6858    0.4067   25.3822 H   0  0  0  0  0  0  0  0  0  0  0  0
    6.8249    1.1595   24.2663 H   0  0  0  0  0  0  0  0  0  0  0  0
    6.9413    1.4906   26.0083 H   0  0  0  0  0  0  0  0  0  0  0  0
    9.1131    0.0869   25.1649 C   0  0  0  0  0  0  0  0  0  0  0  0
   10.1298   -0.8651   25.4397 O   0  0  0  0  0  0  0  0  0  0  0  0
   10.9755   -0.4124   25.3371 H   0  0  0  0  0  0  0  0  0  0  0  0
    9.2321    0.9536   25.8393 H   0  0  0  0  0  0  0  0  0  0  0  0
    9.2011    0.4612   24.1308 H   0  0  0  0  0  0  0  0  0  0  0  0
    7.6895   -2.5396   24.6272 H   0  0  0  0  0  0  0  0  0  0  0  0
    6.1479   -1.7201   24.5363 H   0  0  0  0  0  0  0  0  0  0  0  0
    9.7755   -2.0844   23.7413 H   0  0  0  0  0  0  0  0  0  0  0  0
    7.9668   -3.6960   20.9586 H   0  0  0  0  0  0  0  0  0  0  0  0
    6.9643   -5.9725   21.1372 H   0  0  0  0  0  0  0  0  0  0  0  0
    7.5572   -7.4273   22.9896 H   0  0  0  0  0  0  0  0  0  0  0  0
    9.1433   -6.6055   24.7946 H   0  0  0  0  0  0  0  0  0  0  0  0
   11.4501   -4.0047   24.4400 H   0  0  0  0  0  0  0  0  0  0  0  0
   10.1454   -3.5049   25.5408 H   0  0  0  0  0  0  0  0  0  0  0  0
   10.7393   -5.1743   25.5539 H   0  0  0  0  0  0  0  0  0  0  0  0
  1  2  1  0
  2  3  2  0
  3  4  1  0
  4  5  2  0
  5  6  1  0
  6  7  2  0
  7  8  1  0
  8  9  1  0
  9 10  1  0
  9 11  1  0
  9 12  1  0
  8 13  1  0
 13 14  2  0
 14 15  1  0
 15 16  1  0
 16 17  2  0
 17 18  1  0
 18 19  2  0
 19 20  1  0
 20 21  2  0
 21 22  1  0
 19 23  1  0
 18 24  1  0
 17 25  1  0
 15 26  2  0
 26 27  1  0
 27 28  1  0
 28 29  1  0
 29 30  1  0
 30 31  1  0
 30 32  1  0
 30 33  1  0
 29 34  1  0
 34 35  1  0
 34 36  1  0
 34 37  1  0
 29 38  1  0
 38 39  1  0
 39 40  1  0
 38 41  1  0
 38 42  1  0
 28 43  1  0
 28 44  1  0
  8 45  1  0
  6 46  1  0
  5 47  1  0
  4 48  1  0
  3 49  1  0
  1 50  1  0
  1 51  1  0
  1 52  1  0
  7  2  1  0
 27 13  1  0
 21 16  1  0
M  END
>  <cnnaffinity>  (1) 
-6.42051

>  <filename>  (1) 
Cc1ccccc1C(C)c1nc(-c2cccnc2)nn1CC(C)(C)CO

$$$$
