
     RDKit          3D

 39 41  0  0  0  0  0  0  0  0999 V2000
    4.9496    1.7799   17.0111 H   0  0  0  0  0  0  0  0  0  0  0  0
    5.4143    1.2743   17.8522 C   0  0  0  0  0  0  0  0  0  0  0  0
    6.5737    0.6527   17.5960 N   0  0  0  0  0  0  0  0  0  0  0  0
    7.1819    0.0316   18.6118 C   0  0  0  0  0  0  0  0  0  0  0  0
    8.1316   -0.4422   18.3637 H   0  0  0  0  0  0  0  0  0  0  0  0
    6.6771   -0.0028   19.9367 C   0  0  0  0  0  0  0  0  0  0  0  0
    7.3563   -0.6632   20.9847 N   0  0  0  0  0  0  0  0  0  0  0  0
    7.3504   -0.2644   22.3168 C   0  0  0  0  0  0  0  0  0  0  0  0
    6.8806    0.7744   22.7445 O   0  0  0  0  0  0  0  0  0  0  0  0
    8.0055   -1.2699   23.0222 N   0  0  0  0  0  0  0  0  0  0  0  0
    8.1650   -1.4049   24.3986 N   0  0  0  0  0  0  0  0  0  0  0  0
    6.9194   -1.6068   25.1612 C   0  0  0  0  0  0  0  0  0  0  0  0
    7.1795   -2.2652   26.0012 H   0  0  0  0  0  0  0  0  0  0  0  0
    6.2159   -2.1487   24.5190 H   0  0  0  0  0  0  0  0  0  0  0  0
    6.2792   -0.3102   25.6915 C   0  0  0  0  0  0  0  0  0  0  0  0
    5.4381   -0.5739   26.3424 H   0  0  0  0  0  0  0  0  0  0  0  0
    5.8869    0.2596   24.8399 H   0  0  0  0  0  0  0  0  0  0  0  0
    7.2942    0.5547   26.4638 C   0  0  0  0  0  0  0  0  0  0  0  0
    7.6533   -0.0246   27.3366 H   0  0  0  0  0  0  0  0  0  0  0  0
    6.6588    1.8532   26.9795 C   0  0  0  0  0  0  0  0  0  0  0  0
    7.3820    2.4619   27.5372 H   0  0  0  0  0  0  0  0  0  0  0  0
    5.8095    1.6496   27.6440 H   0  0  0  0  0  0  0  0  0  0  0  0
    6.2855    2.4651   26.1457 H   0  0  0  0  0  0  0  0  0  0  0  0
    8.4960    0.8347   25.5408 C   0  0  0  0  0  0  0  0  0  0  0  0
    9.2633    1.3958   26.0863 H   0  0  0  0  0  0  0  0  0  0  0  0
    8.1671    1.4411   24.6868 H   0  0  0  0  0  0  0  0  0  0  0  0
    9.1242   -0.4656   25.0049 C   0  0  0  0  0  0  0  0  0  0  0  0
    9.8850   -0.2440   24.2492 H   0  0  0  0  0  0  0  0  0  0  0  0
    9.6101   -1.0116   25.8244 H   0  0  0  0  0  0  0  0  0  0  0  0
    8.4460   -2.3785   22.1987 C   0  0  0  0  0  0  0  0  0  0  0  0
    7.9485   -3.3135   22.4947 H   0  0  0  0  0  0  0  0  0  0  0  0
    9.5255   -2.5486   22.3068 H   0  0  0  0  0  0  0  0  0  0  0  0
    8.0483   -1.9267   20.7860 C   0  0  0  0  0  0  0  0  0  0  0  0
    7.3648   -2.6420   20.3207 H   0  0  0  0  0  0  0  0  0  0  0  0
    8.9242   -1.7950   20.1387 H   0  0  0  0  0  0  0  0  0  0  0  0
    5.4565    0.6477   20.1856 C   0  0  0  0  0  0  0  0  0  0  0  0
    5.0586    0.6529   21.1970 H   0  0  0  0  0  0  0  0  0  0  0  0
    4.8230    1.2904   19.1186 C   0  0  0  0  0  0  0  0  0  0  0  0
    3.8939    1.8216   19.2639 H   0  0  0  0  0  0  0  0  0  0  0  0
  1  2  1  0
  2  3  2  0
  3  4  1  0
  4  5  1  0
  4  6  2  0
  6  7  1  0
  7  8  1  0
  8  9  2  0
  8 10  1  0
 10 11  1  0
 11 12  1  0
 12 13  1  0
 12 14  1  0
 12 15  1  0
 15 16  1  0
 15 17  1  0
 15 18  1  0
 18 19  1  0
 18 20  1  0
 20 21  1  0
 20 22  1  0
 20 23  1  0
 18 24  1  0
 24 25  1  0
 24 26  1  0
 24 27  1  0
 27 28  1  0
 27 29  1  0
 10 30  1  0
 30 31  1  0
 30 32  1  0
 30 33  1  0
 33 34  1  0
 33 35  1  0
  6 36  1  0
 36 37  1  0
 36 38  2  0
 38 39  1  0
 38  2  1  0
 33  7  1  0
 27 11  1  0
M  END
>  <cnnaffinity>  (1) 
-4.90935

>  <filename>  (1) 
CC1CCN(N2CCN(c3cccnc3)C2=O)CC1

$$$$
