
     RDKit          3D

 48 52  0  0  0  0  0  0  0  0999 V2000
   10.7474    0.8343   25.4702 C   0  0  0  0  0  0  0  0  0  0  0  0
    9.3376    1.1057   25.9536 C   0  0  0  0  0  0  0  0  0  0  0  0
    8.8366    0.3966   27.0585 C   0  0  0  0  0  0  0  0  0  0  0  0
    7.5933    0.6986   27.6252 C   0  0  0  0  0  0  0  0  0  0  0  0
    6.7988    1.6933   27.0569 C   0  0  0  0  0  0  0  0  0  0  0  0
    7.2526    2.3567   25.9122 C   0  0  0  0  0  0  0  0  0  0  0  0
    8.5004    2.0676   25.3471 C   0  0  0  0  0  0  0  0  0  0  0  0
    8.8886    2.7604   24.0526 C   0  0  0  0  0  0  0  0  0  0  0  0
    8.9274    1.8670   22.8913 N   0  0  0  0  0  0  0  0  0  0  0  0
    7.8209    1.1566   22.5713 N   0  0  0  0  0  0  0  0  0  0  0  0
    8.2526    0.3155   21.6542 C   0  0  0  0  0  0  0  0  0  0  0  0
    7.3387   -0.6698   20.9745 C   0  0  0  0  0  0  0  0  0  0  0  0
    6.5686   -0.0466   19.8169 C   0  0  0  0  0  0  0  0  0  0  0  0
    5.3679    0.6335   20.0516 C   0  0  0  0  0  0  0  0  0  0  0  0
    4.7616    1.3260   19.0012 C   0  0  0  0  0  0  0  0  0  0  0  0
    5.3835    1.3105   17.7503 C   0  0  0  0  0  0  0  0  0  0  0  0
    6.5180    0.6409   17.4923 N   0  0  0  0  0  0  0  0  0  0  0  0
    7.0857   -0.0178   18.5099 C   0  0  0  0  0  0  0  0  0  0  0  0
    8.0115   -0.5490   18.2786 H   0  0  0  0  0  0  0  0  0  0  0  0
    4.9573    1.8617   16.9151 H   0  0  0  0  0  0  0  0  0  0  0  0
    3.8459    1.8899   19.1451 H   0  0  0  0  0  0  0  0  0  0  0  0
    4.9381    0.6314   21.0544 H   0  0  0  0  0  0  0  0  0  0  0  0
    6.6428   -1.0574   21.7293 H   0  0  0  0  0  0  0  0  0  0  0  0
    7.9565   -1.5051   20.6292 H   0  0  0  0  0  0  0  0  0  0  0  0
    9.5727    0.4368   21.3526 N   0  0  0  0  0  0  0  0  0  0  0  0
    9.9709    1.4336   22.1355 C   0  0  0  0  0  0  0  0  0  0  0  0
   11.3274    2.0399   22.2694 C   0  0  0  0  0  0  0  0  0  0  0  0
   11.5603    3.4241   22.3759 C   0  0  0  0  0  0  0  0  0  0  0  0
   12.8527    3.9256   22.6428 C   0  0  0  0  0  0  0  0  0  0  0  0
   13.9420    3.1753   22.8104 N   0  0  0  0  0  0  0  0  0  0  0  0
   13.7174    1.8599   22.6533 C   0  0  0  0  0  0  0  0  0  0  0  0
   12.4852    1.2238   22.3767 C   0  0  0  0  0  0  0  0  0  0  0  0
   12.8388   -0.1646   22.3186 C   0  0  0  0  0  0  0  0  0  0  0  0
   14.1298   -0.3591   22.5071 N   0  0  0  0  0  0  0  0  0  0  0  0
   14.6440    0.8768   22.7098 N   0  0  0  0  0  0  0  0  0  0  0  0
   15.6236    1.0468   22.8387 H   0  0  0  0  0  0  0  0  0  0  0  0
   12.1862   -1.0113   22.1395 H   0  0  0  0  0  0  0  0  0  0  0  0
   12.9948    4.9994   22.7329 H   0  0  0  0  0  0  0  0  0  0  0  0
   10.7555    4.1466   22.2793 H   0  0  0  0  0  0  0  0  0  0  0  0
    9.8679    3.2260   24.1613 H   0  0  0  0  0  0  0  0  0  0  0  0
    8.1582    3.5406   23.8291 H   0  0  0  0  0  0  0  0  0  0  0  0
    6.6285    3.1128   25.4388 H   0  0  0  0  0  0  0  0  0  0  0  0
    5.8375    1.9537   27.4935 H   0  0  0  0  0  0  0  0  0  0  0  0
    7.2557    0.1630   28.5091 H   0  0  0  0  0  0  0  0  0  0  0  0
    9.4658   -0.3697   27.5063 H   0  0  0  0  0  0  0  0  0  0  0  0
   11.3334    1.7561   25.3959 H   0  0  0  0  0  0  0  0  0  0  0  0
   10.7537    0.3619   24.4832 H   0  0  0  0  0  0  0  0  0  0  0  0
   11.2744    0.1667   26.1554 H   0  0  0  0  0  0  0  0  0  0  0  0
  1  2  1  0
  2  3  2  0
  3  4  1  0
  4  5  2  0
  5  6  1  0
  6  7  2  0
  7  8  1  0
  8  9  1  0
  9 10  1  0
 10 11  2  0
 11 12  1  0
 12 13  1  0
 13 14  2  0
 14 15  1  0
 15 16  2  0
 16 17  1  0
 17 18  2  0
 18 19  1  0
 16 20  1  0
 15 21  1  0
 14 22  1  0
 12 23  1  0
 12 24  1  0
 11 25  1  0
 25 26  2  0
 26 27  1  0
 27 28  2  0
 28 29  1  0
 29 30  2  0
 30 31  1  0
 31 32  2  0
 32 33  1  0
 33 34  2  0
 34 35  1  0
 35 36  1  0
 33 37  1  0
 29 38  1  0
 28 39  1  0
  8 40  1  0
  8 41  1  0
  6 42  1  0
  5 43  1  0
  4 44  1  0
  3 45  1  0
  1 46  1  0
  1 47  1  0
  1 48  1  0
  7  2  1  0
 26  9  1  0
 32 27  1  0
 18 13  1  0
 35 31  1  0
M  END
>  <cnnaffinity>  (1) 
-6.89324

>  <filename>  (1) 
Cc1ccccc1Cn1nc(Cc2cccnc2)nc1-c1ccnc2[nH]ncc12

$$$$
