
     RDKit          3D

 38 40  0  0  0  0  0  0  0  0999 V2000
    6.8045    0.7242   26.2615 C   0  0  0  0  0  0  0  0  0  0  0  0
    7.7018   -0.4450   25.9286 C   0  0  0  0  0  0  0  0  0  0  0  0
    8.4462   -1.0937   26.9278 C   0  0  0  0  0  0  0  0  0  0  0  0
    9.2320   -2.2010   26.6102 C   0  0  0  0  0  0  0  0  0  0  0  0
    9.3551   -2.6676   25.3000 C   0  0  0  0  0  0  0  0  0  0  0  0
   10.3043   -3.8093   25.0132 C   0  0  0  0  0  0  0  0  0  0  0  0
   11.1483   -3.4662   24.4008 H   0  0  0  0  0  0  0  0  0  0  0  0
   10.7115   -4.2190   25.9407 H   0  0  0  0  0  0  0  0  0  0  0  0
    9.8170   -4.6256   24.4639 H   0  0  0  0  0  0  0  0  0  0  0  0
    8.6184   -2.0230   24.2795 C   0  0  0  0  0  0  0  0  0  0  0  0
    8.7389   -2.5021   22.8367 C   0  0  0  0  0  0  0  0  0  0  0  0
    9.3290   -1.4897   21.9686 N   0  0  0  0  0  0  0  0  0  0  0  0
   10.6479   -1.1175   21.9076 C   0  0  0  0  0  0  0  0  0  0  0  0
   10.8198   -0.1249   21.0893 N   0  0  0  0  0  0  0  0  0  0  0  0
    9.5817    0.1865   20.5553 N   0  0  0  0  0  0  0  0  0  0  0  0
    8.7213   -0.6373   21.0977 C   0  0  0  0  0  0  0  0  0  0  0  0
    7.3656   -0.7414   20.8640 N   0  0  0  0  0  0  0  0  0  0  0  0
    6.6969   -0.0311   19.8434 C   0  0  0  0  0  0  0  0  0  0  0  0
    5.4774    0.5921   20.1234 C   0  0  0  0  0  0  0  0  0  0  0  0
    4.8130    1.2770   19.1006 C   0  0  0  0  0  0  0  0  0  0  0  0
    5.3823    1.3043   17.8221 C   0  0  0  0  0  0  0  0  0  0  0  0
    6.5474    0.7018   17.5275 N   0  0  0  0  0  0  0  0  0  0  0  0
    7.1874    0.0647   18.5157 C   0  0  0  0  0  0  0  0  0  0  0  0
    8.1456   -0.3947   18.2794 H   0  0  0  0  0  0  0  0  0  0  0  0
    4.8909    1.8353   17.0103 H   0  0  0  0  0  0  0  0  0  0  0  0
    3.8809    1.7999   19.2904 H   0  0  0  0  0  0  0  0  0  0  0  0
    5.0752    0.5399   21.1345 H   0  0  0  0  0  0  0  0  0  0  0  0
    6.8413   -0.8839   21.7162 H   0  0  0  0  0  0  0  0  0  0  0  0
   11.4350   -1.6219   22.4556 H   0  0  0  0  0  0  0  0  0  0  0  0
    7.7711   -2.8171   22.4252 H   0  0  0  0  0  0  0  0  0  0  0  0
    9.3800   -3.3859   22.7778 H   0  0  0  0  0  0  0  0  0  0  0  0
    7.8112   -0.9233   24.6107 C   0  0  0  0  0  0  0  0  0  0  0  0
    7.2731   -0.3793   23.8313 H   0  0  0  0  0  0  0  0  0  0  0  0
    9.8024   -2.7103   27.3807 H   0  0  0  0  0  0  0  0  0  0  0  0
    8.4593   -0.7110   27.9467 H   0  0  0  0  0  0  0  0  0  0  0  0
    7.2447    1.3693   27.0316 H   0  0  0  0  0  0  0  0  0  0  0  0
    6.6116    1.3399   25.3767 H   0  0  0  0  0  0  0  0  0  0  0  0
    5.8315    0.3899   26.6444 H   0  0  0  0  0  0  0  0  0  0  0  0
  1  2  1  0
  2  3  2  0
  3  4  1  0
  4  5  2  0
  5  6  1  0
  6  7  1  0
  6  8  1  0
  6  9  1  0
  5 10  1  0
 10 11  1  0
 11 12  1  0
 12 13  1  0
 13 14  2  0
 14 15  1  0
 15 16  2  0
 16 17  1  0
 17 18  1  0
 18 19  2  0
 19 20  1  0
 20 21  2  0
 21 22  1  0
 22 23  2  0
 23 24  1  0
 21 25  1  0
 20 26  1  0
 19 27  1  0
 17 28  1  0
 13 29  1  0
 11 30  1  0
 11 31  1  0
 10 32  2  0
 32 33  1  0
  4 34  1  0
  3 35  1  0
  1 36  1  0
  1 37  1  0
  1 38  1  0
 32  2  1  0
 16 12  1  0
 23 18  1  0
M  END
>  <cnnaffinity>  (1) 
-5.04769

>  <filename>  (1) 
Cc1ccc(C)c(Cn2cnnc2Nc2cccnc2)c1

$$$$
