
     RDKit          3D

 48 50  0  0  0  0  0  0  0  0999 V2000
    9.3275    0.6564   20.7780 C   0  0  0  0  0  0  0  0  0  0  0  0
    8.5450   -0.4849   21.3828 C   0  0  0  0  0  0  0  0  0  0  0  0
    9.0708   -1.2627   22.4054 C   0  0  0  0  0  0  0  0  0  0  0  0
    8.4296   -2.2585   22.9937 N   0  0  0  0  0  0  0  0  0  0  0  0
    7.1866   -2.5053   22.5536 C   0  0  0  0  0  0  0  0  0  0  0  0
    6.5062   -3.5292   23.1362 N   0  0  0  0  0  0  0  0  0  0  0  0
    5.1554   -3.8537   22.6890 C   0  0  0  0  0  0  0  0  0  0  0  0
    5.1466   -4.1431   21.6293 H   0  0  0  0  0  0  0  0  0  0  0  0
    4.4636   -3.0110   22.8074 H   0  0  0  0  0  0  0  0  0  0  0  0
    4.7728   -4.6887   23.2857 H   0  0  0  0  0  0  0  0  0  0  0  0
    7.0883   -4.2200   24.2894 C   0  0  0  0  0  0  0  0  0  0  0  0
    6.9527   -3.4704   25.6335 C   0  0  0  0  0  0  0  0  0  0  0  0
    7.3859   -4.3078   26.7431 N   0  0  0  0  0  0  0  0  0  0  0  0
    8.8161   -4.5032   26.9161 C   0  0  0  0  0  0  0  0  0  0  0  0
    9.0713   -5.5720   26.9708 H   0  0  0  0  0  0  0  0  0  0  0  0
    9.1790   -4.0203   27.8319 H   0  0  0  0  0  0  0  0  0  0  0  0
    9.3675   -4.0694   26.0752 H   0  0  0  0  0  0  0  0  0  0  0  0
    6.4912   -5.0361   27.5284 C   0  0  0  0  0  0  0  0  0  0  0  0
    6.8975   -5.4860   28.8007 C   0  0  0  0  0  0  0  0  0  0  0  0
    5.9989   -6.0598   29.6998 C   0  0  0  0  0  0  0  0  0  0  0  0
    4.6829   -6.3174   29.2960 C   0  0  0  0  0  0  0  0  0  0  0  0
    4.2862   -5.9788   27.9973 C   0  0  0  0  0  0  0  0  0  0  0  0
    5.1642   -5.3195   27.1271 C   0  0  0  0  0  0  0  0  0  0  0  0
    4.8354   -5.0233   26.1379 H   0  0  0  0  0  0  0  0  0  0  0  0
    3.2786   -6.2167   27.6582 H   0  0  0  0  0  0  0  0  0  0  0  0
    3.9871   -6.7889   29.9860 H   0  0  0  0  0  0  0  0  0  0  0  0
    6.3368   -6.2933   30.7100 H   0  0  0  0  0  0  0  0  0  0  0  0
    7.9457   -5.3975   29.0439 H   0  0  0  0  0  0  0  0  0  0  0  0
    5.9202   -3.1287   25.7904 H   0  0  0  0  0  0  0  0  0  0  0  0
    7.5767   -2.5617   25.5904 H   0  0  0  0  0  0  0  0  0  0  0  0
    6.6227   -5.2098   24.3983 H   0  0  0  0  0  0  0  0  0  0  0  0
    8.1599   -4.3859   24.1134 H   0  0  0  0  0  0  0  0  0  0  0  0
    6.5606   -1.8425   21.5767 N   0  0  0  0  0  0  0  0  0  0  0  0
    7.2264   -0.8414   21.0259 C   0  0  0  0  0  0  0  0  0  0  0  0
    6.5110   -0.1060   19.9789 C   0  0  0  0  0  0  0  0  0  0  0  0
    5.3098    0.5849   20.1800 C   0  0  0  0  0  0  0  0  0  0  0  0
    4.7879    1.3018   19.1014 C   0  0  0  0  0  0  0  0  0  0  0  0
    5.4589    1.2714   17.8708 C   0  0  0  0  0  0  0  0  0  0  0  0
    6.5840    0.5735   17.6622 N   0  0  0  0  0  0  0  0  0  0  0  0
    7.0810   -0.0960   18.7060 C   0  0  0  0  0  0  0  0  0  0  0  0
    8.0035   -0.6411   18.5145 H   0  0  0  0  0  0  0  0  0  0  0  0
    5.0712    1.8178   17.0125 H   0  0  0  0  0  0  0  0  0  0  0  0
    3.8743    1.8817   19.1918 H   0  0  0  0  0  0  0  0  0  0  0  0
    4.8010    0.5702   21.1486 H   0  0  0  0  0  0  0  0  0  0  0  0
   10.0800   -1.0471   22.7682 H   0  0  0  0  0  0  0  0  0  0  0  0
   10.2498    0.8579   21.3335 H   0  0  0  0  0  0  0  0  0  0  0  0
    9.5980    0.4494   19.7392 H   0  0  0  0  0  0  0  0  0  0  0  0
    8.7266    1.5710   20.7556 H   0  0  0  0  0  0  0  0  0  0  0  0
  1  2  1  0
  2  3  2  0
  3  4  1  0
  4  5  2  0
  5  6  1  0
  6  7  1  0
  7  8  1  0
  7  9  1  0
  7 10  1  0
  6 11  1  0
 11 12  1  0
 12 13  1  0
 13 14  1  0
 14 15  1  0
 14 16  1  0
 14 17  1  0
 13 18  1  0
 18 19  2  0
 19 20  1  0
 20 21  2  0
 21 22  1  0
 22 23  2  0
 23 24  1  0
 22 25  1  0
 21 26  1  0
 20 27  1  0
 19 28  1  0
 12 29  1  0
 12 30  1  0
 11 31  1  0
 11 32  1  0
  5 33  1  0
 33 34  2  0
 34 35  1  0
 35 36  2  0
 36 37  1  0
 37 38  2  0
 38 39  1  0
 39 40  2  0
 40 41  1  0
 38 42  1  0
 37 43  1  0
 36 44  1  0
  3 45  1  0
  1 46  1  0
  1 47  1  0
  1 48  1  0
 34  2  1  0
 40 35  1  0
 23 18  1  0
M  END
>  <cnnaffinity>  (1) 
-5.24337

>  <filename>  (1) 
Cc1cnc(N(C)CCN(C)c2ccccc2)nc1-c1cccnc1

$$$$
