
     RDKit          3D

 31 33  0  0  0  0  0  0  0  0999 V2000
   10.2906   -1.6778   21.6708 C   0  0  0  0  0  0  0  0  0  0  0  0
    9.4687   -1.6720   22.9334 C   0  0  0  0  0  0  0  0  0  0  0  0
    8.3665   -0.8970   23.1818 C   0  0  0  0  0  0  0  0  0  0  0  0
    7.5022   -0.0850   22.2807 C   0  0  0  0  0  0  0  0  0  0  0  0
    6.8840    0.8768   22.6987 O   0  0  0  0  0  0  0  0  0  0  0  0
    7.4385   -0.5503   20.9841 N   0  0  0  0  0  0  0  0  0  0  0  0
    6.7092    0.0232   19.9046 C   0  0  0  0  0  0  0  0  0  0  0  0
    5.4805    0.6524   20.1436 C   0  0  0  0  0  0  0  0  0  0  0  0
    4.8313    1.2798   19.0757 C   0  0  0  0  0  0  0  0  0  0  0  0
    5.4214    1.2621   17.8074 C   0  0  0  0  0  0  0  0  0  0  0  0
    6.5740    0.6223   17.5502 N   0  0  0  0  0  0  0  0  0  0  0  0
    7.1911    0.0143   18.5741 C   0  0  0  0  0  0  0  0  0  0  0  0
    8.1245   -0.4910   18.3293 H   0  0  0  0  0  0  0  0  0  0  0  0
    4.9547    1.7811   16.9717 H   0  0  0  0  0  0  0  0  0  0  0  0
    3.8967    1.8096   19.2307 H   0  0  0  0  0  0  0  0  0  0  0  0
    5.0742    0.6554   21.1516 H   0  0  0  0  0  0  0  0  0  0  0  0
    7.8777   -1.4470   20.8401 H   0  0  0  0  0  0  0  0  0  0  0  0
    7.8271   -0.9592   24.8418 S   0  0  0  0  0  0  0  0  0  0  0  0
    8.9555   -2.2306   25.1851 C   0  0  0  0  0  0  0  0  0  0  0  0
    9.0690   -2.9759   26.3721 C   0  0  0  0  0  0  0  0  0  0  0  0
   10.0263   -3.9769   26.4603 C   0  0  0  0  0  0  0  0  0  0  0  0
   10.8806   -4.2580   25.3680 C   0  0  0  0  0  0  0  0  0  0  0  0
   10.7908   -3.5056   24.2014 C   0  0  0  0  0  0  0  0  0  0  0  0
    9.7920   -2.5049   24.0762 C   0  0  0  0  0  0  0  0  0  0  0  0
   11.4850   -3.6701   23.3781 H   0  0  0  0  0  0  0  0  0  0  0  0
   11.6460   -5.0300   25.4522 H   0  0  0  0  0  0  0  0  0  0  0  0
   10.1414   -4.4935   27.4120 H   0  0  0  0  0  0  0  0  0  0  0  0
    8.4021   -2.7808   27.2061 H   0  0  0  0  0  0  0  0  0  0  0  0
   10.1117   -0.7888   21.0595 H   0  0  0  0  0  0  0  0  0  0  0  0
   11.3613   -1.7031   21.9014 H   0  0  0  0  0  0  0  0  0  0  0  0
   10.0780   -2.5567   21.0543 H   0  0  0  0  0  0  0  0  0  0  0  0
  1  2  1  0
  2  3  2  0
  3  4  1  0
  4  5  2  0
  4  6  1  0
  6  7  1  0
  7  8  2  0
  8  9  1  0
  9 10  2  0
 10 11  1  0
 11 12  2  0
 12 13  1  0
 10 14  1  0
  9 15  1  0
  8 16  1  0
  6 17  1  0
  3 18  1  0
 18 19  1  0
 19 20  2  0
 20 21  1  0
 21 22  2  0
 22 23  1  0
 23 24  2  0
 23 25  1  0
 22 26  1  0
 21 27  1  0
 20 28  1  0
  1 29  1  0
  1 30  1  0
  1 31  1  0
 24  2  1  0
 12  7  1  0
 24 19  1  0
M  END
>  <cnnaffinity>  (1) 
-5.16915

>  <filename>  (1) 
Cc1c(C(=O)Nc2cccnc2)sc2ccccc12

$$$$
