
     RDKit          3D

 31 33  0  0  0  0  0  0  0  0999 V2000
    9.1491   -2.9602   22.0417 H   0  0  0  0  0  0  0  0  0  0  0  0
    8.5329   -2.0864   21.8968 C   0  0  0  0  0  0  0  0  0  0  0  0
    8.2175   -1.2402   22.9187 N   0  0  0  0  0  0  0  0  0  0  0  0
    7.4816   -0.3546   22.3019 C   0  0  0  0  0  0  0  0  0  0  0  0
    6.8801    0.7292   22.8086 O   0  0  0  0  0  0  0  0  0  0  0  0
    7.1974    1.2335   24.0761 C   0  0  0  0  0  0  0  0  0  0  0  0
    8.4872    1.1710   24.6089 C   0  0  0  0  0  0  0  0  0  0  0  0
    9.2743    0.6771   24.0526 H   0  0  0  0  0  0  0  0  0  0  0  0
    8.7247    1.7292   25.8673 C   0  0  0  0  0  0  0  0  0  0  0  0
    9.7168    1.6488   26.3014 H   0  0  0  0  0  0  0  0  0  0  0  0
    7.7075    2.3645   26.5780 C   0  0  0  0  0  0  0  0  0  0  0  0
    7.9078    2.7905   27.5611 H   0  0  0  0  0  0  0  0  0  0  0  0
    6.4224    2.4673   26.0220 C   0  0  0  0  0  0  0  0  0  0  0  0
    5.3404    3.2007   26.7764 C   0  0  0  0  0  0  0  0  0  0  0  0
    5.4766    3.1364   27.8614 H   0  0  0  0  0  0  0  0  0  0  0  0
    4.3439    2.8139   26.5493 H   0  0  0  0  0  0  0  0  0  0  0  0
    5.3375    4.2663   26.5258 H   0  0  0  0  0  0  0  0  0  0  0  0
    6.1766    1.9058   24.7576 C   0  0  0  0  0  0  0  0  0  0  0  0
    5.1922    2.0113   24.3124 H   0  0  0  0  0  0  0  0  0  0  0  0
    7.3539   -0.6390   20.9696 N   0  0  0  0  0  0  0  0  0  0  0  0
    6.6548    0.0159   19.9139 C   0  0  0  0  0  0  0  0  0  0  0  0
    7.1782    0.0468   18.6038 C   0  0  0  0  0  0  0  0  0  0  0  0
    8.1231   -0.4383   18.3748 H   0  0  0  0  0  0  0  0  0  0  0  0
    6.5726    0.6696   17.5904 N   0  0  0  0  0  0  0  0  0  0  0  0
    5.4055    1.2896   17.8403 C   0  0  0  0  0  0  0  0  0  0  0  0
    4.9227    1.7802   16.9956 H   0  0  0  0  0  0  0  0  0  0  0  0
    4.8070    1.3018   19.1046 C   0  0  0  0  0  0  0  0  0  0  0  0
    3.8767    1.8392   19.2595 H   0  0  0  0  0  0  0  0  0  0  0  0
    5.4349    0.6497   20.1685 C   0  0  0  0  0  0  0  0  0  0  0  0
    5.0078    0.6370   21.1708 H   0  0  0  0  0  0  0  0  0  0  0  0
    8.0671   -1.7768   20.7137 N   0  0  0  0  0  0  0  0  0  0  0  0
  1  2  1  0
  2  3  1  0
  3  4  2  0
  4  5  1  0
  5  6  1  0
  6  7  2  0
  7  8  1  0
  7  9  1  0
  9 10  1  0
  9 11  2  0
 11 12  1  0
 11 13  1  0
 13 14  1  0
 14 15  1  0
 14 16  1  0
 14 17  1  0
 13 18  2  0
 18 19  1  0
  4 20  1  0
 20 21  1  0
 21 22  2  0
 22 23  1  0
 22 24  1  0
 24 25  2  0
 25 26  1  0
 25 27  1  0
 27 28  1  0
 27 29  2  0
 29 30  1  0
 20 31  1  0
 31  2  2  0
 18  6  1  0
 29 21  1  0
M  END
>  <cnnaffinity>  (1) 
-5.05137

>  <filename>  (1) 
Cc1cccc(Oc2ncnn2-c2cccnc2)c1

$$$$
