
     RDKit          3D

 50 54  0  0  0  0  0  0  0  0999 V2000
   12.6762    2.6451   23.6552 C   0  0  0  0  0  0  0  0  0  0  0  0
   12.5911    1.6190   22.5315 C   0  0  0  0  0  0  0  0  0  0  0  0
   13.5760    0.4355   22.5976 C   0  0  0  0  0  0  0  0  0  0  0  0
   12.7990   -0.7257   21.9208 C   0  0  0  0  0  0  0  0  0  0  0  0
   11.5566   -0.1783   21.4973 O   0  0  0  0  0  0  0  0  0  0  0  0
   11.2546    0.8963   22.3684 C   0  0  0  0  0  0  0  0  0  0  0  0
   10.1585    1.7558   21.7601 C   0  0  0  0  0  0  0  0  0  0  0  0
    8.8195    1.1265   21.8717 C   0  0  0  0  0  0  0  0  0  0  0  0
    8.4152    0.0885   21.1740 N   0  0  0  0  0  0  0  0  0  0  0  0
    7.1033   -0.0249   21.5081 C   0  0  0  0  0  0  0  0  0  0  0  0
    6.2084   -0.9898   20.7795 C   0  0  0  0  0  0  0  0  0  0  0  0
    5.7412   -0.3602   19.4744 C   0  0  0  0  0  0  0  0  0  0  0  0
    4.6103    0.4624   19.4552 C   0  0  0  0  0  0  0  0  0  0  0  0
    4.3707    1.2530   18.3304 C   0  0  0  0  0  0  0  0  0  0  0  0
    5.2664    1.1767   17.2586 C   0  0  0  0  0  0  0  0  0  0  0  0
    6.3240    0.3516   17.2274 N   0  0  0  0  0  0  0  0  0  0  0  0
    6.5415   -0.3960   18.3158 C   0  0  0  0  0  0  0  0  0  0  0  0
    7.4231   -1.0391   18.2967 H   0  0  0  0  0  0  0  0  0  0  0  0
    5.1370    1.8135   16.3879 H   0  0  0  0  0  0  0  0  0  0  0  0
    3.5347    1.9433   18.2851 H   0  0  0  0  0  0  0  0  0  0  0  0
    3.9481    0.4932   20.3246 H   0  0  0  0  0  0  0  0  0  0  0  0
    6.7908   -1.8981   20.5972 H   0  0  0  0  0  0  0  0  0  0  0  0
    5.3571   -1.2443   21.4161 H   0  0  0  0  0  0  0  0  0  0  0  0
    6.6713    0.8773   22.3660 N   0  0  0  0  0  0  0  0  0  0  0  0
    7.7996    1.5947   22.6434 N   0  0  0  0  0  0  0  0  0  0  0  0
    7.7840    2.7639   23.4591 C   0  0  0  0  0  0  0  0  0  0  0  0
    8.6452    2.9997   24.5365 C   0  0  0  0  0  0  0  0  0  0  0  0
    8.5393    4.2008   25.2879 C   0  0  0  0  0  0  0  0  0  0  0  0
    7.6076    5.1877   24.9592 C   0  0  0  0  0  0  0  0  0  0  0  0
    6.7768    4.9838   23.8403 C   0  0  0  0  0  0  0  0  0  0  0  0
    6.8739    3.7803   23.1251 C   0  0  0  0  0  0  0  0  0  0  0  0
    5.9600    3.8962   22.1093 N   0  0  0  0  0  0  0  0  0  0  0  0
    5.3556    5.1080   22.2530 C   0  0  0  0  0  0  0  0  0  0  0  0
    5.8046    5.7949   23.2679 N   0  0  0  0  0  0  0  0  0  0  0  0
    4.5818    5.4362   21.5694 H   0  0  0  0  0  0  0  0  0  0  0  0
    5.7308    3.1502   21.4742 H   0  0  0  0  0  0  0  0  0  0  0  0
    7.4961    6.0987   25.5385 H   0  0  0  0  0  0  0  0  0  0  0  0
    9.2034    4.3552   26.1328 H   0  0  0  0  0  0  0  0  0  0  0  0
    9.3728    2.2411   24.8215 H   0  0  0  0  0  0  0  0  0  0  0  0
   10.1553    2.7434   22.2296 H   0  0  0  0  0  0  0  0  0  0  0  0
   10.3777    1.9099   20.7023 H   0  0  0  0  0  0  0  0  0  0  0  0
   10.9243    0.5069   23.3535 H   0  0  0  0  0  0  0  0  0  0  0  0
   13.3045   -1.1368   21.0433 H   0  0  0  0  0  0  0  0  0  0  0  0
   12.6264   -1.5675   22.6065 H   0  0  0  0  0  0  0  0  0  0  0  0
   14.5196    0.6627   22.0900 H   0  0  0  0  0  0  0  0  0  0  0  0
   13.8243    0.1792   23.6344 H   0  0  0  0  0  0  0  0  0  0  0  0
   12.7420    2.1534   21.5886 H   0  0  0  0  0  0  0  0  0  0  0  0
   12.5141    2.1788   24.6344 H   0  0  0  0  0  0  0  0  0  0  0  0
   11.9261    3.4397   23.5378 H   0  0  0  0  0  0  0  0  0  0  0  0
   13.6652    3.1217   23.6557 H   0  0  0  0  0  0  0  0  0  0  0  0
  1  2  1  0
  2  3  1  0
  3  4  1  0
  4  5  1  0
  5  6  1  0
  6  7  1  0
  7  8  1  0
  8  9  2  0
  9 10  1  0
 10 11  1  0
 11 12  1  0
 12 13  2  0
 13 14  1  0
 14 15  2  0
 15 16  1  0
 16 17  2  0
 17 18  1  0
 15 19  1  0
 14 20  1  0
 13 21  1  0
 11 22  1  0
 11 23  1  0
 10 24  2  0
 24 25  1  0
 25 26  1  0
 26 27  2  0
 27 28  1  0
 28 29  2  0
 29 30  1  0
 30 31  2  0
 31 32  1  0
 32 33  1  0
 33 34  2  0
 33 35  1  0
 32 36  1  0
 29 37  1  0
 28 38  1  0
 27 39  1  0
  7 40  1  0
  7 41  1  0
  6 42  1  0
  4 43  1  0
  4 44  1  0
  3 45  1  0
  3 46  1  0
  2 47  1  0
  1 48  1  0
  1 49  1  0
  1 50  1  0
  6  2  1  0
 25  8  1  0
 31 26  1  0
 17 12  1  0
 34 30  1  0
M  END
>  <cnnaffinity>  (1) 
-6.51363

>  <filename>  (1) 
CC1CCOC1Cc1nc(Cc2cccnc2)nn1-c1cccc2nc[nH]c12

$$$$
