
     RDKit          3D

 44 48  0  0  0  0  0  0  0  0999 V2000
    9.5025    5.0398   23.1607 C   0  0  0  0  0  0  0  0  0  0  0  0
    9.1786    4.0622   24.2532 C   0  0  0  0  0  0  0  0  0  0  0  0
    8.7732    2.7378   24.1282 C   0  0  0  0  0  0  0  0  0  0  0  0
    8.6539    1.8243   22.9941 C   0  0  0  0  0  0  0  0  0  0  0  0
    7.6513    0.9743   22.8019 N   0  0  0  0  0  0  0  0  0  0  0  0
    7.9567    0.4052   21.6132 C   0  0  0  0  0  0  0  0  0  0  0  0
    7.1207   -0.6502   20.9390 C   0  0  0  0  0  0  0  0  0  0  0  0
    6.3810   -0.1061   19.7267 C   0  0  0  0  0  0  0  0  0  0  0  0
    5.2191    0.6515   19.9110 C   0  0  0  0  0  0  0  0  0  0  0  0
    4.6840    1.3395   18.8224 C   0  0  0  0  0  0  0  0  0  0  0  0
    5.3316    1.2421   17.5867 C   0  0  0  0  0  0  0  0  0  0  0  0
    6.4164    0.4831   17.3736 N   0  0  0  0  0  0  0  0  0  0  0  0
    6.9158   -0.1733   18.4282 C   0  0  0  0  0  0  0  0  0  0  0  0
    7.7996   -0.7844   18.2398 H   0  0  0  0  0  0  0  0  0  0  0  0
    4.9709    1.8057   16.7302 H   0  0  0  0  0  0  0  0  0  0  0  0
    3.8030    1.9629   18.9250 H   0  0  0  0  0  0  0  0  0  0  0  0
    4.7570    0.7117   20.8989 H   0  0  0  0  0  0  0  0  0  0  0  0
    7.8024   -1.4594   20.6541 H   0  0  0  0  0  0  0  0  0  0  0  0
    6.4221   -1.0445   21.6836 H   0  0  0  0  0  0  0  0  0  0  0  0
    9.0990    0.7987   21.0766 N   0  0  0  0  0  0  0  0  0  0  0  0
    9.5608    1.7040   21.9765 N   0  0  0  0  0  0  0  0  0  0  0  0
   10.9206    2.1373   21.9982 C   0  0  0  0  0  0  0  0  0  0  0  0
   11.4982    2.9855   21.0565 C   0  0  0  0  0  0  0  0  0  0  0  0
   12.6991    3.6689   21.3420 C   0  0  0  0  0  0  0  0  0  0  0  0
   13.4467    3.3635   22.4798 C   0  0  0  0  0  0  0  0  0  0  0  0
   12.9874    2.3079   23.2940 C   0  0  0  0  0  0  0  0  0  0  0  0
   11.7342    1.7321   23.0636 C   0  0  0  0  0  0  0  0  0  0  0  0
   11.6045    0.7366   24.0061 N   0  0  0  0  0  0  0  0  0  0  0  0
   12.7783    0.7166   24.6991 C   0  0  0  0  0  0  0  0  0  0  0  0
   13.6141    1.6306   24.3137 N   0  0  0  0  0  0  0  0  0  0  0  0
   12.9518    0.0189   25.5076 H   0  0  0  0  0  0  0  0  0  0  0  0
   10.9356   -0.0096   23.9579 H   0  0  0  0  0  0  0  0  0  0  0  0
   14.3839    3.8603   22.7051 H   0  0  0  0  0  0  0  0  0  0  0  0
   13.0325    4.4439   20.6566 H   0  0  0  0  0  0  0  0  0  0  0  0
   11.0417    3.0953   20.0841 H   0  0  0  0  0  0  0  0  0  0  0  0
    8.3970    2.2967   25.3667 N   0  0  0  0  0  0  0  0  0  0  0  0
    8.5952    3.2725   26.2933 C   0  0  0  0  0  0  0  0  0  0  0  0
    9.0878    4.3702   25.6395 C   0  0  0  0  0  0  0  0  0  0  0  0
    9.3297    5.3244   26.0967 H   0  0  0  0  0  0  0  0  0  0  0  0
    8.3822    3.1078   27.3407 H   0  0  0  0  0  0  0  0  0  0  0  0
    7.9119    1.4208   25.4998 H   0  0  0  0  0  0  0  0  0  0  0  0
   10.5567    5.0072   22.8722 H   0  0  0  0  0  0  0  0  0  0  0  0
    8.9095    4.8352   22.2635 H   0  0  0  0  0  0  0  0  0  0  0  0
    9.2868    6.0642   23.4819 H   0  0  0  0  0  0  0  0  0  0  0  0
  1  2  1  0
  2  3  2  0
  3  4  1  0
  4  5  2  0
  5  6  1  0
  6  7  1  0
  7  8  1  0
  8  9  2  0
  9 10  1  0
 10 11  2  0
 11 12  1  0
 12 13  2  0
 13 14  1  0
 11 15  1  0
 10 16  1  0
  9 17  1  0
  7 18  1  0
  7 19  1  0
  6 20  2  0
 20 21  1  0
 21 22  1  0
 22 23  2  0
 23 24  1  0
 24 25  2  0
 25 26  1  0
 26 27  2  0
 27 28  1  0
 28 29  1  0
 29 30  2  0
 29 31  1  0
 28 32  1  0
 25 33  1  0
 24 34  1  0
 23 35  1  0
  3 36  1  0
 36 37  1  0
 37 38  2  0
 38 39  1  0
 37 40  1  0
 36 41  1  0
  1 42  1  0
  1 43  1  0
  1 44  1  0
 38  2  1  0
 21  4  1  0
 27 22  1  0
 13  8  1  0
 30 26  1  0
M  END
>  <cnnaffinity>  (1) 
-6.09472

>  <filename>  (1) 
Cc1cc[nH]c1-c1nc(Cc2cccnc2)nn1-c1cccc2nc[nH]c12

$$$$
