
     RDKit          3D

 50 54  0  0  0  0  0  0  0  0999 V2000
    7.5464    4.5858   22.6374 C   0  0  0  0  0  0  0  0  0  0  0  0
    7.7399    3.9884   24.0395 C   0  0  0  0  0  0  0  0  0  0  0  0
    6.4494    3.3904   24.6210 C   0  0  0  0  0  0  0  0  0  0  0  0
    6.6510    2.8319   25.9174 O   0  0  0  0  0  0  0  0  0  0  0  0
    7.6182    1.7893   25.9534 C   0  0  0  0  0  0  0  0  0  0  0  0
    8.9762    2.3108   25.4963 C   0  0  0  0  0  0  0  0  0  0  0  0
    8.8516    2.9126   24.0780 C   0  0  0  0  0  0  0  0  0  0  0  0
    8.7222    1.8519   23.0032 C   0  0  0  0  0  0  0  0  0  0  0  0
    7.6677    1.1328   22.6403 N   0  0  0  0  0  0  0  0  0  0  0  0
    8.1739    0.2659   21.7216 C   0  0  0  0  0  0  0  0  0  0  0  0
    7.3526   -0.7180   20.9413 C   0  0  0  0  0  0  0  0  0  0  0  0
    6.6066   -0.0681   19.7871 C   0  0  0  0  0  0  0  0  0  0  0  0
    5.4119    0.6100   20.0489 C   0  0  0  0  0  0  0  0  0  0  0  0
    4.7887    1.3068   19.0142 C   0  0  0  0  0  0  0  0  0  0  0  0
    5.3908    1.3052   17.7533 C   0  0  0  0  0  0  0  0  0  0  0  0
    6.5309    0.6524   17.4744 N   0  0  0  0  0  0  0  0  0  0  0  0
    7.1141   -0.0164   18.4776 C   0  0  0  0  0  0  0  0  0  0  0  0
    8.0451   -0.5341   18.2351 H   0  0  0  0  0  0  0  0  0  0  0  0
    4.9413    1.8509   16.9267 H   0  0  0  0  0  0  0  0  0  0  0  0
    3.8710    1.8584   19.1818 H   0  0  0  0  0  0  0  0  0  0  0  0
    5.0106    0.6004   21.0638 H   0  0  0  0  0  0  0  0  0  0  0  0
    8.0330   -1.4971   20.5826 H   0  0  0  0  0  0  0  0  0  0  0  0
    6.6414   -1.1816   21.6334 H   0  0  0  0  0  0  0  0  0  0  0  0
    9.4674    0.3881   21.5057 N   0  0  0  0  0  0  0  0  0  0  0  0
    9.8054    1.4318   22.3032 N   0  0  0  0  0  0  0  0  0  0  0  0
   11.1160    1.9749   22.3611 C   0  0  0  0  0  0  0  0  0  0  0  0
   11.3157    3.3922   22.2835 C   0  0  0  0  0  0  0  0  0  0  0  0
   12.5766    3.9483   22.3241 C   0  0  0  0  0  0  0  0  0  0  0  0
   13.6492    3.0462   22.4581 C   0  0  0  0  0  0  0  0  0  0  0  0
   14.9904    3.2294   22.3342 N   0  0  0  0  0  0  0  0  0  0  0  0
   15.6754    2.0312   22.3188 N   0  0  0  0  0  0  0  0  0  0  0  0
   14.7760    1.1030   22.5485 C   0  0  0  0  0  0  0  0  0  0  0  0
   13.4622    1.6538   22.6073 C   0  0  0  0  0  0  0  0  0  0  0  0
   12.1695    1.1042   22.5396 C   0  0  0  0  0  0  0  0  0  0  0  0
   11.9782    0.0415   22.6406 H   0  0  0  0  0  0  0  0  0  0  0  0
   15.0443    0.0548   22.5461 H   0  0  0  0  0  0  0  0  0  0  0  0
   15.4219    4.0267   21.8959 H   0  0  0  0  0  0  0  0  0  0  0  0
   12.7245    5.0188   22.2686 H   0  0  0  0  0  0  0  0  0  0  0  0
   10.4600    4.0517   22.1978 H   0  0  0  0  0  0  0  0  0  0  0  0
    9.7870    3.4244   23.8950 H   0  0  0  0  0  0  0  0  0  0  0  0
    9.3062    3.0924   26.1929 H   0  0  0  0  0  0  0  0  0  0  0  0
    9.7387    1.5231   25.4993 H   0  0  0  0  0  0  0  0  0  0  0  0
    7.3091    0.9519   25.3068 H   0  0  0  0  0  0  0  0  0  0  0  0
    7.6584    1.4306   26.9869 H   0  0  0  0  0  0  0  0  0  0  0  0
    5.6896    4.1695   24.7474 H   0  0  0  0  0  0  0  0  0  0  0  0
    6.0705    2.6273   23.9242 H   0  0  0  0  0  0  0  0  0  0  0  0
    8.0501    4.7941   24.7233 H   0  0  0  0  0  0  0  0  0  0  0  0
    6.7973    5.3849   22.6394 H   0  0  0  0  0  0  0  0  0  0  0  0
    8.4770    5.0219   22.2485 H   0  0  0  0  0  0  0  0  0  0  0  0
    7.2250    3.8249   21.9146 H   0  0  0  0  0  0  0  0  0  0  0  0
  1  2  1  0
  2  3  1  0
  3  4  1  0
  4  5  1  0
  5  6  1  0
  6  7  1  0
  7  8  1  0
  8  9  2  0
  9 10  1  0
 10 11  1  0
 11 12  1  0
 12 13  2  0
 13 14  1  0
 14 15  2  0
 15 16  1  0
 16 17  2  0
 17 18  1  0
 15 19  1  0
 14 20  1  0
 13 21  1  0
 11 22  1  0
 11 23  1  0
 10 24  2  0
 24 25  1  0
 25 26  1  0
 26 27  2  0
 27 28  1  0
 28 29  2  0
 29 30  1  0
 30 31  1  0
 31 32  2  0
 32 33  1  0
 33 34  2  0
 34 35  1  0
 32 36  1  0
 30 37  1  0
 28 38  1  0
 27 39  1  0
  7 40  1  0
  6 41  1  0
  6 42  1  0
  5 43  1  0
  5 44  1  0
  3 45  1  0
  3 46  1  0
  2 47  1  0
  1 48  1  0
  1 49  1  0
  1 50  1  0
  7  2  1  0
 25  8  1  0
 34 26  1  0
 17 12  1  0
 33 29  1  0
M  END
>  <cnnaffinity>  (1) 
-6.1992

>  <filename>  (1) 
CC1COCCC1c1nc(Cc2cccnc2)nn1-c1ccc2[nH]ncc2c1

$$$$
