
     RDKit          3D

 45 49  0  0  0  0  0  0  0  0999 V2000
   11.8764    0.9244   24.6985 C   0  0  0  0  0  0  0  0  0  0  0  0
   12.0193    1.8636   23.5150 C   0  0  0  0  0  0  0  0  0  0  0  0
   13.1684    2.6614   23.3943 C   0  0  0  0  0  0  0  0  0  0  0  0
   13.3553    3.5862   22.3660 C   0  0  0  0  0  0  0  0  0  0  0  0
   12.4008    3.6362   21.3600 C   0  0  0  0  0  0  0  0  0  0  0  0
   12.5650    4.5135   20.3614 F   0  0  0  0  0  0  0  0  0  0  0  0
   11.2952    2.7956   21.3636 C   0  0  0  0  0  0  0  0  0  0  0  0
   11.0647    1.9953   22.4839 C   0  0  0  0  0  0  0  0  0  0  0  0
    9.7822    1.3688   22.5516 N   0  0  0  0  0  0  0  0  0  0  0  0
    9.3946    0.5226   21.5675 N   0  0  0  0  0  0  0  0  0  0  0  0
    8.1668    0.2025   21.9190 C   0  0  0  0  0  0  0  0  0  0  0  0
    7.3334   -0.7039   21.0581 C   0  0  0  0  0  0  0  0  0  0  0  0
    6.6388   -0.0045   19.8876 C   0  0  0  0  0  0  0  0  0  0  0  0
    5.4649    0.7386   20.0787 C   0  0  0  0  0  0  0  0  0  0  0  0
    4.8727    1.3650   18.9780 C   0  0  0  0  0  0  0  0  0  0  0  0
    5.4853    1.2496   17.7269 C   0  0  0  0  0  0  0  0  0  0  0  0
    6.6175    0.5599   17.5214 N   0  0  0  0  0  0  0  0  0  0  0  0
    7.1698   -0.0359   18.5853 C   0  0  0  0  0  0  0  0  0  0  0  0
    8.1077   -0.5602   18.4021 H   0  0  0  0  0  0  0  0  0  0  0  0
    5.0506    1.7262   16.8491 H   0  0  0  0  0  0  0  0  0  0  0  0
    3.9605    1.9461   19.0724 H   0  0  0  0  0  0  0  0  0  0  0  0
    5.0300    0.8375   21.0756 H   0  0  0  0  0  0  0  0  0  0  0  0
    7.9879   -1.4980   20.6802 H   0  0  0  0  0  0  0  0  0  0  0  0
    6.5993   -1.1727   21.7191 H   0  0  0  0  0  0  0  0  0  0  0  0
    7.7260    0.7932   23.0559 N   0  0  0  0  0  0  0  0  0  0  0  0
    8.7379    1.5736   23.4100 C   0  0  0  0  0  0  0  0  0  0  0  0
    8.7373    2.6019   24.5016 C   0  0  0  0  0  0  0  0  0  0  0  0
    8.2984    2.2938   25.7965 C   0  0  0  0  0  0  0  0  0  0  0  0
    8.3842    3.2434   26.8414 C   0  0  0  0  0  0  0  0  0  0  0  0
    8.8744    4.4782   26.7270 N   0  0  0  0  0  0  0  0  0  0  0  0
    9.2387    4.7854   25.4773 C   0  0  0  0  0  0  0  0  0  0  0  0
    9.1480    3.9658   24.3272 C   0  0  0  0  0  0  0  0  0  0  0  0
    9.5124    4.8748   23.2875 C   0  0  0  0  0  0  0  0  0  0  0  0
    9.8751    6.0623   23.7392 N   0  0  0  0  0  0  0  0  0  0  0  0
    9.7262    5.9783   25.0787 N   0  0  0  0  0  0  0  0  0  0  0  0
    9.9245    6.7404   25.7096 H   0  0  0  0  0  0  0  0  0  0  0  0
    9.5022    4.6927   22.2253 H   0  0  0  0  0  0  0  0  0  0  0  0
    8.0346    2.9739   27.8342 H   0  0  0  0  0  0  0  0  0  0  0  0
    7.8921    1.3171   26.0303 H   0  0  0  0  0  0  0  0  0  0  0  0
   10.5727    2.7886   20.5573 H   0  0  0  0  0  0  0  0  0  0  0  0
   14.2206    4.2421   22.3127 H   0  0  0  0  0  0  0  0  0  0  0  0
   13.9461    2.5241   24.1257 H   0  0  0  0  0  0  0  0  0  0  0  0
   11.2716    0.0472   24.4407 H   0  0  0  0  0  0  0  0  0  0  0  0
   11.3894    1.4367   25.5396 H   0  0  0  0  0  0  0  0  0  0  0  0
   12.8658    0.5816   25.0299 H   0  0  0  0  0  0  0  0  0  0  0  0
  1  2  1  0
  2  3  2  0
  3  4  1  0
  4  5  2  0
  5  6  1  0
  5  7  1  0
  7  8  2  0
  8  9  1  0
  9 10  1  0
 10 11  2  0
 11 12  1  0
 12 13  1  0
 13 14  2  0
 14 15  1  0
 15 16  2  0
 16 17  1  0
 17 18  2  0
 18 19  1  0
 16 20  1  0
 15 21  1  0
 14 22  1  0
 12 23  1  0
 12 24  1  0
 11 25  1  0
 25 26  2  0
 26 27  1  0
 27 28  2  0
 28 29  1  0
 29 30  2  0
 30 31  1  0
 31 32  2  0
 32 33  1  0
 33 34  2  0
 34 35  1  0
 35 36  1  0
 33 37  1  0
 29 38  1  0
 28 39  1  0
  7 40  1  0
  4 41  1  0
  3 42  1  0
  1 43  1  0
  1 44  1  0
  1 45  1  0
  8  2  1  0
 26  9  1  0
 32 27  1  0
 18 13  1  0
 35 31  1  0
M  END
>  <cnnaffinity>  (1) 
-6.2106

>  <filename>  (1) 
Cc1ccc(F)cc1-n1nc(Cc2cccnc2)nc1-c1ccnc2[nH]ncc12

$$$$
