
     RDKit          3D

 33 35  0  0  0  0  0  0  0  0999 V2000
    4.9449    1.7887   17.0250 H   0  0  0  0  0  0  0  0  0  0  0  0
    5.4235    1.2716   17.8539 C   0  0  0  0  0  0  0  0  0  0  0  0
    6.5812    0.6455   17.5758 N   0  0  0  0  0  0  0  0  0  0  0  0
    7.1970    0.0103   18.5799 C   0  0  0  0  0  0  0  0  0  0  0  0
    8.1407   -0.4784   18.3459 H   0  0  0  0  0  0  0  0  0  0  0  0
    6.6996   -0.0491   19.8963 C   0  0  0  0  0  0  0  0  0  0  0  0
    7.5096   -0.6545   20.8337 O   0  0  0  0  0  0  0  0  0  0  0  0
    7.0227   -1.4723   21.8289 C   0  0  0  0  0  0  0  0  0  0  0  0
    5.9670   -2.4290   21.8322 C   0  0  0  0  0  0  0  0  0  0  0  0
    5.2568   -2.6598   21.0509 H   0  0  0  0  0  0  0  0  0  0  0  0
    5.8942   -3.0734   22.9899 N   0  0  0  0  0  0  0  0  0  0  0  0
    6.9112   -2.5625   23.7165 N   0  0  0  0  0  0  0  0  0  0  0  0
    7.0845   -2.8526   24.6667 H   0  0  0  0  0  0  0  0  0  0  0  0
    7.6257   -1.6342   23.0647 C   0  0  0  0  0  0  0  0  0  0  0  0
    8.7234   -1.1759   23.7243 O   0  0  0  0  0  0  0  0  0  0  0  0
    9.4071   -0.0818   23.2226 C   0  0  0  0  0  0  0  0  0  0  0  0
    8.7731    1.1285   22.9378 C   0  0  0  0  0  0  0  0  0  0  0  0
    7.6966    1.2194   23.0488 H   0  0  0  0  0  0  0  0  0  0  0  0
    9.5465    2.1911   22.4651 C   0  0  0  0  0  0  0  0  0  0  0  0
    9.0635    3.1241   22.1783 H   0  0  0  0  0  0  0  0  0  0  0  0
   10.9298    2.0536   22.3219 C   0  0  0  0  0  0  0  0  0  0  0  0
   11.5196    2.8838   21.9445 H   0  0  0  0  0  0  0  0  0  0  0  0
   11.5665    0.8468   22.6594 C   0  0  0  0  0  0  0  0  0  0  0  0
   13.0629    0.7024   22.5864 C   0  0  0  0  0  0  0  0  0  0  0  0
   13.4844    1.4487   21.9203 H   0  0  0  0  0  0  0  0  0  0  0  0
   13.3504   -0.2914   22.2258 H   0  0  0  0  0  0  0  0  0  0  0  0
   13.5200    0.8532   23.5714 H   0  0  0  0  0  0  0  0  0  0  0  0
   10.7848   -0.2272   23.0891 C   0  0  0  0  0  0  0  0  0  0  0  0
   11.2309   -1.1949   23.2937 H   0  0  0  0  0  0  0  0  0  0  0  0
    5.4874    0.5944   20.1780 C   0  0  0  0  0  0  0  0  0  0  0  0
    5.0665    0.5938   21.1856 H   0  0  0  0  0  0  0  0  0  0  0  0
    4.8451    1.2667   19.1268 C   0  0  0  0  0  0  0  0  0  0  0  0
    3.9127    1.7987   19.2887 H   0  0  0  0  0  0  0  0  0  0  0  0
  1  2  1  0
  2  3  2  0
  3  4  1  0
  4  5  1  0
  4  6  2  0
  6  7  1  0
  7  8  1  0
  8  9  1  0
  9 10  1  0
  9 11  2  0
 11 12  1  0
 12 13  1  0
 12 14  1  0
 14 15  1  0
 15 16  1  0
 16 17  2  0
 17 18  1  0
 17 19  1  0
 19 20  1  0
 19 21  2  0
 21 22  1  0
 21 23  1  0
 23 24  1  0
 24 25  1  0
 24 26  1  0
 24 27  1  0
 23 28  2  0
 28 29  1  0
  6 30  1  0
 30 31  1  0
 30 32  2  0
 32 33  1  0
 32  2  1  0
 14  8  2  0
 28 16  1  0
M  END
>  <cnnaffinity>  (1) 
-5.49023

>  <filename>  (1) 
Cc1cccc(Oc2[nH]ncc2Oc2cccnc2)c1

$$$$
