
     RDKit          3D

 50 54  0  0  0  0  0  0  0  0999 V2000
    6.9537    4.1834   22.6043 C   0  0  0  0  0  0  0  0  0  0  0  0
    8.1625    4.3365   23.5319 C   0  0  0  0  0  0  0  0  0  0  0  0
    7.7950    5.2053   24.7642 C   0  0  0  0  0  0  0  0  0  0  0  0
    8.5321    4.8625   25.9174 O   0  0  0  0  0  0  0  0  0  0  0  0
    8.2515    3.5588   26.4043 C   0  0  0  0  0  0  0  0  0  0  0  0
    8.1576    2.4797   25.3103 C   0  0  0  0  0  0  0  0  0  0  0  0
    8.8061    2.9862   24.0061 C   0  0  0  0  0  0  0  0  0  0  0  0
    8.8400    1.9010   22.9671 C   0  0  0  0  0  0  0  0  0  0  0  0
    7.8235    1.1244   22.6395 N   0  0  0  0  0  0  0  0  0  0  0  0
    8.3454    0.2848   21.7111 C   0  0  0  0  0  0  0  0  0  0  0  0
    7.4708   -0.6822   20.9570 C   0  0  0  0  0  0  0  0  0  0  0  0
    6.6816   -0.0349   19.8196 C   0  0  0  0  0  0  0  0  0  0  0  0
    5.4753    0.6250   20.0855 C   0  0  0  0  0  0  0  0  0  0  0  0
    4.8244    1.3010   19.0500 C   0  0  0  0  0  0  0  0  0  0  0  0
    5.4099    1.2971   17.7810 C   0  0  0  0  0  0  0  0  0  0  0  0
    6.5521    0.6525   17.4930 N   0  0  0  0  0  0  0  0  0  0  0  0
    7.1575    0.0035   18.4966 C   0  0  0  0  0  0  0  0  0  0  0  0
    8.0834   -0.5144   18.2427 H   0  0  0  0  0  0  0  0  0  0  0  0
    4.9400    1.8308   16.9568 H   0  0  0  0  0  0  0  0  0  0  0  0
    3.8912    1.8301   19.2162 H   0  0  0  0  0  0  0  0  0  0  0  0
    5.0677    0.6142   21.0981 H   0  0  0  0  0  0  0  0  0  0  0  0
    6.7704   -1.1101   21.6842 H   0  0  0  0  0  0  0  0  0  0  0  0
    8.1012   -1.4904   20.5768 H   0  0  0  0  0  0  0  0  0  0  0  0
    9.6389    0.4428   21.4848 N   0  0  0  0  0  0  0  0  0  0  0  0
    9.9425    1.5259   22.2617 N   0  0  0  0  0  0  0  0  0  0  0  0
   11.2355    2.1016   22.3601 C   0  0  0  0  0  0  0  0  0  0  0  0
   11.4605    3.4822   22.3131 C   0  0  0  0  0  0  0  0  0  0  0  0
   12.7570    4.0202   22.4746 C   0  0  0  0  0  0  0  0  0  0  0  0
   13.8386    3.1941   22.7476 C   0  0  0  0  0  0  0  0  0  0  0  0
   13.6285    1.8022   22.8245 C   0  0  0  0  0  0  0  0  0  0  0  0
   12.3497    1.2775   22.5822 C   0  0  0  0  0  0  0  0  0  0  0  0
   12.5105   -0.0833   22.6023 N   0  0  0  0  0  0  0  0  0  0  0  0
   13.8375   -0.3153   22.8245 C   0  0  0  0  0  0  0  0  0  0  0  0
   14.5398    0.7681   22.9723 N   0  0  0  0  0  0  0  0  0  0  0  0
   14.2310   -1.3213   22.8572 H   0  0  0  0  0  0  0  0  0  0  0  0
   11.8027   -0.7072   22.2550 H   0  0  0  0  0  0  0  0  0  0  0  0
   14.8321    3.6082   22.8253 H   0  0  0  0  0  0  0  0  0  0  0  0
   12.9112    5.0932   22.3838 H   0  0  0  0  0  0  0  0  0  0  0  0
   10.6263    4.1586   22.1858 H   0  0  0  0  0  0  0  0  0  0  0  0
    9.8432    3.2266   24.2666 H   0  0  0  0  0  0  0  0  0  0  0  0
    7.1158    2.1840   25.1353 H   0  0  0  0  0  0  0  0  0  0  0  0
    8.6857    1.5812   25.6489 H   0  0  0  0  0  0  0  0  0  0  0  0
    7.3416    3.5654   27.0252 H   0  0  0  0  0  0  0  0  0  0  0  0
    9.0961    3.3420   27.0472 H   0  0  0  0  0  0  0  0  0  0  0  0
    8.0146    6.2579   24.5579 H   0  0  0  0  0  0  0  0  0  0  0  0
    6.7134    5.1265   24.9720 H   0  0  0  0  0  0  0  0  0  0  0  0
    8.9457    4.8724   22.9775 H   0  0  0  0  0  0  0  0  0  0  0  0
    7.2396    3.7079   21.6612 H   0  0  0  0  0  0  0  0  0  0  0  0
    6.1846    3.5481   23.0602 H   0  0  0  0  0  0  0  0  0  0  0  0
    6.5077    5.1580   22.3793 H   0  0  0  0  0  0  0  0  0  0  0  0
  1  2  1  0
  2  3  1  0
  3  4  1  0
  4  5  1  0
  5  6  1  0
  6  7  1  0
  7  8  1  0
  8  9  2  0
  9 10  1  0
 10 11  1  0
 11 12  1  0
 12 13  2  0
 13 14  1  0
 14 15  2  0
 15 16  1  0
 16 17  2  0
 17 18  1  0
 15 19  1  0
 14 20  1  0
 13 21  1  0
 11 22  1  0
 11 23  1  0
 10 24  2  0
 24 25  1  0
 25 26  1  0
 26 27  2  0
 27 28  1  0
 28 29  2  0
 29 30  1  0
 30 31  2  0
 31 32  1  0
 32 33  1  0
 33 34  2  0
 33 35  1  0
 32 36  1  0
 29 37  1  0
 28 38  1  0
 27 39  1  0
  7 40  1  0
  6 41  1  0
  6 42  1  0
  5 43  1  0
  5 44  1  0
  3 45  1  0
  3 46  1  0
  2 47  1  0
  1 48  1  0
  1 49  1  0
  1 50  1  0
  7  2  1  0
 25  8  1  0
 31 26  1  0
 17 12  1  0
 34 30  1  0
M  END
>  <cnnaffinity>  (1) 
-6.55766

>  <filename>  (1) 
CC1COCCC1c1nc(Cc2cccnc2)nn1-c1cccc2nc[nH]c12

$$$$
