
     RDKit          3D

 45 49  0  0  0  0  0  0  0  0999 V2000
   14.4852    0.6371   22.7260 C   0  0  0  0  0  0  0  0  0  0  0  0
   13.3361    1.6182   22.6681 C   0  0  0  0  0  0  0  0  0  0  0  0
   13.5788    3.0063   22.7140 C   0  0  0  0  0  0  0  0  0  0  0  0
   12.5288    3.9284   22.6326 C   0  0  0  0  0  0  0  0  0  0  0  0
   11.2186    3.4841   22.4609 C   0  0  0  0  0  0  0  0  0  0  0  0
   10.9703    2.1020   22.4199 C   0  0  0  0  0  0  0  0  0  0  0  0
    9.6394    1.6009   22.3046 N   0  0  0  0  0  0  0  0  0  0  0  0
    9.3554    0.5459   21.4905 N   0  0  0  0  0  0  0  0  0  0  0  0
    8.0639    0.3688   21.6640 C   0  0  0  0  0  0  0  0  0  0  0  0
    7.3209   -0.6866   20.8932 C   0  0  0  0  0  0  0  0  0  0  0  0
    6.5507   -0.0982   19.7186 C   0  0  0  0  0  0  0  0  0  0  0  0
    5.3330    0.5546   19.9485 C   0  0  0  0  0  0  0  0  0  0  0  0
    4.7436    1.2765   18.9105 C   0  0  0  0  0  0  0  0  0  0  0  0
    5.3771    1.2969   17.6663 C   0  0  0  0  0  0  0  0  0  0  0  0
    6.5111    0.6291   17.4056 N   0  0  0  0  0  0  0  0  0  0  0  0
    7.0714   -0.0512   18.4138 C   0  0  0  0  0  0  0  0  0  0  0  0
    8.0000   -0.5722   18.1743 H   0  0  0  0  0  0  0  0  0  0  0  0
    4.9559    1.8722   16.8433 H   0  0  0  0  0  0  0  0  0  0  0  0
    3.8316    1.8416   19.0589 H   0  0  0  0  0  0  0  0  0  0  0  0
    4.8801    0.5141   20.9408 H   0  0  0  0  0  0  0  0  0  0  0  0
    6.6392   -1.1889   21.5857 H   0  0  0  0  0  0  0  0  0  0  0  0
    8.0510   -1.4336   20.5673 H   0  0  0  0  0  0  0  0  0  0  0  0
    7.4812    1.2412   22.5234 N   0  0  0  0  0  0  0  0  0  0  0  0
    8.4948    1.9793   22.9482 C   0  0  0  0  0  0  0  0  0  0  0  0
    8.3847    2.9842   23.9938 C   0  0  0  0  0  0  0  0  0  0  0  0
    9.2930    3.1335   25.0406 C   0  0  0  0  0  0  0  0  0  0  0  0
    9.1721    4.0425   26.0325 N   0  0  0  0  0  0  0  0  0  0  0  0
    8.1205    4.8730   26.0436 C   0  0  0  0  0  0  0  0  0  0  0  0
    7.1120    4.8102   25.0499 C   0  0  0  0  0  0  0  0  0  0  0  0
    7.2731    3.8366   24.0529 C   0  0  0  0  0  0  0  0  0  0  0  0
    6.1956    3.9634   23.2424 N   0  0  0  0  0  0  0  0  0  0  0  0
    5.4289    4.9786   23.7409 C   0  0  0  0  0  0  0  0  0  0  0  0
    5.9278    5.5198   24.8169 N   0  0  0  0  0  0  0  0  0  0  0  0
    4.5098    5.2894   23.2541 H   0  0  0  0  0  0  0  0  0  0  0  0
    6.0062    3.3359   22.4796 H   0  0  0  0  0  0  0  0  0  0  0  0
    8.0801    5.6138   26.8442 H   0  0  0  0  0  0  0  0  0  0  0  0
   10.1881    2.5125   25.0843 H   0  0  0  0  0  0  0  0  0  0  0  0
   12.0189    1.1783   22.5195 C   0  0  0  0  0  0  0  0  0  0  0  0
   11.7739    0.1171   22.4643 H   0  0  0  0  0  0  0  0  0  0  0  0
   10.3964    4.1936   22.3809 H   0  0  0  0  0  0  0  0  0  0  0  0
   12.7205    4.9937   22.7289 H   0  0  0  0  0  0  0  0  0  0  0  0
   14.5996    3.3750   22.7334 H   0  0  0  0  0  0  0  0  0  0  0  0
   14.6341    0.2591   23.7434 H   0  0  0  0  0  0  0  0  0  0  0  0
   14.3421   -0.2331   22.0722 H   0  0  0  0  0  0  0  0  0  0  0  0
   15.3959    1.1488   22.4081 H   0  0  0  0  0  0  0  0  0  0  0  0
  1  2  1  0
  2  3  2  0
  3  4  1  0
  4  5  2  0
  5  6  1  0
  6  7  1  0
  7  8  1  0
  8  9  2  0
  9 10  1  0
 10 11  1  0
 11 12  2  0
 12 13  1  0
 13 14  2  0
 14 15  1  0
 15 16  2  0
 16 17  1  0
 14 18  1  0
 13 19  1  0
 12 20  1  0
 10 21  1  0
 10 22  1  0
  9 23  1  0
 23 24  2  0
 24 25  1  0
 25 26  2  0
 26 27  1  0
 27 28  2  0
 28 29  1  0
 29 30  2  0
 30 31  1  0
 31 32  1  0
 32 33  2  0
 32 34  1  0
 31 35  1  0
 28 36  1  0
 26 37  1  0
  6 38  2  0
 38 39  1  0
  5 40  1  0
  4 41  1  0
  3 42  1  0
  1 43  1  0
  1 44  1  0
  1 45  1  0
 38  2  1  0
 24  7  1  0
 30 25  1  0
 16 11  1  0
 33 29  1  0
M  END
>  <cnnaffinity>  (1) 
-6.39848

>  <filename>  (1) 
Cc1cccc(-n2nc(Cc3cccnc3)nc2-c2cncc3nc[nH]c23)c1

$$$$
