
     RDKit          3D

 34 35  0  0  0  0  0  0  0  0999 V2000
    5.0138    1.8258   16.8572 H   0  0  0  0  0  0  0  0  0  0  0  0
    5.4514    1.3166   17.7113 C   0  0  0  0  0  0  0  0  0  0  0  0
    6.6074    0.6679   17.4855 N   0  0  0  0  0  0  0  0  0  0  0  0
    7.1885    0.0502   18.5241 C   0  0  0  0  0  0  0  0  0  0  0  0
    8.1216   -0.4786   18.3228 H   0  0  0  0  0  0  0  0  0  0  0  0
    6.6606    0.0470   19.8410 C   0  0  0  0  0  0  0  0  0  0  0  0
    7.3397   -0.5365   20.8989 N   0  0  0  0  0  0  0  0  0  0  0  0
    8.1693   -1.0933   20.7780 H   0  0  0  0  0  0  0  0  0  0  0  0
    6.7974   -0.6943   22.2076 C   0  0  0  0  0  0  0  0  0  0  0  0
    5.7988   -1.1528   22.1581 H   0  0  0  0  0  0  0  0  0  0  0  0
    6.6853    0.2843   22.6996 H   0  0  0  0  0  0  0  0  0  0  0  0
    7.6647   -1.5387   22.9695 N   0  0  0  0  0  0  0  0  0  0  0  0
    8.9972   -0.9886   23.1959 C   0  0  0  0  0  0  0  0  0  0  0  0
    9.6047   -0.9791   22.2654 H   0  0  0  0  0  0  0  0  0  0  0  0
    8.9110    0.0593   23.5098 H   0  0  0  0  0  0  0  0  0  0  0  0
    9.7167   -1.8249   24.2562 C   0  0  0  0  0  0  0  0  0  0  0  0
    9.1558   -1.7333   25.1963 H   0  0  0  0  0  0  0  0  0  0  0  0
   10.7177   -1.4200   24.4340 H   0  0  0  0  0  0  0  0  0  0  0  0
    9.7725   -3.3086   23.8470 C   0  0  0  0  0  0  0  0  0  0  0  0
   10.3260   -3.3784   22.8939 H   0  0  0  0  0  0  0  0  0  0  0  0
   10.4828   -4.1781   24.8771 C   0  0  0  0  0  0  0  0  0  0  0  0
   10.3500   -5.2426   24.6590 H   0  0  0  0  0  0  0  0  0  0  0  0
   10.0977   -3.9909   25.8866 H   0  0  0  0  0  0  0  0  0  0  0  0
   11.5534   -3.9710   24.8715 H   0  0  0  0  0  0  0  0  0  0  0  0
    8.3378   -3.7893   23.5790 C   0  0  0  0  0  0  0  0  0  0  0  0
    8.3183   -4.8431   23.2797 H   0  0  0  0  0  0  0  0  0  0  0  0
    7.7445   -3.6974   24.4983 H   0  0  0  0  0  0  0  0  0  0  0  0
    7.6881   -2.9212   22.5052 C   0  0  0  0  0  0  0  0  0  0  0  0
    8.2558   -3.0261   21.5538 H   0  0  0  0  0  0  0  0  0  0  0  0
    6.6651   -3.2508   22.2877 H   0  0  0  0  0  0  0  0  0  0  0  0
    5.4274    0.6951   20.0359 C   0  0  0  0  0  0  0  0  0  0  0  0
    4.9777    0.6880   21.0282 H   0  0  0  0  0  0  0  0  0  0  0  0
    4.8203    1.3450   18.9586 C   0  0  0  0  0  0  0  0  0  0  0  0
    3.8785    1.8753   19.0851 H   0  0  0  0  0  0  0  0  0  0  0  0
  1  2  1  0
  2  3  2  0
  3  4  1  0
  4  5  1  0
  4  6  2  0
  6  7  1  0
  7  8  1  0
  7  9  1  0
  9 10  1  0
  9 11  1  0
  9 12  1  0
 12 13  1  0
 13 14  1  0
 13 15  1  0
 13 16  1  0
 16 17  1  0
 16 18  1  0
 16 19  1  0
 19 20  1  0
 19 21  1  0
 21 22  1  0
 21 23  1  0
 21 24  1  0
 19 25  1  0
 25 26  1  0
 25 27  1  0
 25 28  1  0
 28 29  1  0
 28 30  1  0
  6 31  1  0
 31 32  1  0
 31 33  2  0
 33 34  1  0
 33  2  1  0
 28 12  1  0
M  END
>  <cnnaffinity>  (1) 
-4.49712

>  <filename>  (1) 
CC1CCN(CNc2cccnc2)CC1

$$$$
