
     RDKit          3D

 46 50  0  0  0  0  0  0  0  0999 V2000
    5.5247   -1.2832   26.6360 C   0  0  0  0  0  0  0  0  0  0  0  0
    5.7714    0.0553   25.9890 C   0  0  0  0  0  0  0  0  0  0  0  0
    5.4467    1.2790   26.6620 C   0  0  0  0  0  0  0  0  0  0  0  0
    5.7030    2.4790   26.0441 C   0  0  0  0  0  0  0  0  0  0  0  0
    6.2853    2.4843   24.7375 C   0  0  0  0  0  0  0  0  0  0  0  0
    6.5967    3.6716   24.0164 C   0  0  0  0  0  0  0  0  0  0  0  0
    7.1610    3.5841   22.7570 C   0  0  0  0  0  0  0  0  0  0  0  0
    7.4219    2.3309   22.1648 C   0  0  0  0  0  0  0  0  0  0  0  0
    7.1183    1.1461   22.8324 C   0  0  0  0  0  0  0  0  0  0  0  0
    7.3885   -0.1802   22.2956 C   0  0  0  0  0  0  0  0  0  0  0  0
    7.9773   -1.1371   22.9774 N   0  0  0  0  0  0  0  0  0  0  0  0
    8.1828   -2.1113   22.0750 C   0  0  0  0  0  0  0  0  0  0  0  0
    8.7491   -3.3966   22.5605 C   0  0  0  0  0  0  0  0  0  0  0  0
    7.8665   -4.1567   23.5791 C   0  0  0  0  0  0  0  0  0  0  0  0
    8.8998   -4.9722   24.3574 C   0  0  0  0  0  0  0  0  0  0  0  0
   10.1115   -4.2344   24.3036 O   0  0  0  0  0  0  0  0  0  0  0  0
   10.0447   -3.1799   23.3613 C   0  0  0  0  0  0  0  0  0  0  0  0
   10.0270   -2.2050   23.8745 H   0  0  0  0  0  0  0  0  0  0  0  0
   10.9537   -3.2018   22.7503 H   0  0  0  0  0  0  0  0  0  0  0  0
    8.6218   -5.1427   25.4056 H   0  0  0  0  0  0  0  0  0  0  0  0
    9.0633   -5.9621   23.9100 H   0  0  0  0  0  0  0  0  0  0  0  0
    7.0928   -4.7679   23.1025 H   0  0  0  0  0  0  0  0  0  0  0  0
    7.3660   -3.4480   24.2561 H   0  0  0  0  0  0  0  0  0  0  0  0
    8.9161   -4.0223   21.6879 H   0  0  0  0  0  0  0  0  0  0  0  0
    7.7991   -1.8327   20.8479 N   0  0  0  0  0  0  0  0  0  0  0  0
    7.2588   -0.5849   20.9826 N   0  0  0  0  0  0  0  0  0  0  0  0
    6.5754    0.0210   19.8952 C   0  0  0  0  0  0  0  0  0  0  0  0
    5.3650    0.7038   20.0873 C   0  0  0  0  0  0  0  0  0  0  0  0
    4.7960    1.3442   18.9853 C   0  0  0  0  0  0  0  0  0  0  0  0
    5.4468    1.2821   17.7492 C   0  0  0  0  0  0  0  0  0  0  0  0
    6.5857    0.5913   17.5527 N   0  0  0  0  0  0  0  0  0  0  0  0
    7.1208   -0.0419   18.5986 C   0  0  0  0  0  0  0  0  0  0  0  0
    8.0295   -0.6144   18.4174 H   0  0  0  0  0  0  0  0  0  0  0  0
    5.0382    1.7913   16.8800 H   0  0  0  0  0  0  0  0  0  0  0  0
    3.8679    1.9001   19.0782 H   0  0  0  0  0  0  0  0  0  0  0  0
    4.9045    0.7510   21.0759 H   0  0  0  0  0  0  0  0  0  0  0  0
    6.5660    1.2009   24.1473 C   0  0  0  0  0  0  0  0  0  0  0  0
    6.2845    0.0295   24.7897 N   0  0  0  0  0  0  0  0  0  0  0  0
    7.8675    2.3008   21.1709 H   0  0  0  0  0  0  0  0  0  0  0  0
    7.4097    4.4877   22.2025 H   0  0  0  0  0  0  0  0  0  0  0  0
    6.3898    4.6409   24.4689 H   0  0  0  0  0  0  0  0  0  0  0  0
    5.4762    3.4310   26.5264 H   0  0  0  0  0  0  0  0  0  0  0  0
    5.0036    1.2224   27.6503 H   0  0  0  0  0  0  0  0  0  0  0  0
    4.4509   -1.4647   26.7353 H   0  0  0  0  0  0  0  0  0  0  0  0
    5.9522   -2.0807   26.0223 H   0  0  0  0  0  0  0  0  0  0  0  0
    5.9694   -1.3397   27.6341 H   0  0  0  0  0  0  0  0  0  0  0  0
  1  2  1  0
  2  3  2  0
  3  4  1  0
  4  5  2  0
  5  6  1  0
  6  7  2  0
  7  8  1  0
  8  9  2  0
  9 10  1  0
 10 11  2  0
 11 12  1  0
 12 13  1  0
 13 14  1  0
 14 15  1  0
 15 16  1  0
 16 17  1  0
 17 18  1  0
 17 19  1  0
 15 20  1  0
 15 21  1  0
 14 22  1  0
 14 23  1  0
 13 24  1  0
 12 25  2  0
 25 26  1  0
 26 27  1  0
 27 28  2  0
 28 29  1  0
 29 30  2  0
 30 31  1  0
 31 32  2  0
 32 33  1  0
 30 34  1  0
 29 35  1  0
 28 36  1  0
  9 37  1  0
 37 38  2  0
  8 39  1  0
  7 40  1  0
  6 41  1  0
  4 42  1  0
  3 43  1  0
  1 44  1  0
  1 45  1  0
  1 46  1  0
 38  2  1  0
 37  5  1  0
 26 10  1  0
 32 27  1  0
 17 13  1  0
M  END
>  <cnnaffinity>  (1) 
-6.09015

>  <filename>  (1) 
Cc1ccc2cccc(-c3nc(C4CCOC4)nn3-c3cccnc3)c2n1

$$$$
