
     RDKit          3D

 49 52  0  0  0  0  0  0  0  0999 V2000
    7.9028    6.6820   25.9579 C   0  0  0  0  0  0  0  0  0  0  0  0
    9.2069    6.2227   25.2737 C   0  0  0  0  0  0  0  0  0  0  0  0
    9.4759    6.9742   23.9458 C   0  0  0  0  0  0  0  0  0  0  0  0
    8.6747    6.3638   22.7830 C   0  0  0  0  0  0  0  0  0  0  0  0
    9.1442    4.9200   22.5682 C   0  0  0  0  0  0  0  0  0  0  0  0
    9.0919    4.1596   23.8222 N   0  0  0  0  0  0  0  0  0  0  0  0
    9.0980    2.7878   24.0131 C   0  0  0  0  0  0  0  0  0  0  0  0
    9.0074    1.7897   22.9569 C   0  0  0  0  0  0  0  0  0  0  0  0
    7.9694    0.9931   22.7458 N   0  0  0  0  0  0  0  0  0  0  0  0
    8.3444    0.2931   21.6479 C   0  0  0  0  0  0  0  0  0  0  0  0
    7.4372   -0.6886   20.9639 C   0  0  0  0  0  0  0  0  0  0  0  0
    6.6513   -0.0435   19.8296 C   0  0  0  0  0  0  0  0  0  0  0  0
    5.4514    0.6273   20.1015 C   0  0  0  0  0  0  0  0  0  0  0  0
    4.8056    1.3018   19.0668 C   0  0  0  0  0  0  0  0  0  0  0  0
    5.3895    1.2987   17.7985 C   0  0  0  0  0  0  0  0  0  0  0  0
    6.5356    0.6620   17.5119 N   0  0  0  0  0  0  0  0  0  0  0  0
    7.1433    0.0150   18.5133 C   0  0  0  0  0  0  0  0  0  0  0  0
    8.0865   -0.4764   18.2603 H   0  0  0  0  0  0  0  0  0  0  0  0
    4.9201    1.8382   16.9794 H   0  0  0  0  0  0  0  0  0  0  0  0
    3.8818    1.8444   19.2341 H   0  0  0  0  0  0  0  0  0  0  0  0
    5.0409    0.6360   21.1136 H   0  0  0  0  0  0  0  0  0  0  0  0
    6.7589   -1.0722   21.7329 H   0  0  0  0  0  0  0  0  0  0  0  0
    8.0300   -1.5356   20.6003 H   0  0  0  0  0  0  0  0  0  0  0  0
    9.5532    0.5679   21.1975 N   0  0  0  0  0  0  0  0  0  0  0  0
    9.9777    1.5485   22.0349 N   0  0  0  0  0  0  0  0  0  0  0  0
   11.4014    1.8928   22.0698 C   0  0  0  0  0  0  0  0  0  0  0  0
   12.1034    0.9787   23.0809 C   0  0  0  0  0  0  0  0  0  0  0  0
   13.5549    1.2662   23.3692 C   0  0  0  0  0  0  0  0  0  0  0  0
   14.4118    0.7969   22.4478 F   0  0  0  0  0  0  0  0  0  0  0  0
   13.8971    0.6910   24.5372 F   0  0  0  0  0  0  0  0  0  0  0  0
   13.7534    2.5934   23.4868 F   0  0  0  0  0  0  0  0  0  0  0  0
   11.5991    1.1018   24.0434 H   0  0  0  0  0  0  0  0  0  0  0  0
   11.9997   -0.0634   22.7773 H   0  0  0  0  0  0  0  0  0  0  0  0
   11.5013    2.9435   22.3667 H   0  0  0  0  0  0  0  0  0  0  0  0
   11.7850    1.7791   21.0510 H   0  0  0  0  0  0  0  0  0  0  0  0
    9.1821    2.6146   25.3685 C   0  0  0  0  0  0  0  0  0  0  0  0
    9.2339    3.8177   26.0086 N   0  0  0  0  0  0  0  0  0  0  0  0
    9.1973    4.7280   25.0585 C   0  0  0  0  0  0  0  0  0  0  0  0
    9.2765    1.6810   25.9154 H   0  0  0  0  0  0  0  0  0  0  0  0
    8.5611    4.3992   21.7987 H   0  0  0  0  0  0  0  0  0  0  0  0
   10.1930    4.9582   22.2503 H   0  0  0  0  0  0  0  0  0  0  0  0
    7.5995    6.3901   23.0040 H   0  0  0  0  0  0  0  0  0  0  0  0
    8.8299    6.9335   21.8587 H   0  0  0  0  0  0  0  0  0  0  0  0
   10.5456    6.9022   23.7016 H   0  0  0  0  0  0  0  0  0  0  0  0
    9.2559    8.0418   24.0751 H   0  0  0  0  0  0  0  0  0  0  0  0
   10.0348    6.4139   25.9669 H   0  0  0  0  0  0  0  0  0  0  0  0
    7.9019    7.7643   26.1301 H   0  0  0  0  0  0  0  0  0  0  0  0
    7.0337    6.4316   25.3380 H   0  0  0  0  0  0  0  0  0  0  0  0
    7.7831    6.1828   26.9259 H   0  0  0  0  0  0  0  0  0  0  0  0
  1  2  1  0
  2  3  1  0
  3  4  1  0
  4  5  1  0
  5  6  1  0
  6  7  1  0
  7  8  1  0
  8  9  2  0
  9 10  1  0
 10 11  1  0
 11 12  1  0
 12 13  2  0
 13 14  1  0
 14 15  2  0
 15 16  1  0
 16 17  2  0
 17 18  1  0
 15 19  1  0
 14 20  1  0
 13 21  1  0
 11 22  1  0
 11 23  1  0
 10 24  2  0
 24 25  1  0
 25 26  1  0
 26 27  1  0
 27 28  1  0
 28 29  1  0
 28 30  1  0
 28 31  1  0
 27 32  1  0
 27 33  1  0
 26 34  1  0
 26 35  1  0
  7 36  2  0
 36 37  1  0
 37 38  2  0
 36 39  1  0
  5 40  1  0
  5 41  1  0
  4 42  1  0
  4 43  1  0
  3 44  1  0
  3 45  1  0
  2 46  1  0
  1 47  1  0
  1 48  1  0
  1 49  1  0
 38  2  1  0
 38  6  1  0
 25  8  1  0
 17 12  1  0
M  END
>  <cnnaffinity>  (1) 
-5.92018

>  <filename>  (1) 
CC1CCCn2c(-c3nc(Cc4cccnc4)nn3CCC(F)(F)F)cnc21

$$$$
