
     RDKit          3D

 35 37  0  0  0  0  0  0  0  0999 V2000
    4.9388    1.8046   16.9732 H   0  0  0  0  0  0  0  0  0  0  0  0
    5.3881    1.2969   17.8232 C   0  0  0  0  0  0  0  0  0  0  0  0
    6.5529    0.6748   17.5766 N   0  0  0  0  0  0  0  0  0  0  0  0
    7.1639    0.0887   18.6151 C   0  0  0  0  0  0  0  0  0  0  0  0
    8.1125   -0.3944   18.3739 H   0  0  0  0  0  0  0  0  0  0  0  0
    6.6564    0.0823   19.9354 C   0  0  0  0  0  0  0  0  0  0  0  0
    7.3525   -0.5970   21.0654 C   0  0  0  0  0  0  0  0  0  0  0  0
    7.8417   -1.8912   20.8813 C   0  0  0  0  0  0  0  0  0  0  0  0
    7.5727   -2.3713   19.9646 H   0  0  0  0  0  0  0  0  0  0  0  0
    8.5156   -2.6040   21.7921 N   0  0  0  0  0  0  0  0  0  0  0  0
    8.6912   -2.0390   22.9949 C   0  0  0  0  0  0  0  0  0  0  0  0
    9.2391   -2.6305   23.7282 H   0  0  0  0  0  0  0  0  0  0  0  0
    8.1911   -0.7608   23.3400 C   0  0  0  0  0  0  0  0  0  0  0  0
    8.3741   -0.2092   24.6169 N   0  0  0  0  0  0  0  0  0  0  0  0
    8.3081   -0.7881   25.4445 H   0  0  0  0  0  0  0  0  0  0  0  0
    8.4515    1.1567   24.8826 C   0  0  0  0  0  0  0  0  0  0  0  0
    7.9374    1.6259   26.0936 C   0  0  0  0  0  0  0  0  0  0  0  0
    7.4704    0.8973   26.7537 H   0  0  0  0  0  0  0  0  0  0  0  0
    8.0153    2.9875   26.4040 C   0  0  0  0  0  0  0  0  0  0  0  0
    7.5949    3.3395   27.3437 H   0  0  0  0  0  0  0  0  0  0  0  0
    8.6213    3.9016   25.5202 C   0  0  0  0  0  0  0  0  0  0  0  0
    8.7307    5.3711   25.8635 C   0  0  0  0  0  0  0  0  0  0  0  0
    8.7225    5.9931   24.9618 H   0  0  0  0  0  0  0  0  0  0  0  0
    7.9049    5.7042   26.5016 H   0  0  0  0  0  0  0  0  0  0  0  0
    9.6636    5.5914   26.3970 H   0  0  0  0  0  0  0  0  0  0  0  0
    9.1368    3.4092   24.3073 C   0  0  0  0  0  0  0  0  0  0  0  0
    9.5883    4.0960   23.5927 H   0  0  0  0  0  0  0  0  0  0  0  0
    9.0528    2.0505   23.9870 C   0  0  0  0  0  0  0  0  0  0  0  0
    9.4366    1.6550   23.0499 H   0  0  0  0  0  0  0  0  0  0  0  0
    7.5055   -0.0438   22.3412 C   0  0  0  0  0  0  0  0  0  0  0  0
    7.1062    0.9377   22.5919 H   0  0  0  0  0  0  0  0  0  0  0  0
    5.4222    0.7035   20.1514 C   0  0  0  0  0  0  0  0  0  0  0  0
    4.9847    0.6658   21.1510 H   0  0  0  0  0  0  0  0  0  0  0  0
    4.7786    1.3247   19.0809 C   0  0  0  0  0  0  0  0  0  0  0  0
    3.8411    1.8479   19.2150 H   0  0  0  0  0  0  0  0  0  0  0  0
  1  2  1  0
  2  3  2  0
  3  4  1  0
  4  5  1  0
  4  6  2  0
  6  7  1  0
  7  8  2  0
  8  9  1  0
  8 10  1  0
 10 11  2  0
 11 12  1  0
 11 13  1  0
 13 14  1  0
 14 15  1  0
 14 16  1  0
 16 17  2  0
 17 18  1  0
 17 19  1  0
 19 20  1  0
 19 21  2  0
 21 22  1  0
 22 23  1  0
 22 24  1  0
 22 25  1  0
 21 26  1  0
 26 27  1  0
 26 28  2  0
 28 29  1  0
 13 30  2  0
 30 31  1  0
  6 32  1  0
 32 33  1  0
 32 34  2  0
 34 35  1  0
 34  2  1  0
 30  7  1  0
 28 16  1  0
M  END
>  <cnnaffinity>  (1) 
-5.28422

>  <filename>  (1) 
Cc1ccc(Nc2cncc(-c3cccnc3)c2)cc1

$$$$
