
     RDKit          3D

 50 54  0  0  0  0  0  0  0  0999 V2000
   10.1264   -0.2512   24.9745 C   0  0  0  0  0  0  0  0  0  0  0  0
   11.4521    0.0928   24.3215 C   0  0  0  0  0  0  0  0  0  0  0  0
   11.5928   -0.4720   22.9021 C   0  0  0  0  0  0  0  0  0  0  0  0
   12.3410    0.6247   22.1421 C   0  0  0  0  0  0  0  0  0  0  0  0
   12.0121    1.9160   22.9057 C   0  0  0  0  0  0  0  0  0  0  0  0
   10.9263    2.7546   22.2022 C   0  0  0  0  0  0  0  0  0  0  0  0
    9.6324    2.0152   22.1269 C   0  0  0  0  0  0  0  0  0  0  0  0
    9.3378    1.1048   21.2113 N   0  0  0  0  0  0  0  0  0  0  0  0
    8.1511    0.5993   21.6409 C   0  0  0  0  0  0  0  0  0  0  0  0
    7.4490   -0.5284   20.9393 C   0  0  0  0  0  0  0  0  0  0  0  0
    6.6231   -0.0268   19.7657 C   0  0  0  0  0  0  0  0  0  0  0  0
    5.3923    0.6057   19.9882 C   0  0  0  0  0  0  0  0  0  0  0  0
    4.7723    1.2679   18.9269 C   0  0  0  0  0  0  0  0  0  0  0  0
    5.3908    1.2489   17.6736 C   0  0  0  0  0  0  0  0  0  0  0  0
    6.5352    0.5950   17.4206 N   0  0  0  0  0  0  0  0  0  0  0  0
    7.1253   -0.0217   18.4525 C   0  0  0  0  0  0  0  0  0  0  0  0
    8.0654   -0.5301   18.2305 H   0  0  0  0  0  0  0  0  0  0  0  0
    4.9492    1.7847   16.8360 H   0  0  0  0  0  0  0  0  0  0  0  0
    3.8470    1.8188   19.0605 H   0  0  0  0  0  0  0  0  0  0  0  0
    4.9408    0.5938   20.9831 H   0  0  0  0  0  0  0  0  0  0  0  0
    6.8214   -1.0354   21.6796 H   0  0  0  0  0  0  0  0  0  0  0  0
    8.2130   -1.2384   20.6102 H   0  0  0  0  0  0  0  0  0  0  0  0
    7.6559    1.1854   22.7101 N   0  0  0  0  0  0  0  0  0  0  0  0
    8.6433    2.0638   23.0609 N   0  0  0  0  0  0  0  0  0  0  0  0
    8.3971    3.0912   24.0169 C   0  0  0  0  0  0  0  0  0  0  0  0
    9.1913    3.3112   25.1419 C   0  0  0  0  0  0  0  0  0  0  0  0
    8.9376    4.4195   25.9904 C   0  0  0  0  0  0  0  0  0  0  0  0
    7.8885    5.3039   25.7343 C   0  0  0  0  0  0  0  0  0  0  0  0
    7.0898    5.0870   24.5957 C   0  0  0  0  0  0  0  0  0  0  0  0
    7.3464    3.9867   23.7651 C   0  0  0  0  0  0  0  0  0  0  0  0
    6.4573    4.1171   22.7277 N   0  0  0  0  0  0  0  0  0  0  0  0
    5.7281    5.2382   22.9676 C   0  0  0  0  0  0  0  0  0  0  0  0
    6.0591    5.8511   24.0685 N   0  0  0  0  0  0  0  0  0  0  0  0
    4.9712    5.5658   22.2654 H   0  0  0  0  0  0  0  0  0  0  0  0
    6.3819    3.4838   21.9487 H   0  0  0  0  0  0  0  0  0  0  0  0
    7.6801    6.1662   26.3568 H   0  0  0  0  0  0  0  0  0  0  0  0
    9.5927    4.5995   26.8359 H   0  0  0  0  0  0  0  0  0  0  0  0
   10.0095    2.6345   25.3546 H   0  0  0  0  0  0  0  0  0  0  0  0
   10.7890    3.7061   22.7215 H   0  0  0  0  0  0  0  0  0  0  0  0
   11.2368    2.9746   21.1751 H   0  0  0  0  0  0  0  0  0  0  0  0
   11.5201    1.5170   24.1784 O   0  0  0  0  0  0  0  0  0  0  0  0
   12.9016    2.5465   23.0683 H   0  0  0  0  0  0  0  0  0  0  0  0
   13.4200    0.4365   22.1131 H   0  0  0  0  0  0  0  0  0  0  0  0
   11.9670    0.6927   21.1203 H   0  0  0  0  0  0  0  0  0  0  0  0
   12.0881   -1.4475   22.8470 H   0  0  0  0  0  0  0  0  0  0  0  0
   10.5949   -0.5964   22.4658 H   0  0  0  0  0  0  0  0  0  0  0  0
   12.2916   -0.2115   24.9671 H   0  0  0  0  0  0  0  0  0  0  0  0
   10.0522    0.1952   25.9715 H   0  0  0  0  0  0  0  0  0  0  0  0
   10.0045   -1.3385   25.0643 H   0  0  0  0  0  0  0  0  0  0  0  0
    9.3152    0.1538   24.3545 H   0  0  0  0  0  0  0  0  0  0  0  0
  1  2  1  0
  2  3  1  0
  3  4  1  0
  4  5  1  0
  5  6  1  0
  6  7  1  0
  7  8  2  0
  8  9  1  0
  9 10  1  0
 10 11  1  0
 11 12  2  0
 12 13  1  0
 13 14  2  0
 14 15  1  0
 15 16  2  0
 16 17  1  0
 14 18  1  0
 13 19  1  0
 12 20  1  0
 10 21  1  0
 10 22  1  0
  9 23  2  0
 23 24  1  0
 24 25  1  0
 25 26  2  0
 26 27  1  0
 27 28  2  0
 28 29  1  0
 29 30  2  0
 30 31  1  0
 31 32  1  0
 32 33  2  0
 32 34  1  0
 31 35  1  0
 28 36  1  0
 27 37  1  0
 26 38  1  0
  6 39  1  0
  6 40  1  0
  5 41  1  0
  5 42  1  0
  4 43  1  0
  4 44  1  0
  3 45  1  0
  3 46  1  0
  2 47  1  0
  1 48  1  0
  1 49  1  0
  1 50  1  0
 41  2  1  0
 24  7  1  0
 30 25  1  0
 16 11  1  0
 33 29  1  0
M  END
>  <cnnaffinity>  (1) 
-5.32063

>  <filename>  (1) 
CC1CCC(Cc2nc(Cc3cccnc3)nn2-c2cccc3nc[nH]c23)O1

$$$$
