
     RDKit          3D

 27 28  0  0  0  0  0  0  0  0999 V2000
    4.9782    1.8337   16.9762 H   0  0  0  0  0  0  0  0  0  0  0  0
    5.4383    1.3144   17.8154 C   0  0  0  0  0  0  0  0  0  0  0  0
    6.5987    0.6874   17.5627 N   0  0  0  0  0  0  0  0  0  0  0  0
    7.1775    0.0412   18.5800 C   0  0  0  0  0  0  0  0  0  0  0  0
    8.1080   -0.4761   18.3380 H   0  0  0  0  0  0  0  0  0  0  0  0
    6.6572   -0.0208   19.8883 C   0  0  0  0  0  0  0  0  0  0  0  0
    7.3828   -0.7754   20.9726 C   0  0  0  0  0  0  0  0  0  0  0  0
    7.8068   -1.6959   20.5596 H   0  0  0  0  0  0  0  0  0  0  0  0
    6.6960   -1.0561   21.7753 H   0  0  0  0  0  0  0  0  0  0  0  0
    8.8295    0.0496   21.7474 S   0  0  0  0  0  0  0  0  0  0  0  0
    8.0404    1.4360   22.5410 C   0  0  0  0  0  0  0  0  0  0  0  0
    7.6018    1.3863   23.8692 C   0  0  0  0  0  0  0  0  0  0  0  0
    7.7598    0.5087   24.4836 H   0  0  0  0  0  0  0  0  0  0  0  0
    6.9030    2.4783   24.3750 C   0  0  0  0  0  0  0  0  0  0  0  0
    6.4881    2.4321   25.3822 H   0  0  0  0  0  0  0  0  0  0  0  0
    6.6556    3.5946   23.6777 N   0  0  0  0  0  0  0  0  0  0  0  0
    7.0789    3.6524   22.4096 C   0  0  0  0  0  0  0  0  0  0  0  0
    6.6671    4.8667   21.6309 C   0  0  0  0  0  0  0  0  0  0  0  0
    5.8780    4.5611   20.9378 H   0  0  0  0  0  0  0  0  0  0  0  0
    6.2753    5.6409   22.2994 H   0  0  0  0  0  0  0  0  0  0  0  0
    7.4956    5.2647   21.0391 H   0  0  0  0  0  0  0  0  0  0  0  0
    7.8079    2.6080   21.8187 C   0  0  0  0  0  0  0  0  0  0  0  0
    8.1769    2.6763   20.8067 H   0  0  0  0  0  0  0  0  0  0  0  0
    5.4274    0.6123   20.1201 C   0  0  0  0  0  0  0  0  0  0  0  0
    4.9362    0.5515   21.0964 H   0  0  0  0  0  0  0  0  0  0  0  0
    4.8185    1.2965   19.0663 C   0  0  0  0  0  0  0  0  0  0  0  0
    3.8683    1.7991   19.1959 H   0  0  0  0  0  0  0  0  0  0  0  0
  1  2  1  0
  2  3  2  0
  3  4  1  0
  4  5  1  0
  4  6  2  0
  6  7  1  0
  7  8  1  0
  7  9  1  0
  7 10  1  0
 10 11  1  0
 11 12  2  0
 12 13  1  0
 12 14  1  0
 14 15  1  0
 14 16  2  0
 16 17  1  0
 17 18  1  0
 18 19  1  0
 18 20  1  0
 18 21  1  0
 17 22  2  0
 22 23  1  0
  6 24  1  0
 24 25  1  0
 24 26  2  0
 26 27  1  0
 26  2  1  0
 22 11  1  0
M  END
>  <cnnaffinity>  (1) 
-4.46991

>  <filename>  (1) 
Cc1cc(SCc2cccnc2)ccn1

$$$$
