
     RDKit          3D

 48 52  0  0  0  0  0  0  0  0999 V2000
   12.9666    4.4941   20.7919 C   0  0  0  0  0  0  0  0  0  0  0  0
   12.5900    3.4107   21.7700 C   0  0  0  0  0  0  0  0  0  0  0  0
   13.4571    3.0568   22.8079 C   0  0  0  0  0  0  0  0  0  0  0  0
   13.0756    2.1049   23.7481 C   0  0  0  0  0  0  0  0  0  0  0  0
   11.8063    1.5126   23.7496 C   0  0  0  0  0  0  0  0  0  0  0  0
   11.4600    0.5675   24.8777 C   0  0  0  0  0  0  0  0  0  0  0  0
   10.8489    1.0605   25.6405 H   0  0  0  0  0  0  0  0  0  0  0  0
   10.9108   -0.3152   24.5432 H   0  0  0  0  0  0  0  0  0  0  0  0
   12.3691    0.2220   25.3762 H   0  0  0  0  0  0  0  0  0  0  0  0
   10.9562    1.8505   22.6735 C   0  0  0  0  0  0  0  0  0  0  0  0
    9.6163    1.3474   22.5787 N   0  0  0  0  0  0  0  0  0  0  0  0
    9.2876    0.4643   21.6067 N   0  0  0  0  0  0  0  0  0  0  0  0
    8.0376    0.1662   21.8905 C   0  0  0  0  0  0  0  0  0  0  0  0
    7.2465   -0.7759   21.0273 C   0  0  0  0  0  0  0  0  0  0  0  0
    6.5904   -0.0680   19.8467 C   0  0  0  0  0  0  0  0  0  0  0  0
    5.4524    0.7201   20.0623 C   0  0  0  0  0  0  0  0  0  0  0  0
    4.8783    1.3788   18.9739 C   0  0  0  0  0  0  0  0  0  0  0  0
    5.4836    1.2550   17.7193 C   0  0  0  0  0  0  0  0  0  0  0  0
    6.6016    0.5461   17.4991 N   0  0  0  0  0  0  0  0  0  0  0  0
    7.1364   -0.0864   18.5516 C   0  0  0  0  0  0  0  0  0  0  0  0
    8.0633   -0.6338   18.3681 H   0  0  0  0  0  0  0  0  0  0  0  0
    5.0627    1.7567   16.8507 H   0  0  0  0  0  0  0  0  0  0  0  0
    3.9842    1.9831   19.0831 H   0  0  0  0  0  0  0  0  0  0  0  0
    5.0475    0.8202   21.0735 H   0  0  0  0  0  0  0  0  0  0  0  0
    6.4867   -1.2348   21.6690 H   0  0  0  0  0  0  0  0  0  0  0  0
    7.9167   -1.5737   20.6855 H   0  0  0  0  0  0  0  0  0  0  0  0
    7.5232    0.8172   22.9646 N   0  0  0  0  0  0  0  0  0  0  0  0
    8.5199    1.6008   23.3515 C   0  0  0  0  0  0  0  0  0  0  0  0
    8.5206    2.6462   24.4230 C   0  0  0  0  0  0  0  0  0  0  0  0
    8.1916    2.3319   25.7451 C   0  0  0  0  0  0  0  0  0  0  0  0
    8.4214    3.2546   26.7895 C   0  0  0  0  0  0  0  0  0  0  0  0
    8.9313    4.4797   26.6391 N   0  0  0  0  0  0  0  0  0  0  0  0
    9.1663    4.7992   25.3601 C   0  0  0  0  0  0  0  0  0  0  0  0
    8.9285    4.0014   24.2147 C   0  0  0  0  0  0  0  0  0  0  0  0
    9.1902    4.9122   23.1438 C   0  0  0  0  0  0  0  0  0  0  0  0
    9.6411    6.0808   23.5662 N   0  0  0  0  0  0  0  0  0  0  0  0
    9.6240    5.9887   24.9153 N   0  0  0  0  0  0  0  0  0  0  0  0
    9.9612    6.7151   25.5268 H   0  0  0  0  0  0  0  0  0  0  0  0
    9.0540    4.7355   22.0842 H   0  0  0  0  0  0  0  0  0  0  0  0
    8.1851    2.9631   27.8069 H   0  0  0  0  0  0  0  0  0  0  0  0
    7.7957    1.3548   25.9932 H   0  0  0  0  0  0  0  0  0  0  0  0
   11.3711    2.7330   21.6755 C   0  0  0  0  0  0  0  0  0  0  0  0
   10.7106    2.9054   20.8348 H   0  0  0  0  0  0  0  0  0  0  0  0
   13.7726    1.7953   24.5119 H   0  0  0  0  0  0  0  0  0  0  0  0
   14.4374    3.5256   22.8684 H   0  0  0  0  0  0  0  0  0  0  0  0
   12.1231    4.8220   20.1866 H   0  0  0  0  0  0  0  0  0  0  0  0
   13.7333    4.1724   20.0873 H   0  0  0  0  0  0  0  0  0  0  0  0
   13.3778    5.3701   21.3007 H   0  0  0  0  0  0  0  0  0  0  0  0
  1  2  1  0
  2  3  2  0
  3  4  1  0
  4  5  2  0
  5  6  1  0
  6  7  1  0
  6  8  1  0
  6  9  1  0
  5 10  1  0
 10 11  1  0
 11 12  1  0
 12 13  2  0
 13 14  1  0
 14 15  1  0
 15 16  2  0
 16 17  1  0
 17 18  2  0
 18 19  1  0
 19 20  2  0
 20 21  1  0
 18 22  1  0
 17 23  1  0
 16 24  1  0
 14 25  1  0
 14 26  1  0
 13 27  1  0
 27 28  2  0
 28 29  1  0
 29 30  2  0
 30 31  1  0
 31 32  2  0
 32 33  1  0
 33 34  2  0
 34 35  1  0
 35 36  2  0
 36 37  1  0
 37 38  1  0
 35 39  1  0
 31 40  1  0
 30 41  1  0
 10 42  2  0
 42 43  1  0
  4 44  1  0
  3 45  1  0
  1 46  1  0
  1 47  1  0
  1 48  1  0
 42  2  1  0
 28 11  1  0
 34 29  1  0
 20 15  1  0
 37 33  1  0
M  END
>  <cnnaffinity>  (1) 
-6.25871

>  <filename>  (1) 
Cc1ccc(C)c(-n2nc(Cc3cccnc3)nc2-c2ccnc3[nH]ncc23)c1

$$$$
