
     RDKit          3D

 48 52  0  0  0  0  0  0  0  0999 V2000
    8.7676    7.0841   22.6505 C   0  0  0  0  0  0  0  0  0  0  0  0
    7.8841    5.9283   23.0189 C   0  0  0  0  0  0  0  0  0  0  0  0
    6.4857    5.9375   22.8716 C   0  0  0  0  0  0  0  0  0  0  0  0
    5.7653    4.7903   23.2134 C   0  0  0  0  0  0  0  0  0  0  0  0
    6.4609    3.6663   23.6624 C   0  0  0  0  0  0  0  0  0  0  0  0
    7.8563    3.7520   23.7862 C   0  0  0  0  0  0  0  0  0  0  0  0
    8.7213    2.5943   24.2180 C   0  0  0  0  0  0  0  0  0  0  0  0
    8.9242    1.6776   23.1001 N   0  0  0  0  0  0  0  0  0  0  0  0
    7.8649    0.9269   22.7355 N   0  0  0  0  0  0  0  0  0  0  0  0
    8.3050    0.2655   21.6850 C   0  0  0  0  0  0  0  0  0  0  0  0
    7.4095   -0.6831   20.9458 C   0  0  0  0  0  0  0  0  0  0  0  0
    6.6304   -0.0261   19.8157 C   0  0  0  0  0  0  0  0  0  0  0  0
    5.4303    0.6499   20.0701 C   0  0  0  0  0  0  0  0  0  0  0  0
    4.7971    1.3239   19.0219 C   0  0  0  0  0  0  0  0  0  0  0  0
    5.3964    1.3047   17.7579 C   0  0  0  0  0  0  0  0  0  0  0  0
    6.5356    0.6480   17.4866 N   0  0  0  0  0  0  0  0  0  0  0  0
    7.1246    0.0036   18.5010 C   0  0  0  0  0  0  0  0  0  0  0  0
    8.0465   -0.5291   18.2629 H   0  0  0  0  0  0  0  0  0  0  0  0
    4.9446    1.8361   16.9219 H   0  0  0  0  0  0  0  0  0  0  0  0
    3.8711    1.8717   19.1709 H   0  0  0  0  0  0  0  0  0  0  0  0
    5.0104    0.6472   21.0792 H   0  0  0  0  0  0  0  0  0  0  0  0
    8.0127   -1.5125   20.5643 H   0  0  0  0  0  0  0  0  0  0  0  0
    6.7150   -1.0884   21.6889 H   0  0  0  0  0  0  0  0  0  0  0  0
    9.5910    0.5341   21.3469 N   0  0  0  0  0  0  0  0  0  0  0  0
    9.9630    1.4259   22.2547 C   0  0  0  0  0  0  0  0  0  0  0  0
   11.2875    2.0127   22.4115 C   0  0  0  0  0  0  0  0  0  0  0  0
   11.4783    3.3916   22.4762 C   0  0  0  0  0  0  0  0  0  0  0  0
   12.6702    3.9846   22.6977 N   0  0  0  0  0  0  0  0  0  0  0  0
   13.7499    3.2188   22.8257 C   0  0  0  0  0  0  0  0  0  0  0  0
   13.6739    1.8111   22.7278 C   0  0  0  0  0  0  0  0  0  0  0  0
   12.4292    1.1910   22.5028 C   0  0  0  0  0  0  0  0  0  0  0  0
   12.6696   -0.2163   22.4231 C   0  0  0  0  0  0  0  0  0  0  0  0
   14.0110   -0.4096   22.5775 C   0  0  0  0  0  0  0  0  0  0  0  0
   14.6221    0.8129   22.7749 N   0  0  0  0  0  0  0  0  0  0  0  0
   15.6131    0.9747   22.7093 H   0  0  0  0  0  0  0  0  0  0  0  0
   14.5832   -1.3289   22.6186 H   0  0  0  0  0  0  0  0  0  0  0  0
   11.8877   -0.9427   22.2531 H   0  0  0  0  0  0  0  0  0  0  0  0
   14.6857    3.7441   22.9870 H   0  0  0  0  0  0  0  0  0  0  0  0
   10.6396    4.0752   22.3771 H   0  0  0  0  0  0  0  0  0  0  0  0
    8.2484    2.0301   25.0276 H   0  0  0  0  0  0  0  0  0  0  0  0
    9.6876    2.9718   24.5637 H   0  0  0  0  0  0  0  0  0  0  0  0
    8.5351    4.8623   23.4956 N   0  0  0  0  0  0  0  0  0  0  0  0
    5.9731    2.7196   23.8656 H   0  0  0  0  0  0  0  0  0  0  0  0
    4.6804    4.7644   23.1044 H   0  0  0  0  0  0  0  0  0  0  0  0
    5.9842    6.8256   22.5012 H   0  0  0  0  0  0  0  0  0  0  0  0
    8.6870    7.8760   23.4023 H   0  0  0  0  0  0  0  0  0  0  0  0
    8.5130    7.4784   21.6604 H   0  0  0  0  0  0  0  0  0  0  0  0
    9.8081    6.7505   22.6253 H   0  0  0  0  0  0  0  0  0  0  0  0
  1  2  1  0
  2  3  2  0
  3  4  1  0
  4  5  2  0
  5  6  1  0
  6  7  1  0
  7  8  1  0
  8  9  1  0
  9 10  2  0
 10 11  1  0
 11 12  1  0
 12 13  2  0
 13 14  1  0
 14 15  2  0
 15 16  1  0
 16 17  2  0
 17 18  1  0
 15 19  1  0
 14 20  1  0
 13 21  1  0
 11 22  1  0
 11 23  1  0
 10 24  1  0
 24 25  2  0
 25 26  1  0
 26 27  2  0
 27 28  1  0
 28 29  2  0
 29 30  1  0
 30 31  2  0
 31 32  1  0
 32 33  2  0
 33 34  1  0
 34 35  1  0
 33 36  1  0
 32 37  1  0
 29 38  1  0
 27 39  1  0
  7 40  1  0
  7 41  1  0
  6 42  2  0
  5 43  1  0
  4 44  1  0
  3 45  1  0
  1 46  1  0
  1 47  1  0
  1 48  1  0
 42  2  1  0
 25  8  1  0
 31 26  1  0
 17 12  1  0
 34 30  1  0
M  END
>  <cnnaffinity>  (1) 
-6.77209

>  <filename>  (1) 
Cc1cccc(Cn2nc(Cc3cccnc3)nc2-c2cncc3[nH]ccc23)n1

$$$$
