
     RDKit          3D

 45 49  0  0  0  0  0  0  0  0999 V2000
   11.9315    1.0277   24.4033 C   0  0  0  0  0  0  0  0  0  0  0  0
   12.1454    1.9997   23.2496 C   0  0  0  0  0  0  0  0  0  0  0  0
   13.2231    2.8959   23.2660 C   0  0  0  0  0  0  0  0  0  0  0  0
   13.4826    3.8041   22.2395 C   0  0  0  0  0  0  0  0  0  0  0  0
   12.7058    3.7453   21.0761 C   0  0  0  0  0  0  0  0  0  0  0  0
   11.6601    2.8302   20.9995 C   0  0  0  0  0  0  0  0  0  0  0  0
   11.2943    2.0829   22.1212 C   0  0  0  0  0  0  0  0  0  0  0  0
    9.9786    1.5174   22.1605 N   0  0  0  0  0  0  0  0  0  0  0  0
    9.5541    0.6150   21.2474 N   0  0  0  0  0  0  0  0  0  0  0  0
    8.3390    0.3195   21.6724 C   0  0  0  0  0  0  0  0  0  0  0  0
    7.4529   -0.6516   20.9394 C   0  0  0  0  0  0  0  0  0  0  0  0
    6.6547   -0.0282   19.7938 C   0  0  0  0  0  0  0  0  0  0  0  0
    5.4473    0.6378   20.0486 C   0  0  0  0  0  0  0  0  0  0  0  0
    4.8095    1.3147   19.0063 C   0  0  0  0  0  0  0  0  0  0  0  0
    5.3960    1.2984   17.7379 C   0  0  0  0  0  0  0  0  0  0  0  0
    6.5276    0.6341   17.4597 N   0  0  0  0  0  0  0  0  0  0  0  0
    7.1257   -0.0118   18.4684 C   0  0  0  0  0  0  0  0  0  0  0  0
    8.0408   -0.5462   18.2102 H   0  0  0  0  0  0  0  0  0  0  0  0
    4.9395    1.8322   16.9057 H   0  0  0  0  0  0  0  0  0  0  0  0
    3.8902    1.8683   19.1618 H   0  0  0  0  0  0  0  0  0  0  0  0
    5.0203    0.6308   21.0540 H   0  0  0  0  0  0  0  0  0  0  0  0
    8.0820   -1.4731   20.5795 H   0  0  0  0  0  0  0  0  0  0  0  0
    6.7725   -1.0706   21.6854 H   0  0  0  0  0  0  0  0  0  0  0  0
    7.9476    0.9809   22.7871 N   0  0  0  0  0  0  0  0  0  0  0  0
    8.9723    1.7780   23.0518 C   0  0  0  0  0  0  0  0  0  0  0  0
    9.0210    2.7974   24.1321 C   0  0  0  0  0  0  0  0  0  0  0  0
    8.5417    2.5830   25.4446 C   0  0  0  0  0  0  0  0  0  0  0  0
    8.6571    3.5860   26.4275 C   0  0  0  0  0  0  0  0  0  0  0  0
    9.1983    4.8068   26.2374 N   0  0  0  0  0  0  0  0  0  0  0  0
    9.5872    4.9995   24.9808 C   0  0  0  0  0  0  0  0  0  0  0  0
    9.5136    4.0997   23.8963 C   0  0  0  0  0  0  0  0  0  0  0  0
    9.9391    4.7179   22.7375 N   0  0  0  0  0  0  0  0  0  0  0  0
   10.3061    5.9046   23.1092 C   0  0  0  0  0  0  0  0  0  0  0  0
   10.1288    6.1373   24.4511 N   0  0  0  0  0  0  0  0  0  0  0  0
   10.2831    6.9703   24.9825 H   0  0  0  0  0  0  0  0  0  0  0  0
   10.7276    6.6250   22.4219 H   0  0  0  0  0  0  0  0  0  0  0  0
    8.2854    3.3850   27.4310 H   0  0  0  0  0  0  0  0  0  0  0  0
    8.0788    1.6361   25.7120 H   0  0  0  0  0  0  0  0  0  0  0  0
   11.0439    2.7723   20.1162 H   0  0  0  0  0  0  0  0  0  0  0  0
   12.9156    4.4109   20.2473 H   0  0  0  0  0  0  0  0  0  0  0  0
   14.3047    4.5121   22.3161 H   0  0  0  0  0  0  0  0  0  0  0  0
   13.9116    2.8483   24.0889 H   0  0  0  0  0  0  0  0  0  0  0  0
   11.5411    1.5647   25.2802 H   0  0  0  0  0  0  0  0  0  0  0  0
   12.8773    0.5466   24.6946 H   0  0  0  0  0  0  0  0  0  0  0  0
   11.2103    0.2415   24.1442 H   0  0  0  0  0  0  0  0  0  0  0  0
  1  2  1  0
  2  3  2  0
  3  4  1  0
  4  5  2  0
  5  6  1  0
  6  7  2  0
  7  8  1  0
  8  9  1  0
  9 10  2  0
 10 11  1  0
 11 12  1  0
 12 13  2  0
 13 14  1  0
 14 15  2  0
 15 16  1  0
 16 17  2  0
 17 18  1  0
 15 19  1  0
 14 20  1  0
 13 21  1  0
 11 22  1  0
 11 23  1  0
 10 24  1  0
 24 25  2  0
 25 26  1  0
 26 27  2  0
 27 28  1  0
 28 29  2  0
 29 30  1  0
 30 31  2  0
 31 32  1  0
 32 33  2  0
 33 34  1  0
 34 35  1  0
 33 36  1  0
 28 37  1  0
 27 38  1  0
  6 39  1  0
  5 40  1  0
  4 41  1  0
  3 42  1  0
  1 43  1  0
  1 44  1  0
  1 45  1  0
  7  2  1  0
 25  8  1  0
 31 26  1  0
 17 12  1  0
 34 30  1  0
M  END
>  <cnnaffinity>  (1) 
-6.22756

>  <filename>  (1) 
Cc1ccccc1-n1nc(Cc2cccnc2)nc1-c1ccnc2[nH]cnc12

$$$$
