
     RDKit          3D

 42 44  0  0  0  0  0  0  0  0999 V2000
    5.9727    1.4484   25.3078 C   0  0  0  0  0  0  0  0  0  0  0  0
    6.7871    1.8878   24.1073 C   0  0  0  0  0  0  0  0  0  0  0  0
    7.2654    0.9978   23.1928 C   0  0  0  0  0  0  0  0  0  0  0  0
    6.9084   -0.4926   23.0143 C   0  0  0  0  0  0  0  0  0  0  0  0
    6.8140   -1.2478   23.9688 O   0  0  0  0  0  0  0  0  0  0  0  0
    6.7812   -0.9502   21.6893 N   0  0  0  0  0  0  0  0  0  0  0  0
    6.3954   -0.0866   20.6065 C   0  0  0  0  0  0  0  0  0  0  0  0
    5.3240    0.8009   20.7702 C   0  0  0  0  0  0  0  0  0  0  0  0
    4.9714    1.6404   19.7054 C   0  0  0  0  0  0  0  0  0  0  0  0
    5.7175    1.5965   18.5257 C   0  0  0  0  0  0  0  0  0  0  0  0
    6.7408    0.7508   18.3424 N   0  0  0  0  0  0  0  0  0  0  0  0
    7.0591   -0.0654   19.3569 C   0  0  0  0  0  0  0  0  0  0  0  0
    7.8878   -0.7476   19.1777 H   0  0  0  0  0  0  0  0  0  0  0  0
    5.4840    2.2574   17.6901 H   0  0  0  0  0  0  0  0  0  0  0  0
    4.1404    2.3331   19.7717 H   0  0  0  0  0  0  0  0  0  0  0  0
    4.8001    0.8257   21.7246 H   0  0  0  0  0  0  0  0  0  0  0  0
    7.2255   -2.3344   21.4004 C   0  0  0  0  0  0  0  0  0  0  0  0
    6.3548   -3.3916   22.0780 C   0  0  0  0  0  0  0  0  0  0  0  0
    5.2947   -3.1580   21.9479 H   0  0  0  0  0  0  0  0  0  0  0  0
    6.5562   -4.3662   21.6176 H   0  0  0  0  0  0  0  0  0  0  0  0
    6.5728   -3.4630   23.1450 H   0  0  0  0  0  0  0  0  0  0  0  0
    8.7049   -2.5415   21.7304 C   0  0  0  0  0  0  0  0  0  0  0  0
    8.8657   -2.5138   22.8144 H   0  0  0  0  0  0  0  0  0  0  0  0
    9.0091   -3.5236   21.3604 H   0  0  0  0  0  0  0  0  0  0  0  0
    9.3404   -1.7821   21.2599 H   0  0  0  0  0  0  0  0  0  0  0  0
    7.0850   -2.4582   20.3227 H   0  0  0  0  0  0  0  0  0  0  0  0
    8.2750    1.3506   22.3246 O   0  0  0  0  0  0  0  0  0  0  0  0
    8.4910    2.6414   21.9098 C   0  0  0  0  0  0  0  0  0  0  0  0
    9.1987    2.7630   20.9509 O   0  0  0  0  0  0  0  0  0  0  0  0
    7.8154    3.6918   22.7124 C   0  0  0  0  0  0  0  0  0  0  0  0
    7.9311    5.0431   22.3437 C   0  0  0  0  0  0  0  0  0  0  0  0
    7.4226    6.0337   23.1737 C   0  0  0  0  0  0  0  0  0  0  0  0
    6.8131    5.6877   24.3932 C   0  0  0  0  0  0  0  0  0  0  0  0
    6.6414    4.3538   24.7300 C   0  0  0  0  0  0  0  0  0  0  0  0
    7.0828    3.3108   23.8725 C   0  0  0  0  0  0  0  0  0  0  0  0
    6.1475    4.0900   25.6558 H   0  0  0  0  0  0  0  0  0  0  0  0
    6.4670    6.4677   25.0680 H   0  0  0  0  0  0  0  0  0  0  0  0
    7.4780    7.0751   22.8783 H   0  0  0  0  0  0  0  0  0  0  0  0
    8.4102    5.3091   21.4008 H   0  0  0  0  0  0  0  0  0  0  0  0
    5.7568    0.3774   25.2723 H   0  0  0  0  0  0  0  0  0  0  0  0
    5.0263    1.9980   25.3712 H   0  0  0  0  0  0  0  0  0  0  0  0
    6.5254    1.6377   26.2353 H   0  0  0  0  0  0  0  0  0  0  0  0
  1  2  1  0
  2  3  2  0
  3  4  1  0
  4  5  2  0
  4  6  1  0
  6  7  1  0
  7  8  2  0
  8  9  1  0
  9 10  2  0
 10 11  1  0
 11 12  2  0
 12 13  1  0
 10 14  1  0
  9 15  1  0
  8 16  1  0
  6 17  1  0
 17 18  1  0
 18 19  1  0
 18 20  1  0
 18 21  1  0
 17 22  1  0
 22 23  1  0
 22 24  1  0
 22 25  1  0
 17 26  1  0
  3 27  1  0
 27 28  1  0
 28 29  2  0
 28 30  1  0
 30 31  2  0
 31 32  1  0
 32 33  2  0
 33 34  1  0
 34 35  2  0
 34 36  1  0
 33 37  1  0
 32 38  1  0
 31 39  1  0
  1 40  1  0
  1 41  1  0
  1 42  1  0
 35  2  1  0
 12  7  1  0
 35 30  1  0
M  END
>  <cnnaffinity>  (1) 
-5.28586

>  <filename>  (1) 
Cc1c(C(=O)N(c2cccnc2)C(C)C)oc(=O)c2ccccc12

$$$$
