
     RDKit          3D

 32 34  0  0  0  0  0  0  0  0999 V2000
    4.8693    1.8090   16.9533 H   0  0  0  0  0  0  0  0  0  0  0  0
    5.4002    1.3200   17.7655 C   0  0  0  0  0  0  0  0  0  0  0  0
    6.5632    0.7355   17.4395 N   0  0  0  0  0  0  0  0  0  0  0  0
    7.2478    0.1239   18.4193 C   0  0  0  0  0  0  0  0  0  0  0  0
    8.1557   -0.3952   18.1155 H   0  0  0  0  0  0  0  0  0  0  0  0
    6.8243    0.0814   19.7725 C   0  0  0  0  0  0  0  0  0  0  0  0
    7.5382   -0.5346   20.8197 N   0  0  0  0  0  0  0  0  0  0  0  0
    7.1480   -1.3753   21.2460 H   0  0  0  0  0  0  0  0  0  0  0  0
    8.8986   -0.4120   21.0950 C   0  0  0  0  0  0  0  0  0  0  0  0
    9.8040    0.6596   20.9056 C   0  0  0  0  0  0  0  0  0  0  0  0
    9.5722    1.6618   20.5843 H   0  0  0  0  0  0  0  0  0  0  0  0
   11.0390    0.3193   21.2622 N   0  0  0  0  0  0  0  0  0  0  0  0
   10.9335   -0.9273   21.7449 N   0  0  0  0  0  0  0  0  0  0  0  0
   11.7951   -1.4349   21.9136 H   0  0  0  0  0  0  0  0  0  0  0  0
    9.6456   -1.3998   21.7200 C   0  0  0  0  0  0  0  0  0  0  0  0
    9.1133   -2.5396   22.4698 C   0  0  0  0  0  0  0  0  0  0  0  0
    7.8526   -2.9136   22.1503 N   0  0  0  0  0  0  0  0  0  0  0  0
    7.3205   -3.9592   22.7660 C   0  0  0  0  0  0  0  0  0  0  0  0
    6.2935   -4.2124   22.5086 H   0  0  0  0  0  0  0  0  0  0  0  0
    7.9879   -4.7172   23.7321 C   0  0  0  0  0  0  0  0  0  0  0  0
    7.4038   -5.9941   24.2176 C   0  0  0  0  0  0  0  0  0  0  0  0
    7.6749   -6.7747   23.4947 H   0  0  0  0  0  0  0  0  0  0  0  0
    6.3114   -5.9609   24.2843 H   0  0  0  0  0  0  0  0  0  0  0  0
    7.7930   -6.2761   25.1998 H   0  0  0  0  0  0  0  0  0  0  0  0
    9.2549   -4.2856   24.1260 C   0  0  0  0  0  0  0  0  0  0  0  0
    9.7801   -4.8338   24.9068 H   0  0  0  0  0  0  0  0  0  0  0  0
    9.8233   -3.1813   23.4987 C   0  0  0  0  0  0  0  0  0  0  0  0
   10.7973   -2.8156   23.7985 H   0  0  0  0  0  0  0  0  0  0  0  0
    5.5762    0.6465   20.0750 C   0  0  0  0  0  0  0  0  0  0  0  0
    5.1978    0.5729   21.0960 H   0  0  0  0  0  0  0  0  0  0  0  0
    4.8625    1.2909   19.0587 C   0  0  0  0  0  0  0  0  0  0  0  0
    3.9030    1.7581   19.2534 H   0  0  0  0  0  0  0  0  0  0  0  0
  1  2  1  0
  2  3  2  0
  3  4  1  0
  4  5  1  0
  4  6  2  0
  6  7  1  0
  7  8  1  0
  7  9  1  0
  9 10  1  0
 10 11  1  0
 10 12  2  0
 12 13  1  0
 13 14  1  0
 13 15  1  0
 15 16  1  0
 16 17  2  0
 17 18  1  0
 18 19  1  0
 18 20  2  0
 20 21  1  0
 21 22  1  0
 21 23  1  0
 21 24  1  0
 20 25  1  0
 25 26  1  0
 25 27  2  0
 27 28  1  0
  6 29  1  0
 29 30  1  0
 29 31  2  0
 31 32  1  0
 31  2  1  0
 15  9  2  0
 27 16  1  0
M  END
>  <cnnaffinity>  (1) 
-5.66396

>  <filename>  (1) 
Cc1ccc(-c2[nH]ncc2Nc2cccnc2)nc1

$$$$
