
     RDKit          3D

 35 37  0  0  0  0  0  0  0  0999 V2000
    4.9393    1.7851   16.9961 H   0  0  0  0  0  0  0  0  0  0  0  0
    5.3974    1.2829   17.8456 C   0  0  0  0  0  0  0  0  0  0  0  0
    6.5647    0.6655   17.6029 N   0  0  0  0  0  0  0  0  0  0  0  0
    7.1789    0.0694   18.6308 C   0  0  0  0  0  0  0  0  0  0  0  0
    8.1307   -0.4009   18.3870 H   0  0  0  0  0  0  0  0  0  0  0  0
    6.6734    0.0552   19.9463 C   0  0  0  0  0  0  0  0  0  0  0  0
    7.3612   -0.6051   21.0111 N   0  0  0  0  0  0  0  0  0  0  0  0
    7.3464   -0.0031   22.2345 N   0  0  0  0  0  0  0  0  0  0  0  0
    7.9568   -0.5963   23.2332 C   0  0  0  0  0  0  0  0  0  0  0  0
    7.9133    0.0236   24.4649 N   0  0  0  0  0  0  0  0  0  0  0  0
    8.1939   -0.5330   25.2597 H   0  0  0  0  0  0  0  0  0  0  0  0
    7.5881    1.3691   24.6882 C   0  0  0  0  0  0  0  0  0  0  0  0
    6.9203    1.6999   25.8691 C   0  0  0  0  0  0  0  0  0  0  0  0
    6.6870    0.8965   26.5642 H   0  0  0  0  0  0  0  0  0  0  0  0
    6.5458    3.0258   26.1083 C   0  0  0  0  0  0  0  0  0  0  0  0
    6.0001    3.2771   27.0171 H   0  0  0  0  0  0  0  0  0  0  0  0
    6.8576    4.0449   25.1887 C   0  0  0  0  0  0  0  0  0  0  0  0
    6.4176    5.4710   25.4147 C   0  0  0  0  0  0  0  0  0  0  0  0
    6.3621    5.7114   26.4812 H   0  0  0  0  0  0  0  0  0  0  0  0
    5.4268    5.6610   24.9825 H   0  0  0  0  0  0  0  0  0  0  0  0
    7.1127    6.1761   24.9467 H   0  0  0  0  0  0  0  0  0  0  0  0
    7.5772    3.6974   24.0334 C   0  0  0  0  0  0  0  0  0  0  0  0
    7.8190    4.4669   23.2978 H   0  0  0  0  0  0  0  0  0  0  0  0
    7.9446    2.3748   23.7807 C   0  0  0  0  0  0  0  0  0  0  0  0
    8.4684    2.0802   22.8759 H   0  0  0  0  0  0  0  0  0  0  0  0
    8.6749   -1.9356   23.1234 C   0  0  0  0  0  0  0  0  0  0  0  0
    9.2410   -2.4788   24.0700 O   0  0  0  0  0  0  0  0  0  0  0  0
    8.5987   -2.4951   21.7866 C   0  0  0  0  0  0  0  0  0  0  0  0
    9.0776   -3.4463   21.6215 H   0  0  0  0  0  0  0  0  0  0  0  0
    7.9354   -1.8207   20.8212 C   0  0  0  0  0  0  0  0  0  0  0  0
    7.7416   -2.1586   19.8225 H   0  0  0  0  0  0  0  0  0  0  0  0
    5.4424    0.6774   20.1842 C   0  0  0  0  0  0  0  0  0  0  0  0
    5.0507    0.6488   21.1989 H   0  0  0  0  0  0  0  0  0  0  0  0
    4.7992    1.3023   19.1102 C   0  0  0  0  0  0  0  0  0  0  0  0
    3.8655    1.8341   19.2492 H   0  0  0  0  0  0  0  0  0  0  0  0
  1  2  1  0
  2  3  2  0
  3  4  1  0
  4  5  1  0
  4  6  2  0
  6  7  1  0
  7  8  1  0
  8  9  2  0
  9 10  1  0
 10 11  1  0
 10 12  1  0
 12 13  2  0
 13 14  1  0
 13 15  1  0
 15 16  1  0
 15 17  2  0
 17 18  1  0
 18 19  1  0
 18 20  1  0
 18 21  1  0
 17 22  1  0
 22 23  1  0
 22 24  2  0
 24 25  1  0
  9 26  1  0
 26 27  2  0
 26 28  1  0
 28 29  1  0
 28 30  2  0
 30 31  1  0
  6 32  1  0
 32 33  1  0
 32 34  2  0
 34 35  1  0
 34  2  1  0
 30  7  1  0
 24 12  1  0
M  END
>  <cnnaffinity>  (1) 
-5.16707

>  <filename>  (1) 
Cc1ccc(Nc2nn(-c3cccnc3)ccc2=O)cc1

$$$$
