
     RDKit          3D

 29 30  0  0  0  0  0  0  0  0999 V2000
    4.9596    1.7538   16.9078 H   0  0  0  0  0  0  0  0  0  0  0  0
    5.3969    1.2998   17.7964 C   0  0  0  0  0  0  0  0  0  0  0  0
    6.5751    0.6790   17.6304 N   0  0  0  0  0  0  0  0  0  0  0  0
    7.1408    0.1399   18.7173 C   0  0  0  0  0  0  0  0  0  0  0  0
    8.0826   -0.3851   18.5658 H   0  0  0  0  0  0  0  0  0  0  0  0
    6.5876    0.1968   20.0062 C   0  0  0  0  0  0  0  0  0  0  0  0
    7.2931   -0.4458   21.1681 C   0  0  2  0  0  0  0  0  0  0  0  0
    6.7879   -0.1804   22.1021 H   0  0  0  0  0  0  0  0  0  0  0  0
    8.9514    0.2314   21.3041 Cl  0  0  0  0  0  0  0  0  0  0  0  0
    7.3461   -1.9675   20.9828 C   0  0  0  0  0  0  0  0  0  0  0  0
    6.3642   -2.2941   20.6289 H   0  0  0  0  0  0  0  0  0  0  0  0
    8.0758   -2.1338   20.1952 H   0  0  0  0  0  0  0  0  0  0  0  0
    7.7947   -2.7524   22.1804 C   0  0  0  0  0  0  0  0  0  0  0  0
    9.1212   -2.9401   22.2446 N   0  0  0  0  0  0  0  0  0  0  0  0
    9.6109   -3.6289   23.2785 C   0  0  0  0  0  0  0  0  0  0  0  0
   10.6971   -3.7495   23.3102 H   0  0  0  0  0  0  0  0  0  0  0  0
    8.8121   -4.1534   24.2889 C   0  0  0  0  0  0  0  0  0  0  0  0
    9.2923   -4.7248   25.0754 H   0  0  0  0  0  0  0  0  0  0  0  0
    7.4279   -3.9162   24.2712 C   0  0  0  0  0  0  0  0  0  0  0  0
    6.5485   -4.3414   25.4167 C   0  0  0  0  0  0  0  0  0  0  0  0
    5.7644   -3.5983   25.5953 H   0  0  0  0  0  0  0  0  0  0  0  0
    7.1254   -4.4417   26.3411 H   0  0  0  0  0  0  0  0  0  0  0  0
    6.0689   -5.3069   25.2269 H   0  0  0  0  0  0  0  0  0  0  0  0
    6.9096   -3.2380   23.1538 C   0  0  0  0  0  0  0  0  0  0  0  0
    5.8306   -3.0844   23.0650 H   0  0  0  0  0  0  0  0  0  0  0  0
    5.3392    0.8083   20.1533 C   0  0  0  0  0  0  0  0  0  0  0  0
    4.8489    0.8264   21.1292 H   0  0  0  0  0  0  0  0  0  0  0  0
    4.7362    1.3747   19.0279 C   0  0  0  0  0  0  0  0  0  0  0  0
    3.7795    1.8781   19.0945 H   0  0  0  0  0  0  0  0  0  0  0  0
  1  2  1  0
  2  3  2  0
  3  4  1  0
  4  5  1  0
  4  6  2  0
  6  7  1  0
  7  8  1  1
  7  9  1  0
  7 10  1  0
 10 11  1  0
 10 12  1  0
 10 13  1  0
 13 14  2  0
 14 15  1  0
 15 16  1  0
 15 17  2  0
 17 18  1  0
 17 19  1  0
 19 20  1  0
 20 21  1  0
 20 22  1  0
 20 23  1  0
 19 24  2  0
 24 25  1  0
  6 26  1  0
 26 27  1  0
 26 28  2  0
 28 29  1  0
 28  2  1  0
 24 13  1  0
M  END
>  <cnnaffinity>  (1) 
-4.76505

>  <filename>  (1) 
Cc1ccnc(C[C@@H](Cl)c2cccnc2)c1

$$$$
