
     RDKit          3D

 40 42  0  0  0  0  0  0  0  0999 V2000
   11.3363    0.0104   25.2777 C   0  0  0  0  0  0  0  0  0  0  0  0
   11.5959    0.4698   23.8647 C   0  0  0  0  0  0  0  0  0  0  0  0
   12.3292    1.6315   23.5984 C   0  0  0  0  0  0  0  0  0  0  0  0
   12.3768    2.1774   22.3140 C   0  0  0  0  0  0  0  0  0  0  0  0
   11.6703    1.5628   21.2821 C   0  0  0  0  0  0  0  0  0  0  0  0
   11.0290    0.3310   21.4951 C   0  0  0  0  0  0  0  0  0  0  0  0
   11.0903   -0.2591   22.7666 C   0  0  0  0  0  0  0  0  0  0  0  0
   10.6980   -1.5454   23.0711 O   0  0  0  0  0  0  0  0  0  0  0  0
   10.0016   -2.3295   22.1129 C   0  0  0  0  0  0  0  0  0  0  0  0
    8.6650   -1.7593   21.7701 C   0  0  0  0  0  0  0  0  0  0  0  0
    8.2461   -1.3889   20.5806 N   0  0  0  0  0  0  0  0  0  0  0  0
    7.0782   -0.7466   20.8567 C   0  0  0  0  0  0  0  0  0  0  0  0
    6.3808   -0.0351   19.7973 C   0  0  0  0  0  0  0  0  0  0  0  0
    5.2013    0.7049   19.9722 C   0  0  0  0  0  0  0  0  0  0  0  0
    4.7152    1.4126   18.8756 C   0  0  0  0  0  0  0  0  0  0  0  0
    5.4108    1.3490   17.6609 C   0  0  0  0  0  0  0  0  0  0  0  0
    6.5234    0.6232   17.4833 N   0  0  0  0  0  0  0  0  0  0  0  0
    6.9940   -0.0413   18.5375 C   0  0  0  0  0  0  0  0  0  0  0  0
    7.9154   -0.5979   18.3806 H   0  0  0  0  0  0  0  0  0  0  0  0
    5.0684    1.9042   16.7916 H   0  0  0  0  0  0  0  0  0  0  0  0
    3.8267    2.0310   18.9419 H   0  0  0  0  0  0  0  0  0  0  0  0
    4.7039    0.7352   20.9451 H   0  0  0  0  0  0  0  0  0  0  0  0
    6.7330   -0.7650   22.1292 N   0  0  0  0  0  0  0  0  0  0  0  0
    7.7645   -1.4130   22.7129 N   0  0  0  0  0  0  0  0  0  0  0  0
    7.6976   -1.7222   24.1221 C   0  0  0  0  0  0  0  0  0  0  0  0
    6.8181   -2.9290   24.3933 C   0  0  0  0  0  0  0  0  0  0  0  0
    7.4628   -4.0541   23.9596 F   0  0  0  0  0  0  0  0  0  0  0  0
    6.6738   -3.0466   25.7413 F   0  0  0  0  0  0  0  0  0  0  0  0
    5.8298   -2.8833   23.9193 H   0  0  0  0  0  0  0  0  0  0  0  0
    8.6955   -1.9459   24.5038 H   0  0  0  0  0  0  0  0  0  0  0  0
    7.2947   -0.8466   24.6335 H   0  0  0  0  0  0  0  0  0  0  0  0
   10.5744   -2.4368   21.1839 H   0  0  0  0  0  0  0  0  0  0  0  0
    9.8801   -3.3083   22.5832 H   0  0  0  0  0  0  0  0  0  0  0  0
   10.5036   -0.1763   20.6905 H   0  0  0  0  0  0  0  0  0  0  0  0
   11.6405    2.0526   20.3135 H   0  0  0  0  0  0  0  0  0  0  0  0
   12.9657    3.0673   22.1169 H   0  0  0  0  0  0  0  0  0  0  0  0
   12.8637    2.1084   24.4111 H   0  0  0  0  0  0  0  0  0  0  0  0
   11.2622    0.8462   25.9778 H   0  0  0  0  0  0  0  0  0  0  0  0
   12.1389   -0.6526   25.5992 H   0  0  0  0  0  0  0  0  0  0  0  0
   10.3905   -0.5389   25.3643 H   0  0  0  0  0  0  0  0  0  0  0  0
  1  2  1  0
  2  3  2  0
  3  4  1  0
  4  5  2  0
  5  6  1  0
  6  7  2  0
  7  8  1  0
  8  9  1  0
  9 10  1  0
 10 11  2  0
 11 12  1  0
 12 13  1  0
 13 14  2  0
 14 15  1  0
 15 16  2  0
 16 17  1  0
 17 18  2  0
 18 19  1  0
 16 20  1  0
 15 21  1  0
 14 22  1  0
 12 23  2  0
 23 24  1  0
 24 25  1  0
 25 26  1  0
 26 27  1  0
 26 28  1  0
 26 29  1  0
 25 30  1  0
 25 31  1  0
  9 32  1  0
  9 33  1  0
  6 34  1  0
  5 35  1  0
  4 36  1  0
  3 37  1  0
  1 38  1  0
  1 39  1  0
  1 40  1  0
  7  2  1  0
 24 10  1  0
 18 13  1  0
M  END
>  <cnnaffinity>  (1) 
-5.46795

>  <filename>  (1) 
Cc1ccccc1OCc1nc(-c2cccnc2)nn1CC(F)F

$$$$
