
     RDKit          3D

 46 48  0  0  0  0  0  0  0  0999 V2000
    4.7996   -2.6127   26.3649 C   0  0  0  0  0  0  0  0  0  0  0  0
    6.0105   -3.4317   26.7105 C   0  0  0  0  0  0  0  0  0  0  0  0
    6.3392   -4.0123   27.9053 C   0  0  0  0  0  0  0  0  0  0  0  0
    7.6036   -4.6422   27.7549 C   0  0  0  0  0  0  0  0  0  0  0  0
    8.0108   -4.4586   26.4568 C   0  0  0  0  0  0  0  0  0  0  0  0
    9.2620   -4.9479   25.7896 C   0  0  0  0  0  0  0  0  0  0  0  0
    9.0569   -5.6195   24.9447 H   0  0  0  0  0  0  0  0  0  0  0  0
    9.8863   -4.1275   25.4114 H   0  0  0  0  0  0  0  0  0  0  0  0
    9.8702   -5.5088   26.5062 H   0  0  0  0  0  0  0  0  0  0  0  0
    7.0274   -3.7207   25.8176 N   0  0  0  0  0  0  0  0  0  0  0  0
    7.0785   -3.2635   24.4434 C   0  0  0  0  0  0  0  0  0  0  0  0
    7.7751   -1.8949   24.2791 C   0  0  0  0  0  0  0  0  0  0  0  0
    7.8236   -1.4297   22.8668 C   0  0  0  0  0  0  0  0  0  0  0  0
    6.9182   -0.6949   22.2588 N   0  0  0  0  0  0  0  0  0  0  0  0
    7.3366   -0.6906   20.9675 C   0  0  0  0  0  0  0  0  0  0  0  0
    6.6392    0.0127   19.9033 C   0  0  0  0  0  0  0  0  0  0  0  0
    5.4252    0.6629   20.1501 C   0  0  0  0  0  0  0  0  0  0  0  0
    4.8046    1.3098   19.0898 C   0  0  0  0  0  0  0  0  0  0  0  0
    5.4227    1.2834   17.8335 C   0  0  0  0  0  0  0  0  0  0  0  0
    6.5862    0.6592   17.5877 N   0  0  0  0  0  0  0  0  0  0  0  0
    7.1858    0.0441   18.6112 C   0  0  0  0  0  0  0  0  0  0  0  0
    8.1384   -0.4375   18.3881 H   0  0  0  0  0  0  0  0  0  0  0  0
    4.9583    1.7873   16.9899 H   0  0  0  0  0  0  0  0  0  0  0  0
    3.8699    1.8431   19.2320 H   0  0  0  0  0  0  0  0  0  0  0  0
    5.0036    0.6503   21.1586 H   0  0  0  0  0  0  0  0  0  0  0  0
    8.4348   -1.3805   20.7491 N   0  0  0  0  0  0  0  0  0  0  0  0
    8.7490   -1.8473   21.9752 N   0  0  0  0  0  0  0  0  0  0  0  0
    9.9975   -2.5426   22.1715 C   0  0  0  0  0  0  0  0  0  0  0  0
   11.1681   -1.7416   22.7395 C   0  0  0  0  0  0  0  0  0  0  0  0
   11.7362   -0.6621   21.8494 C   0  0  0  0  0  0  0  0  0  0  0  0
   12.1865   -1.2090   20.7035 F   0  0  0  0  0  0  0  0  0  0  0  0
   12.7958   -0.0825   22.4475 F   0  0  0  0  0  0  0  0  0  0  0  0
   10.8840    0.3182   21.5256 F   0  0  0  0  0  0  0  0  0  0  0  0
   11.9979   -2.4423   22.8608 H   0  0  0  0  0  0  0  0  0  0  0  0
   10.9561   -1.2945   23.7131 H   0  0  0  0  0  0  0  0  0  0  0  0
   10.2538   -2.9021   21.1806 H   0  0  0  0  0  0  0  0  0  0  0  0
    9.8187   -3.4077   22.8128 H   0  0  0  0  0  0  0  0  0  0  0  0
    7.2463   -1.1345   24.8604 H   0  0  0  0  0  0  0  0  0  0  0  0
    8.7918   -1.9478   24.6786 H   0  0  0  0  0  0  0  0  0  0  0  0
    7.5771   -4.0401   23.8547 H   0  0  0  0  0  0  0  0  0  0  0  0
    6.0496   -3.2009   24.0765 H   0  0  0  0  0  0  0  0  0  0  0  0
    8.1850   -5.1624   28.5064 H   0  0  0  0  0  0  0  0  0  0  0  0
    5.7457   -3.9265   28.8114 H   0  0  0  0  0  0  0  0  0  0  0  0
    4.2310   -2.3990   27.2751 H   0  0  0  0  0  0  0  0  0  0  0  0
    4.1184   -3.1200   25.6676 H   0  0  0  0  0  0  0  0  0  0  0  0
    5.0626   -1.6453   25.9177 H   0  0  0  0  0  0  0  0  0  0  0  0
  1  2  1  0
  2  3  2  0
  3  4  1  0
  4  5  2  0
  5  6  1  0
  6  7  1  0
  6  8  1  0
  6  9  1  0
  5 10  1  0
 10 11  1  0
 11 12  1  0
 12 13  1  0
 13 14  2  0
 14 15  1  0
 15 16  1  0
 16 17  2  0
 17 18  1  0
 18 19  2  0
 19 20  1  0
 20 21  2  0
 21 22  1  0
 19 23  1  0
 18 24  1  0
 17 25  1  0
 15 26  2  0
 26 27  1  0
 27 28  1  0
 28 29  1  0
 29 30  1  0
 30 31  1  0
 30 32  1  0
 30 33  1  0
 29 34  1  0
 29 35  1  0
 28 36  1  0
 28 37  1  0
 12 38  1  0
 12 39  1  0
 11 40  1  0
 11 41  1  0
  4 42  1  0
  3 43  1  0
  1 44  1  0
  1 45  1  0
  1 46  1  0
 10  2  1  0
 27 13  1  0
 21 16  1  0
M  END
>  <cnnaffinity>  (1) 
-6.20335

>  <filename>  (1) 
Cc1ccc(C)n1CCc1nc(-c2cccnc2)nn1CCC(F)(F)F

$$$$
