
     RDKit          3D

 42 45  0  0  0  0  0  0  0  0999 V2000
    9.3890    6.8026   22.4405 C   0  0  0  0  0  0  0  0  0  0  0  0
    9.2155    5.5793   23.2678 C   0  0  0  0  0  0  0  0  0  0  0  0
    9.1155    4.2809   22.8970 C   0  0  0  0  0  0  0  0  0  0  0  0
    9.0071    3.5162   24.1058 C   0  0  0  0  0  0  0  0  0  0  0  0
    8.8180    2.1492   24.3911 C   0  0  0  0  0  0  0  0  0  0  0  0
    8.8432    1.2154   23.2542 C   0  0  0  0  0  0  0  0  0  0  0  0
    7.8723    0.3919   22.8968 N   0  0  0  0  0  0  0  0  0  0  0  0
    8.2873   -0.0599   21.6899 C   0  0  0  0  0  0  0  0  0  0  0  0
    7.4296   -0.9125   20.8034 C   0  0  0  0  0  0  0  0  0  0  0  0
    6.6898   -0.1289   19.7185 C   0  0  0  0  0  0  0  0  0  0  0  0
    5.5386    0.6124   20.0237 C   0  0  0  0  0  0  0  0  0  0  0  0
    4.9048    1.3274   19.0031 C   0  0  0  0  0  0  0  0  0  0  0  0
    5.4530    1.2933   17.7176 C   0  0  0  0  0  0  0  0  0  0  0  0
    6.5678    0.6147   17.4086 N   0  0  0  0  0  0  0  0  0  0  0  0
    7.1608   -0.0696   18.3951 C   0  0  0  0  0  0  0  0  0  0  0  0
    8.0749   -0.5997   18.1245 H   0  0  0  0  0  0  0  0  0  0  0  0
    4.9798    1.8339   16.8988 H   0  0  0  0  0  0  0  0  0  0  0  0
    4.0090    1.9118   19.1863 H   0  0  0  0  0  0  0  0  0  0  0  0
    5.1500    0.6357   21.0449 H   0  0  0  0  0  0  0  0  0  0  0  0
    6.7159   -1.4210   21.4584 H   0  0  0  0  0  0  0  0  0  0  0  0
    8.0757   -1.6737   20.3566 H   0  0  0  0  0  0  0  0  0  0  0  0
    9.4753    0.3738   21.3111 N   0  0  0  0  0  0  0  0  0  0  0  0
    9.8298    1.2065   22.3162 N   0  0  0  0  0  0  0  0  0  0  0  0
   11.1492    1.8410   22.2803 C   0  0  0  0  0  0  0  0  0  0  0  0
   12.2351    1.0354   22.9674 C   0  0  0  0  0  0  0  0  0  0  0  0
   12.0884    1.1352   24.3417 F   0  0  0  0  0  0  0  0  0  0  0  0
   13.2150    1.4428   22.6877 H   0  0  0  0  0  0  0  0  0  0  0  0
   12.1845   -0.0183   22.6709 H   0  0  0  0  0  0  0  0  0  0  0  0
   11.0950    2.8222   22.7609 H   0  0  0  0  0  0  0  0  0  0  0  0
   11.3968    1.9875   21.2271 H   0  0  0  0  0  0  0  0  0  0  0  0
    8.5804    1.7729   25.7159 C   0  0  0  0  0  0  0  0  0  0  0  0
    8.5953    2.7381   26.7379 C   0  0  0  0  0  0  0  0  0  0  0  0
    8.8188    4.0942   26.4753 C   0  0  0  0  0  0  0  0  0  0  0  0
    9.0171    4.4484   25.1444 C   0  0  0  0  0  0  0  0  0  0  0  0
    9.1711    5.7041   24.6305 O   0  0  0  0  0  0  0  0  0  0  0  0
    8.8050    4.8515   27.2515 H   0  0  0  0  0  0  0  0  0  0  0  0
    8.4606    2.4099   27.7646 H   0  0  0  0  0  0  0  0  0  0  0  0
    8.3616    0.7345   25.9540 H   0  0  0  0  0  0  0  0  0  0  0  0
    9.0783    3.8690   21.9020 H   0  0  0  0  0  0  0  0  0  0  0  0
    9.5829    7.6822   23.0570 H   0  0  0  0  0  0  0  0  0  0  0  0
   10.2375    6.6328   21.7675 H   0  0  0  0  0  0  0  0  0  0  0  0
    8.5053    6.9819   21.8127 H   0  0  0  0  0  0  0  0  0  0  0  0
  1  2  1  0
  2  3  2  0
  3  4  1  0
  4  5  2  0
  5  6  1  0
  6  7  2  0
  7  8  1  0
  8  9  1  0
  9 10  1  0
 10 11  2  0
 11 12  1  0
 12 13  2  0
 13 14  1  0
 14 15  2  0
 15 16  1  0
 13 17  1  0
 12 18  1  0
 11 19  1  0
  9 20  1  0
  9 21  1  0
  8 22  2  0
 22 23  1  0
 23 24  1  0
 24 25  1  0
 25 26  1  0
 25 27  1  0
 25 28  1  0
 24 29  1  0
 24 30  1  0
  5 31  1  0
 31 32  2  0
 32 33  1  0
 33 34  2  0
 34 35  1  0
 33 36  1  0
 32 37  1  0
 31 38  1  0
  3 39  1  0
  1 40  1  0
  1 41  1  0
  1 42  1  0
 35  2  1  0
 34  4  1  0
 23  6  1  0
 15 10  1  0
M  END
>  <cnnaffinity>  (1) 
-5.72346

>  <filename>  (1) 
Cc1cc2c(-c3nc(Cc4cccnc4)nn3CCF)cccc2o1

$$$$
