
     RDKit          3D

 35 37  0  0  0  0  0  0  0  0999 V2000
    4.9418    1.8090   17.0004 H   0  0  0  0  0  0  0  0  0  0  0  0
    5.3997    1.2902   17.8401 C   0  0  0  0  0  0  0  0  0  0  0  0
    6.5484    0.6516   17.5722 N   0  0  0  0  0  0  0  0  0  0  0  0
    7.1676    0.0366   18.5853 C   0  0  0  0  0  0  0  0  0  0  0  0
    8.1238   -0.4319   18.3639 H   0  0  0  0  0  0  0  0  0  0  0  0
    6.6536   -0.0044   19.8910 C   0  0  0  0  0  0  0  0  0  0  0  0
    7.3456   -0.6904   20.9485 N   0  0  0  0  0  0  0  0  0  0  0  0
    6.5795   -1.5583   21.6654 N   0  0  0  0  0  0  0  0  0  0  0  0
    7.1523   -2.2703   22.6060 C   0  0  0  0  0  0  0  0  0  0  0  0
    6.2590   -3.3057   23.3045 C   0  0  0  0  0  0  0  0  0  0  0  0
    5.3501   -3.8538   22.7087 O   0  0  0  0  0  0  0  0  0  0  0  0
    6.5505   -3.6859   24.7476 C   0  0  0  0  0  0  0  0  0  0  0  0
    6.3037   -5.0143   25.1408 C   0  0  0  0  0  0  0  0  0  0  0  0
    5.9369   -5.7325   24.4162 H   0  0  0  0  0  0  0  0  0  0  0  0
    6.5333   -5.4175   26.4464 C   0  0  0  0  0  0  0  0  0  0  0  0
    6.3608   -6.4506   26.7406 H   0  0  0  0  0  0  0  0  0  0  0  0
    6.9951   -4.5336   27.4280 C   0  0  0  0  0  0  0  0  0  0  0  0
    7.2416   -5.1499   28.7865 C   0  0  0  0  0  0  0  0  0  0  0  0
    8.2618   -5.5368   28.8459 H   0  0  0  0  0  0  0  0  0  0  0  0
    7.0804   -4.4904   29.6414 H   0  0  0  0  0  0  0  0  0  0  0  0
    6.6067   -6.0266   28.9470 H   0  0  0  0  0  0  0  0  0  0  0  0
    7.2533   -3.2037   27.0392 C   0  0  0  0  0  0  0  0  0  0  0  0
    7.6654   -2.4675   27.7231 H   0  0  0  0  0  0  0  0  0  0  0  0
    7.0277   -2.7873   25.7196 C   0  0  0  0  0  0  0  0  0  0  0  0
    7.2452   -1.7554   25.4526 H   0  0  0  0  0  0  0  0  0  0  0  0
    8.5450   -2.1172   22.9457 C   0  0  0  0  0  0  0  0  0  0  0  0
    8.9780   -2.7199   23.7407 H   0  0  0  0  0  0  0  0  0  0  0  0
    9.2955   -1.2054   22.2672 C   0  0  0  0  0  0  0  0  0  0  0  0
   10.3408   -1.0077   22.4643 H   0  0  0  0  0  0  0  0  0  0  0  0
    8.7381   -0.3945   21.2028 C   0  0  0  0  0  0  0  0  0  0  0  0
    9.3545    0.4446   20.5673 O   0  0  0  0  0  0  0  0  0  0  0  0
    5.4355    0.6288   20.1542 C   0  0  0  0  0  0  0  0  0  0  0  0
    5.0187    0.5713   21.1589 H   0  0  0  0  0  0  0  0  0  0  0  0
    4.8042    1.3082   19.1074 C   0  0  0  0  0  0  0  0  0  0  0  0
    3.8769    1.8546   19.2551 H   0  0  0  0  0  0  0  0  0  0  0  0
  1  2  1  0
  2  3  2  0
  3  4  1  0
  4  5  1  0
  4  6  2  0
  6  7  1  0
  7  8  1  0
  8  9  2  0
  9 10  1  0
 10 11  2  0
 10 12  1  0
 12 13  2  0
 13 14  1  0
 13 15  1  0
 15 16  1  0
 15 17  2  0
 17 18  1  0
 18 19  1  0
 18 20  1  0
 18 21  1  0
 17 22  1  0
 22 23  1  0
 22 24  2  0
 24 25  1  0
  9 26  1  0
 26 27  1  0
 26 28  2  0
 28 29  1  0
 28 30  1  0
 30 31  2  0
  6 32  1  0
 32 33  1  0
 32 34  2  0
 34 35  1  0
 34  2  1  0
 30  7  1  0
 24 12  1  0
M  END
>  <cnnaffinity>  (1) 
-5.33919

>  <filename>  (1) 
Cc1ccc(C(=O)c2ccc(=O)n(-c3cccnc3)n2)cc1

$$$$
