
     RDKit          3D

 45 49  0  0  0  0  0  0  0  0999 V2000
   11.8979    1.1673   24.4046 C   0  0  0  0  0  0  0  0  0  0  0  0
   12.1105    2.0604   23.1945 C   0  0  0  0  0  0  0  0  0  0  0  0
   13.2040    2.9387   23.2044 C   0  0  0  0  0  0  0  0  0  0  0  0
   13.4135    3.8846   22.2045 C   0  0  0  0  0  0  0  0  0  0  0  0
   12.6009    3.8575   21.0649 C   0  0  0  0  0  0  0  0  0  0  0  0
   11.6365    2.8631   20.9373 C   0  0  0  0  0  0  0  0  0  0  0  0
   11.2588    2.1174   22.0612 C   0  0  0  0  0  0  0  0  0  0  0  0
    9.9356    1.5621   22.0855 N   0  0  0  0  0  0  0  0  0  0  0  0
    9.4941    0.6705   21.1639 N   0  0  0  0  0  0  0  0  0  0  0  0
    8.3251    0.2992   21.6639 C   0  0  0  0  0  0  0  0  0  0  0  0
    7.4278   -0.6784   20.9574 C   0  0  0  0  0  0  0  0  0  0  0  0
    6.6450   -0.0420   19.8161 C   0  0  0  0  0  0  0  0  0  0  0  0
    5.4431    0.6236   20.0819 C   0  0  0  0  0  0  0  0  0  0  0  0
    4.8055    1.3064   19.0460 C   0  0  0  0  0  0  0  0  0  0  0  0
    5.3938    1.3037   17.7783 C   0  0  0  0  0  0  0  0  0  0  0  0
    6.5351    0.6577   17.4947 N   0  0  0  0  0  0  0  0  0  0  0  0
    7.1351    0.0061   18.4989 C   0  0  0  0  0  0  0  0  0  0  0  0
    8.0682   -0.5007   18.2474 H   0  0  0  0  0  0  0  0  0  0  0  0
    4.9298    1.8429   16.9545 H   0  0  0  0  0  0  0  0  0  0  0  0
    3.8814    1.8472   19.2117 H   0  0  0  0  0  0  0  0  0  0  0  0
    5.0195    0.6080   21.0885 H   0  0  0  0  0  0  0  0  0  0  0  0
    8.0446   -1.5041   20.5906 H   0  0  0  0  0  0  0  0  0  0  0  0
    6.7402   -1.0863   21.7056 H   0  0  0  0  0  0  0  0  0  0  0  0
    7.9750    0.9064   22.8234 N   0  0  0  0  0  0  0  0  0  0  0  0
    8.9730    1.7469   23.0374 C   0  0  0  0  0  0  0  0  0  0  0  0
    9.0485    2.7865   24.0753 C   0  0  0  0  0  0  0  0  0  0  0  0
    8.6584    2.5623   25.3976 C   0  0  0  0  0  0  0  0  0  0  0  0
    8.7881    3.5672   26.3910 C   0  0  0  0  0  0  0  0  0  0  0  0
    9.2985    4.8268   26.1080 C   0  0  0  0  0  0  0  0  0  0  0  0
    9.6672    5.0920   24.7725 C   0  0  0  0  0  0  0  0  0  0  0  0
    9.5270    4.0954   23.7970 C   0  0  0  0  0  0  0  0  0  0  0  0
    9.9537    4.7048   22.6797 N   0  0  0  0  0  0  0  0  0  0  0  0
   10.3472    5.9682   22.9132 N   0  0  0  0  0  0  0  0  0  0  0  0
   10.1851    6.2194   24.1689 N   0  0  0  0  0  0  0  0  0  0  0  0
   10.0330    4.3202   21.7498 H   0  0  0  0  0  0  0  0  0  0  0  0
    9.4220    5.6017   26.8552 H   0  0  0  0  0  0  0  0  0  0  0  0
    8.4772    3.3309   27.4042 H   0  0  0  0  0  0  0  0  0  0  0  0
    8.2828    1.5788   25.6819 H   0  0  0  0  0  0  0  0  0  0  0  0
   11.1423    2.6911   19.9934 H   0  0  0  0  0  0  0  0  0  0  0  0
   12.6698    4.6286   20.3082 H   0  0  0  0  0  0  0  0  0  0  0  0
   14.2320    4.5950   22.2908 H   0  0  0  0  0  0  0  0  0  0  0  0
   13.9084    2.8836   24.0221 H   0  0  0  0  0  0  0  0  0  0  0  0
   12.8415    0.6711   24.6743 H   0  0  0  0  0  0  0  0  0  0  0  0
   11.1206    0.4148   24.2270 H   0  0  0  0  0  0  0  0  0  0  0  0
   11.5921    1.7769   25.2704 H   0  0  0  0  0  0  0  0  0  0  0  0
  1  2  1  0
  2  3  2  0
  3  4  1  0
  4  5  2  0
  5  6  1  0
  6  7  2  0
  7  8  1  0
  8  9  1  0
  9 10  2  0
 10 11  1  0
 11 12  1  0
 12 13  2  0
 13 14  1  0
 14 15  2  0
 15 16  1  0
 16 17  2  0
 17 18  1  0
 15 19  1  0
 14 20  1  0
 13 21  1  0
 11 22  1  0
 11 23  1  0
 10 24  1  0
 24 25  2  0
 25 26  1  0
 26 27  2  0
 27 28  1  0
 28 29  2  0
 29 30  1  0
 30 31  2  0
 31 32  1  0
 32 33  1  0
 33 34  2  0
 32 35  1  0
 29 36  1  0
 28 37  1  0
 27 38  1  0
  6 39  1  0
  5 40  1  0
  4 41  1  0
  3 42  1  0
  1 43  1  0
  1 44  1  0
  1 45  1  0
  7  2  1  0
 25  8  1  0
 31 26  1  0
 17 12  1  0
 34 30  1  0
M  END
>  <cnnaffinity>  (1) 
-6.24674

>  <filename>  (1) 
Cc1ccccc1-n1nc(Cc2cccnc2)nc1-c1cccc2nn[nH]c12

$$$$
