
     RDKit          3D

 45 49  0  0  0  0  0  0  0  0999 V2000
   14.4607    0.6991   22.6491 C   0  0  0  0  0  0  0  0  0  0  0  0
   13.2962    1.6667   22.5801 C   0  0  0  0  0  0  0  0  0  0  0  0
   11.9809    1.1950   22.4884 C   0  0  0  0  0  0  0  0  0  0  0  0
   10.8888    2.0709   22.4282 C   0  0  0  0  0  0  0  0  0  0  0  0
    9.5737    1.5432   22.3250 N   0  0  0  0  0  0  0  0  0  0  0  0
    9.2985    0.5093   21.4824 N   0  0  0  0  0  0  0  0  0  0  0  0
    8.0076    0.3271   21.6483 C   0  0  0  0  0  0  0  0  0  0  0  0
    7.2586   -0.7218   20.8717 C   0  0  0  0  0  0  0  0  0  0  0  0
    6.4989   -0.1244   19.6916 C   0  0  0  0  0  0  0  0  0  0  0  0
    5.2835    0.5388   19.9072 C   0  0  0  0  0  0  0  0  0  0  0  0
    4.7158    1.2713   18.8633 C   0  0  0  0  0  0  0  0  0  0  0  0
    5.3739    1.2970   17.6313 C   0  0  0  0  0  0  0  0  0  0  0  0
    6.5030    0.6171   17.3791 N   0  0  0  0  0  0  0  0  0  0  0  0
    7.0414   -0.0703   18.3942 C   0  0  0  0  0  0  0  0  0  0  0  0
    7.9652   -0.6042   18.1663 H   0  0  0  0  0  0  0  0  0  0  0  0
    4.9735    1.8855   16.8087 H   0  0  0  0  0  0  0  0  0  0  0  0
    3.8047    1.8444   18.9990 H   0  0  0  0  0  0  0  0  0  0  0  0
    4.8108    0.4955   20.8906 H   0  0  0  0  0  0  0  0  0  0  0  0
    7.9875   -1.4678   20.5365 H   0  0  0  0  0  0  0  0  0  0  0  0
    6.5761   -1.2172   21.5718 H   0  0  0  0  0  0  0  0  0  0  0  0
    7.4226    1.1731   22.5358 N   0  0  0  0  0  0  0  0  0  0  0  0
    8.4252    1.9225   22.9646 C   0  0  0  0  0  0  0  0  0  0  0  0
    8.3165    2.9581   23.9886 C   0  0  0  0  0  0  0  0  0  0  0  0
    9.2546    3.1545   25.0007 C   0  0  0  0  0  0  0  0  0  0  0  0
    9.1631    4.1049   25.9547 N   0  0  0  0  0  0  0  0  0  0  0  0
    8.1118    4.9363   25.9541 C   0  0  0  0  0  0  0  0  0  0  0  0
    7.0756    4.8428   24.9952 C   0  0  0  0  0  0  0  0  0  0  0  0
    7.2165    3.8285   24.0360 C   0  0  0  0  0  0  0  0  0  0  0  0
    6.1403    3.9502   23.2241 N   0  0  0  0  0  0  0  0  0  0  0  0
    5.3860    4.9872   23.6972 C   0  0  0  0  0  0  0  0  0  0  0  0
    5.8944    5.5573   24.7556 N   0  0  0  0  0  0  0  0  0  0  0  0
    4.4604    5.2744   23.2145 H   0  0  0  0  0  0  0  0  0  0  0  0
    5.9486    3.3154   22.4717 H   0  0  0  0  0  0  0  0  0  0  0  0
    8.1015    5.7001   26.7275 H   0  0  0  0  0  0  0  0  0  0  0  0
   10.1607    2.5471   25.0161 H   0  0  0  0  0  0  0  0  0  0  0  0
   11.0914    3.4572   22.4664 C   0  0  0  0  0  0  0  0  0  0  0  0
   12.3884    3.9547   22.5354 C   0  0  0  0  0  0  0  0  0  0  0  0
   13.4585    3.0653   22.5648 C   0  0  0  0  0  0  0  0  0  0  0  0
   14.6887    3.6079   22.5153 F   0  0  0  0  0  0  0  0  0  0  0  0
   12.6022    5.0178   22.5382 H   0  0  0  0  0  0  0  0  0  0  0  0
   10.2540    4.1468   22.4577 H   0  0  0  0  0  0  0  0  0  0  0  0
   11.7915    0.1255   22.4481 H   0  0  0  0  0  0  0  0  0  0  0  0
   15.3865    1.1804   22.3209 H   0  0  0  0  0  0  0  0  0  0  0  0
   14.5851    0.3272   23.6750 H   0  0  0  0  0  0  0  0  0  0  0  0
   14.2832   -0.1694   22.0019 H   0  0  0  0  0  0  0  0  0  0  0  0
  1  2  1  0
  2  3  2  0
  3  4  1  0
  4  5  1  0
  5  6  1  0
  6  7  2  0
  7  8  1  0
  8  9  1  0
  9 10  2  0
 10 11  1  0
 11 12  2  0
 12 13  1  0
 13 14  2  0
 14 15  1  0
 12 16  1  0
 11 17  1  0
 10 18  1  0
  8 19  1  0
  8 20  1  0
  7 21  1  0
 21 22  2  0
 22 23  1  0
 23 24  2  0
 24 25  1  0
 25 26  2  0
 26 27  1  0
 27 28  2  0
 28 29  1  0
 29 30  1  0
 30 31  2  0
 30 32  1  0
 29 33  1  0
 26 34  1  0
 24 35  1  0
  4 36  2  0
 36 37  1  0
 37 38  2  0
 38 39  1  0
 37 40  1  0
 36 41  1  0
  3 42  1  0
  1 43  1  0
  1 44  1  0
  1 45  1  0
 38  2  1  0
 22  5  1  0
 28 23  1  0
 14  9  1  0
 31 27  1  0
M  END
>  <cnnaffinity>  (1) 
-6.39414

>  <filename>  (1) 
Cc1cc(-n2nc(Cc3cccnc3)nc2-c2cncc3nc[nH]c23)ccc1F

$$$$
