
     RDKit          3D

 31 33  0  0  0  0  0  0  0  0999 V2000
    8.8602   -3.5287   22.2743 C   0  0  0  0  0  0  0  0  0  0  0  0
    8.2170   -2.2037   22.0454 C   0  0  0  0  0  0  0  0  0  0  0  0
    7.7447   -1.8561   20.8538 N   0  0  0  0  0  0  0  0  0  0  0  0
    7.2476   -0.6061   21.0116 N   0  0  0  0  0  0  0  0  0  0  0  0
    6.5766    0.0237   19.9416 C   0  0  0  0  0  0  0  0  0  0  0  0
    5.3603    0.6930   20.1213 C   0  0  0  0  0  0  0  0  0  0  0  0
    4.7884    1.3179   19.0159 C   0  0  0  0  0  0  0  0  0  0  0  0
    5.4559    1.2768   17.7892 C   0  0  0  0  0  0  0  0  0  0  0  0
    6.5982    0.5894   17.6024 N   0  0  0  0  0  0  0  0  0  0  0  0
    7.1325   -0.0391   18.6538 C   0  0  0  0  0  0  0  0  0  0  0  0
    8.0429   -0.6171   18.4917 H   0  0  0  0  0  0  0  0  0  0  0  0
    5.0674    1.8246   16.9321 H   0  0  0  0  0  0  0  0  0  0  0  0
    3.8419    1.8328   19.0985 H   0  0  0  0  0  0  0  0  0  0  0  0
    4.8968    0.7266   21.1076 H   0  0  0  0  0  0  0  0  0  0  0  0
    7.4484   -0.1465   22.2893 C   0  0  0  0  0  0  0  0  0  0  0  0
    7.1842    1.2086   22.7872 C   0  0  0  0  0  0  0  0  0  0  0  0
    7.4627    2.3913   22.0762 C   0  0  0  0  0  0  0  0  0  0  0  0
    7.2120    3.6295   22.6720 C   0  0  0  0  0  0  0  0  0  0  0  0
    6.6846    3.7126   23.9667 C   0  0  0  0  0  0  0  0  0  0  0  0
    6.4269    2.5318   24.6675 C   0  0  0  0  0  0  0  0  0  0  0  0
    5.7666    2.5915   26.2792 Cl  0  0  0  0  0  0  0  0  0  0  0  0
    6.6844    1.2920   24.0930 C   0  0  0  0  0  0  0  0  0  0  0  0
    6.4737    0.3778   24.6386 H   0  0  0  0  0  0  0  0  0  0  0  0
    6.4691    4.6739   24.4272 H   0  0  0  0  0  0  0  0  0  0  0  0
    7.4305    4.5469   22.1302 H   0  0  0  0  0  0  0  0  0  0  0  0
    7.8599    2.3442   21.0668 H   0  0  0  0  0  0  0  0  0  0  0  0
    8.0397   -1.1768   22.9864 C   0  0  0  0  0  0  0  0  0  0  0  0
    8.3129   -1.1733   24.0351 H   0  0  0  0  0  0  0  0  0  0  0  0
    9.9457   -3.4067   22.3942 H   0  0  0  0  0  0  0  0  0  0  0  0
    8.4889   -3.9554   23.2084 H   0  0  0  0  0  0  0  0  0  0  0  0
    8.6180   -4.2045   21.4501 H   0  0  0  0  0  0  0  0  0  0  0  0
  1  2  1  0
  2  3  2  0
  3  4  1  0
  4  5  1  0
  5  6  2  0
  6  7  1  0
  7  8  2  0
  8  9  1  0
  9 10  2  0
 10 11  1  0
  8 12  1  0
  7 13  1  0
  6 14  1  0
  4 15  1  0
 15 16  1  0
 16 17  2  0
 17 18  1  0
 18 19  2  0
 19 20  1  0
 20 21  1  0
 20 22  2  0
 22 23  1  0
 19 24  1  0
 18 25  1  0
 17 26  1  0
 15 27  2  0
 27 28  1  0
  1 29  1  0
  1 30  1  0
  1 31  1  0
 27  2  1  0
 10  5  1  0
 22 16  1  0
M  END
>  <cnnaffinity>  (1) 
-5.13532

>  <filename>  (1) 
Cc1cc(-c2cccc(Cl)c2)n(-c2cccnc2)n1

$$$$
