
     RDKit          3D

 40 44  0  0  0  0  0  0  0  0999 V2000
    7.2923   -0.1094   27.5797 C   0  0  0  0  0  0  0  0  0  0  0  0
    7.5979   -1.1736   26.5507 C   0  0  0  0  0  0  0  0  0  0  0  0
    7.9529   -2.4513   26.9047 C   0  0  0  0  0  0  0  0  0  0  0  0
    8.1346   -3.4115   25.9263 N   0  0  0  0  0  0  0  0  0  0  0  0
    8.3792   -4.7649   26.0361 C   0  0  0  0  0  0  0  0  0  0  0  0
    8.4595   -5.2163   24.7419 C   0  0  0  0  0  0  0  0  0  0  0  0
    8.2627   -4.2094   23.8412 N   0  0  0  0  0  0  0  0  0  0  0  0
    8.0476   -3.1223   24.5688 C   0  0  0  0  0  0  0  0  0  0  0  0
    7.7143   -1.7706   24.1696 C   0  0  0  0  0  0  0  0  0  0  0  0
    7.6703   -1.3887   22.7530 C   0  0  0  0  0  0  0  0  0  0  0  0
    6.7592   -0.6514   22.1381 N   0  0  0  0  0  0  0  0  0  0  0  0
    7.2144   -0.5822   20.8666 C   0  0  0  0  0  0  0  0  0  0  0  0
    6.5033    0.1037   19.7907 C   0  0  0  0  0  0  0  0  0  0  0  0
    5.2822    0.7701   19.9805 C   0  0  0  0  0  0  0  0  0  0  0  0
    4.7140    1.4202   18.8885 C   0  0  0  0  0  0  0  0  0  0  0  0
    5.3742    1.3774   17.6565 C   0  0  0  0  0  0  0  0  0  0  0  0
    6.5225    0.7141   17.4604 N   0  0  0  0  0  0  0  0  0  0  0  0
    7.0697    0.0905   18.5066 C   0  0  0  0  0  0  0  0  0  0  0  0
    7.9985   -0.4476   18.3123 H   0  0  0  0  0  0  0  0  0  0  0  0
    4.9675    1.8933   16.7891 H   0  0  0  0  0  0  0  0  0  0  0  0
    3.7828    1.9672   18.9715 H   0  0  0  0  0  0  0  0  0  0  0  0
    4.7932    0.7823   20.9560 H   0  0  0  0  0  0  0  0  0  0  0  0
    8.3687   -1.1983   20.6605 N   0  0  0  0  0  0  0  0  0  0  0  0
    8.6686   -1.6758   21.8834 N   0  0  0  0  0  0  0  0  0  0  0  0
    9.8473   -2.4532   22.1564 C   0  0  0  0  0  0  0  0  0  0  0  0
   11.2131   -1.8583   21.9890 C   0  0  0  0  0  0  0  0  0  0  0  0
   10.6743   -2.1337   23.3679 C   0  0  0  0  0  0  0  0  0  0  0  0
   10.3592   -1.2990   23.9972 H   0  0  0  0  0  0  0  0  0  0  0  0
   11.0526   -2.9990   23.9098 H   0  0  0  0  0  0  0  0  0  0  0  0
   12.0262   -2.4614   21.5943 H   0  0  0  0  0  0  0  0  0  0  0  0
   11.2461   -0.8267   21.6491 H   0  0  0  0  0  0  0  0  0  0  0  0
    9.6450   -3.4973   21.9805 H   0  0  0  0  0  0  0  0  0  0  0  0
    7.4792   -0.8491   25.1693 C   0  0  0  0  0  0  0  0  0  0  0  0
    7.2062    0.1698   24.8956 H   0  0  0  0  0  0  0  0  0  0  0  0
    8.6478   -6.2282   24.4168 H   0  0  0  0  0  0  0  0  0  0  0  0
    8.3758   -5.2680   26.9900 H   0  0  0  0  0  0  0  0  0  0  0  0
    8.0994   -2.7880   27.9189 H   0  0  0  0  0  0  0  0  0  0  0  0
    6.7471   -0.5255   28.4337 H   0  0  0  0  0  0  0  0  0  0  0  0
    6.6607    0.6707   27.1393 H   0  0  0  0  0  0  0  0  0  0  0  0
    8.2025    0.3735   27.9585 H   0  0  0  0  0  0  0  0  0  0  0  0
  1  2  1  0
  2  3  2  0
  3  4  1  0
  4  5  1  0
  5  6  2  0
  6  7  1  0
  7  8  2  0
  8  9  1  0
  9 10  1  0
 10 11  2  0
 11 12  1  0
 12 13  1  0
 13 14  2  0
 14 15  1  0
 15 16  2  0
 16 17  1  0
 17 18  2  0
 18 19  1  0
 16 20  1  0
 15 21  1  0
 14 22  1  0
 12 23  2  0
 23 24  1  0
 24 25  1  0
 25 26  1  0
 26 27  1  0
 27 28  1  0
 27 29  1  0
 26 30  1  0
 26 31  1  0
 25 32  1  0
  9 33  2  0
 33 34  1  0
  6 35  1  0
  5 36  1  0
  3 37  1  0
  1 38  1  0
  1 39  1  0
  1 40  1  0
 33  2  1  0
  8  4  1  0
 24 10  1  0
 27 25  1  0
 18 13  1  0
M  END
>  <cnnaffinity>  (1) 
-6.15994

>  <filename>  (1) 
Cc1cc(-c2nc(-c3cccnc3)nn2C2CC2)c2nccn2c1

$$$$
