
     RDKit          3D

 36 38  0  0  0  0  0  0  0  0999 V2000
    6.2652    0.1833   24.4588 C   0  0  0  0  0  0  0  0  0  0  0  0
    7.1974    1.3225   24.8151 C   0  0  0  0  0  0  0  0  0  0  0  0
    6.6566    2.5105   25.3334 C   0  0  0  0  0  0  0  0  0  0  0  0
    7.4698    3.5929   25.6870 C   0  0  0  0  0  0  0  0  0  0  0  0
    8.8562    3.5046   25.5226 C   0  0  0  0  0  0  0  0  0  0  0  0
    9.4127    2.3349   25.0042 C   0  0  0  0  0  0  0  0  0  0  0  0
    8.5979    1.2514   24.6357 C   0  0  0  0  0  0  0  0  0  0  0  0
    9.2539    0.0512   24.0580 C   0  0  0  0  0  0  0  0  0  0  0  0
   10.0669   -0.6922   24.7317 N   0  0  0  0  0  0  0  0  0  0  0  0
   10.5074   -1.6675   23.8342 O   0  0  0  0  0  0  0  0  0  0  0  0
    9.9683   -1.4557   22.6056 C   0  0  0  0  0  0  0  0  0  0  0  0
   10.1994   -2.0962   21.6100 O   0  0  0  0  0  0  0  0  0  0  0  0
    9.1346   -0.3651   22.7518 N   0  0  0  0  0  0  0  0  0  0  0  0
    8.4244    0.2571   21.6427 C   0  0  0  0  0  0  0  0  0  0  0  0
    7.4134   -0.6968   20.9996 C   0  0  0  0  0  0  0  0  0  0  0  0
    6.6429   -0.0170   19.8917 C   0  0  0  0  0  0  0  0  0  0  0  0
    5.4350    0.6479   20.1397 C   0  0  0  0  0  0  0  0  0  0  0  0
    4.7995    1.3170   19.0904 C   0  0  0  0  0  0  0  0  0  0  0  0
    5.3913    1.3042   17.8238 C   0  0  0  0  0  0  0  0  0  0  0  0
    6.5525    0.6857   17.5625 N   0  0  0  0  0  0  0  0  0  0  0  0
    7.1535    0.0572   18.5815 C   0  0  0  0  0  0  0  0  0  0  0  0
    8.1081   -0.4165   18.3468 H   0  0  0  0  0  0  0  0  0  0  0  0
    4.9181    1.8032   16.9788 H   0  0  0  0  0  0  0  0  0  0  0  0
    3.8688    1.8498   19.2408 H   0  0  0  0  0  0  0  0  0  0  0  0
    5.0009    0.6386   21.1420 H   0  0  0  0  0  0  0  0  0  0  0  0
    6.7338   -1.0552   21.7833 H   0  0  0  0  0  0  0  0  0  0  0  0
    7.9691   -1.5713   20.6385 H   0  0  0  0  0  0  0  0  0  0  0  0
    7.9286    1.1578   22.0170 H   0  0  0  0  0  0  0  0  0  0  0  0
    9.1523    0.5792   20.8885 H   0  0  0  0  0  0  0  0  0  0  0  0
   10.4862    2.2343   24.8637 H   0  0  0  0  0  0  0  0  0  0  0  0
    9.4997    4.3353   25.8030 H   0  0  0  0  0  0  0  0  0  0  0  0
    7.0225    4.4963   26.0990 H   0  0  0  0  0  0  0  0  0  0  0  0
    5.5768    2.5703   25.4636 H   0  0  0  0  0  0  0  0  0  0  0  0
    5.4595    0.0843   25.1950 H   0  0  0  0  0  0  0  0  0  0  0  0
    5.7777    0.3664   23.4937 H   0  0  0  0  0  0  0  0  0  0  0  0
    6.7908   -0.7749   24.3894 H   0  0  0  0  0  0  0  0  0  0  0  0
  1  2  1  0
  2  3  2  0
  3  4  1  0
  4  5  2  0
  5  6  1  0
  6  7  2  0
  7  8  1  0
  8  9  2  0
  9 10  1  0
 10 11  1  0
 11 12  2  0
 11 13  1  0
 13 14  1  0
 14 15  1  0
 15 16  1  0
 16 17  2  0
 17 18  1  0
 18 19  2  0
 19 20  1  0
 20 21  2  0
 21 22  1  0
 19 23  1  0
 18 24  1  0
 17 25  1  0
 15 26  1  0
 15 27  1  0
 14 28  1  0
 14 29  1  0
  6 30  1  0
  5 31  1  0
  4 32  1  0
  3 33  1  0
  1 34  1  0
  1 35  1  0
  1 36  1  0
  7  2  1  0
 13  8  1  0
 21 16  1  0
M  END
>  <cnnaffinity>  (1) 
-5.20075

>  <filename>  (1) 
Cc1ccccc1-c1noc(=O)n1CCc1cccnc1

$$$$
