
     RDKit          3D

 50 53  0  0  0  0  0  0  0  0999 V2000
    5.4813   -1.2799   26.6639 C   0  0  0  0  0  0  0  0  0  0  0  0
    5.7527    0.0464   26.0037 C   0  0  0  0  0  0  0  0  0  0  0  0
    5.4128    1.2753   26.6549 C   0  0  0  0  0  0  0  0  0  0  0  0
    5.6771    2.4682   26.0302 C   0  0  0  0  0  0  0  0  0  0  0  0
    6.2868    2.4589   24.7382 C   0  0  0  0  0  0  0  0  0  0  0  0
    6.5893    3.6436   24.0079 C   0  0  0  0  0  0  0  0  0  0  0  0
    7.1722    3.5339   22.7624 C   0  0  0  0  0  0  0  0  0  0  0  0
    7.5788    4.9709   21.8623 Cl  0  0  0  0  0  0  0  0  0  0  0  0
    7.4581    2.2828   22.1864 C   0  0  0  0  0  0  0  0  0  0  0  0
    7.1721    1.1046   22.8725 C   0  0  0  0  0  0  0  0  0  0  0  0
    7.4644   -0.2017   22.2991 C   0  0  0  0  0  0  0  0  0  0  0  0
    8.0931   -1.2067   22.8841 N   0  0  0  0  0  0  0  0  0  0  0  0
    8.3181   -2.0612   21.8668 C   0  0  0  0  0  0  0  0  0  0  0  0
    8.8134   -3.4291   22.0852 C   0  0  0  0  0  0  0  0  0  0  0  0
    7.7842   -4.2362   22.8660 C   0  0  0  0  0  0  0  0  0  0  0  0
    8.2685   -5.6545   22.9636 N   0  0  0  0  0  4  0  0  0  0  0  0
    8.9904   -5.9086   24.2617 C   0  0  0  0  0  0  0  0  0  0  0  0
    9.7812   -5.1657   24.4151 H   0  0  0  0  0  0  0  0  0  0  0  0
    9.4480   -6.9000   24.2566 H   0  0  0  0  0  0  0  0  0  0  0  0
    8.3004   -5.8438   25.1135 H   0  0  0  0  0  0  0  0  0  0  0  0
    7.1938   -6.6591   22.7303 C   0  0  0  0  0  0  0  0  0  0  0  0
    7.6320   -7.6536   22.6201 H   0  0  0  0  0  0  0  0  0  0  0  0
    6.6146   -6.4246   21.8289 H   0  0  0  0  0  0  0  0  0  0  0  0
    6.4881   -6.6520   23.5691 H   0  0  0  0  0  0  0  0  0  0  0  0
    8.9724   -5.7581   22.2059 H   0  0  0  0  0  0  0  0  0  0  0  0
    7.6216   -3.8071   23.8614 H   0  0  0  0  0  0  0  0  0  0  0  0
    6.8182   -4.2389   22.3484 H   0  0  0  0  0  0  0  0  0  0  0  0
    9.7842   -3.4233   22.5926 H   0  0  0  0  0  0  0  0  0  0  0  0
    8.8989   -3.8778   21.0988 H   0  0  0  0  0  0  0  0  0  0  0  0
    7.8919   -1.6760   20.6912 N   0  0  0  0  0  0  0  0  0  0  0  0
    7.2996   -0.4886   20.9589 N   0  0  0  0  0  0  0  0  0  0  0  0
    6.5692    0.1249   19.9173 C   0  0  0  0  0  0  0  0  0  0  0  0
    5.3440    0.7674   20.1125 C   0  0  0  0  0  0  0  0  0  0  0  0
    4.7610    1.3825   19.0028 C   0  0  0  0  0  0  0  0  0  0  0  0
    5.4113    1.3246   17.7662 C   0  0  0  0  0  0  0  0  0  0  0  0
    6.5588    0.6517   17.5681 N   0  0  0  0  0  0  0  0  0  0  0  0
    7.1059    0.0438   18.6182 C   0  0  0  0  0  0  0  0  0  0  0  0
    8.0132   -0.5354   18.4557 H   0  0  0  0  0  0  0  0  0  0  0  0
    4.9825    1.8134   16.8965 H   0  0  0  0  0  0  0  0  0  0  0  0
    3.8166    1.9055   19.0898 H   0  0  0  0  0  0  0  0  0  0  0  0
    4.8754    0.7918   21.0975 H   0  0  0  0  0  0  0  0  0  0  0  0
    6.5931    1.1639   24.1732 C   0  0  0  0  0  0  0  0  0  0  0  0
    6.3060   -0.0009   24.8189 N   0  0  0  0  0  0  0  0  0  0  0  0
    7.9015    2.2712   21.1914 H   0  0  0  0  0  0  0  0  0  0  0  0
    6.3609    4.6259   24.4185 H   0  0  0  0  0  0  0  0  0  0  0  0
    5.4254    3.4202   26.5024 H   0  0  0  0  0  0  0  0  0  0  0  0
    4.9508    1.2388   27.6353 H   0  0  0  0  0  0  0  0  0  0  0  0
    5.8831   -2.0848   26.0427 H   0  0  0  0  0  0  0  0  0  0  0  0
    4.4063   -1.4363   26.7924 H   0  0  0  0  0  0  0  0  0  0  0  0
    5.9418   -1.3318   27.6550 H   0  0  0  0  0  0  0  0  0  0  0  0
  1  2  1  0
  2  3  2  0
  3  4  1  0
  4  5  2  0
  5  6  1  0
  6  7  2  0
  7  8  1  0
  7  9  1  0
  9 10  2  0
 10 11  1  0
 11 12  2  0
 12 13  1  0
 13 14  1  0
 14 15  1  0
 15 16  1  0
 16 17  1  0
 17 18  1  0
 17 19  1  0
 17 20  1  0
 16 21  1  0
 21 22  1  0
 21 23  1  0
 21 24  1  0
 16 25  1  0
 15 26  1  0
 15 27  1  0
 14 28  1  0
 14 29  1  0
 13 30  2  0
 30 31  1  0
 31 32  1  0
 32 33  2  0
 33 34  1  0
 34 35  2  0
 35 36  1  0
 36 37  2  0
 37 38  1  0
 35 39  1  0
 34 40  1  0
 33 41  1  0
 10 42  1  0
 42 43  2  0
  9 44  1  0
  6 45  1  0
  4 46  1  0
  3 47  1  0
  1 48  1  0
  1 49  1  0
  1 50  1  0
 43  2  1  0
 42  5  1  0
 31 11  1  0
 37 32  1  0
M  CHG  1  16   1
M  END
>  <cnnaffinity>  (1) 
-5.99204

>  <filename>  (1) 
Cc1ccc2cc(Cl)cc(-c3nc(CC[NH+](C)C)nn3-c3cccnc3)c2n1

$$$$
