
     RDKit          3D

 36 38  0  0  0  0  0  0  0  0999 V2000
   10.5193   -1.8918   21.8724 C   0  0  0  0  0  0  0  0  0  0  0  0
    9.0797   -1.5362   21.9863 C   0  0  0  0  0  0  0  0  0  0  0  0
    8.4226   -1.6854   23.1801 C   0  0  0  0  0  0  0  0  0  0  0  0
    7.1228   -1.2558   23.2504 C   0  0  0  0  0  0  0  0  0  0  0  0
    6.3444   -1.1643   24.8198 S   0  0  0  0  0  0  0  0  0  0  0  0
    6.8427    0.5815   25.1036 C   0  0  0  0  0  0  0  0  0  0  0  0
    8.3400    0.6541   25.1656 C   0  0  0  0  0  0  0  0  0  0  0  0
    9.0401    1.0086   24.0075 C   0  0  0  0  0  0  0  0  0  0  0  0
   10.4334    1.0057   23.9912 C   0  0  0  0  0  0  0  0  0  0  0  0
   11.1375    0.6065   25.1288 C   0  0  0  0  0  0  0  0  0  0  0  0
   13.0357    0.4811   25.0562 Br  0  0  0  0  0  0  0  0  0  0  0  0
   10.4453    0.2693   26.2939 C   0  0  0  0  0  0  0  0  0  0  0  0
    9.0481    0.3106   26.3247 C   0  0  0  0  0  0  0  0  0  0  0  0
    8.5283    0.0201   27.2333 H   0  0  0  0  0  0  0  0  0  0  0  0
   10.9841   -0.0457   27.1797 H   0  0  0  0  0  0  0  0  0  0  0  0
   10.9744    1.2634   23.0847 H   0  0  0  0  0  0  0  0  0  0  0  0
    8.4892    1.2637   23.1079 H   0  0  0  0  0  0  0  0  0  0  0  0
    6.4042    0.9641   26.0260 H   0  0  0  0  0  0  0  0  0  0  0  0
    6.4792    1.2000   24.2763 H   0  0  0  0  0  0  0  0  0  0  0  0
    6.5225   -0.7314   22.1952 N   0  0  0  0  0  0  0  0  0  0  0  0
    7.2038   -0.6070   21.0630 C   0  0  0  0  0  0  0  0  0  0  0  0
    6.5610    0.0458   19.9504 C   0  0  0  0  0  0  0  0  0  0  0  0
    5.3364    0.7211   20.0707 C   0  0  0  0  0  0  0  0  0  0  0  0
    4.8285    1.3309   18.9345 C   0  0  0  0  0  0  0  0  0  0  0  0
    5.5315    1.2572   17.7319 C   0  0  0  0  0  0  0  0  0  0  0  0
    6.7058    0.6109   17.6275 N   0  0  0  0  0  0  0  0  0  0  0  0
    7.2100    0.0220   18.7202 C   0  0  0  0  0  0  0  0  0  0  0  0
    8.1644   -0.4925   18.6257 H   0  0  0  0  0  0  0  0  0  0  0  0
    5.1073    1.7293   16.8523 H   0  0  0  0  0  0  0  0  0  0  0  0
    3.8964    1.8796   18.9700 H   0  0  0  0  0  0  0  0  0  0  0  0
    4.8074    0.7917   21.0229 H   0  0  0  0  0  0  0  0  0  0  0  0
    8.4729   -1.0026   20.9329 N   0  0  0  0  0  0  0  0  0  0  0  0
    8.9110   -2.0636   24.0641 H   0  0  0  0  0  0  0  0  0  0  0  0
   10.8252   -2.6260   22.6211 H   0  0  0  0  0  0  0  0  0  0  0  0
   10.6999   -2.3052   20.8851 H   0  0  0  0  0  0  0  0  0  0  0  0
   11.1261   -0.9948   21.9956 H   0  0  0  0  0  0  0  0  0  0  0  0
  1  2  1  0
  2  3  2  0
  3  4  1  0
  4  5  1  0
  5  6  1  0
  6  7  1  0
  7  8  2  0
  8  9  1  0
  9 10  2  0
 10 11  1  0
 10 12  1  0
 12 13  2  0
 13 14  1  0
 12 15  1  0
  9 16  1  0
  8 17  1  0
  6 18  1  0
  6 19  1  0
  4 20  2  0
 20 21  1  0
 21 22  1  0
 22 23  2  0
 23 24  1  0
 24 25  2  0
 25 26  1  0
 26 27  2  0
 27 28  1  0
 25 29  1  0
 24 30  1  0
 23 31  1  0
 21 32  2  0
  3 33  1  0
  1 34  1  0
  1 35  1  0
  1 36  1  0
 32  2  1  0
 13  7  1  0
 27 22  1  0
M  END
>  <cnnaffinity>  (1) 
-5.4361

>  <filename>  (1) 
Cc1cc(SCc2ccc(Br)cc2)nc(-c2cccnc2)n1

$$$$
