
     RDKit          3D

 35 37  0  0  0  0  0  0  0  0999 V2000
    4.9179    1.7937   16.9853 H   0  0  0  0  0  0  0  0  0  0  0  0
    5.3960    1.3012   17.8281 C   0  0  0  0  0  0  0  0  0  0  0  0
    6.5603    0.6873   17.5643 N   0  0  0  0  0  0  0  0  0  0  0  0
    7.1825    0.0780   18.5791 C   0  0  0  0  0  0  0  0  0  0  0  0
    8.1245   -0.4225   18.3497 H   0  0  0  0  0  0  0  0  0  0  0  0
    6.6655    0.0245   19.8876 C   0  0  0  0  0  0  0  0  0  0  0  0
    7.3704   -0.6690   20.9368 N   0  0  0  0  0  0  0  0  0  0  0  0
    8.6621   -0.2599   21.2686 C   0  0  0  0  0  0  0  0  0  0  0  0
    9.0473    0.5617   20.6697 H   0  0  0  0  0  0  0  0  0  0  0  0
    9.3646   -0.8349   22.2659 C   0  0  0  0  0  0  0  0  0  0  0  0
   10.6482   -0.4991   22.6015 O   0  0  0  0  0  0  0  0  0  0  0  0
   11.1206    0.8005   22.5269 C   0  0  0  0  0  0  0  0  0  0  0  0
   12.5035    0.9355   22.3574 C   0  0  0  0  0  0  0  0  0  0  0  0
   13.1013    0.0389   22.2313 H   0  0  0  0  0  0  0  0  0  0  0  0
   13.0682    2.2114   22.3743 C   0  0  0  0  0  0  0  0  0  0  0  0
   14.1489    2.3346   22.3780 H   0  0  0  0  0  0  0  0  0  0  0  0
   12.2538    3.3454   22.4457 C   0  0  0  0  0  0  0  0  0  0  0  0
   12.6929    4.3345   22.3488 H   0  0  0  0  0  0  0  0  0  0  0  0
   10.8762    3.2181   22.6487 C   0  0  0  0  0  0  0  0  0  0  0  0
   10.0160    4.4415   22.8596 C   0  0  0  0  0  0  0  0  0  0  0  0
    8.9953    4.2642   22.5045 H   0  0  0  0  0  0  0  0  0  0  0  0
    9.9668    4.7048   23.9231 H   0  0  0  0  0  0  0  0  0  0  0  0
   10.4186    5.3142   22.3327 H   0  0  0  0  0  0  0  0  0  0  0  0
   10.3157    1.9297   22.7159 C   0  0  0  0  0  0  0  0  0  0  0  0
    9.2593    1.8070   22.9354 H   0  0  0  0  0  0  0  0  0  0  0  0
    8.7720   -1.9856   23.0059 C   0  0  0  0  0  0  0  0  0  0  0  0
    9.2409   -2.6577   23.8937 O   0  0  0  0  0  0  0  0  0  0  0  0
    7.5042   -2.3038   22.5839 N   0  0  0  0  0  0  0  0  0  0  0  0
    7.0621   -3.0653   23.0537 H   0  0  0  0  0  0  0  0  0  0  0  0
    6.7484   -1.7424   21.6095 C   0  0  0  0  0  0  0  0  0  0  0  0
    5.6517   -2.1977   21.3750 O   0  0  0  0  0  0  0  0  0  0  0  0
    5.4456    0.6545   20.1508 C   0  0  0  0  0  0  0  0  0  0  0  0
    5.0225    0.6088   21.1537 H   0  0  0  0  0  0  0  0  0  0  0  0
    4.8095    1.3176   19.0977 C   0  0  0  0  0  0  0  0  0  0  0  0
    3.8749    1.8424   19.2495 H   0  0  0  0  0  0  0  0  0  0  0  0
  1  2  1  0
  2  3  2  0
  3  4  1  0
  4  5  1  0
  4  6  2  0
  6  7  1  0
  7  8  1  0
  8  9  1  0
  8 10  2  0
 10 11  1  0
 11 12  1  0
 12 13  2  0
 13 14  1  0
 13 15  1  0
 15 16  1  0
 15 17  2  0
 17 18  1  0
 17 19  1  0
 19 20  1  0
 20 21  1  0
 20 22  1  0
 20 23  1  0
 19 24  2  0
 24 25  1  0
 10 26  1  0
 26 27  2  0
 26 28  1  0
 28 29  1  0
 28 30  1  0
 30 31  2  0
  6 32  1  0
 32 33  1  0
 32 34  2  0
 34 35  1  0
 34  2  1  0
 30  7  1  0
 24 12  1  0
M  END
>  <cnnaffinity>  (1) 
-5.10453

>  <filename>  (1) 
Cc1cccc(Oc2cn(-c3cccnc3)c(=O)[nH]c2=O)c1

$$$$
