
     RDKit          3D

 39 42  0  0  0  0  0  0  0  0999 V2000
   14.5651    0.7485   22.7108 C   0  0  0  0  0  0  0  0  0  0  0  0
   13.4021    1.7071   22.7728 C   0  0  0  0  0  0  0  0  0  0  0  0
   13.6063    3.0618   22.8164 C   0  0  0  0  0  0  0  0  0  0  0  0
   12.5246    3.9152   22.8994 N   0  0  0  0  0  0  0  0  0  0  0  0
   12.4910    5.2889   22.9768 C   0  0  0  0  0  0  0  0  0  0  0  0
   11.1551    5.6078   22.9467 C   0  0  0  0  0  0  0  0  0  0  0  0
   10.3627    4.4933   22.9028 N   0  0  0  0  0  0  0  0  0  0  0  0
   11.2065    3.4709   22.8626 C   0  0  0  0  0  0  0  0  0  0  0  0
   10.9754    2.0567   22.7347 C   0  0  0  0  0  0  0  0  0  0  0  0
    9.6302    1.5309   22.5232 C   0  0  0  0  0  0  0  0  0  0  0  0
    9.3267    0.5980   21.6239 N   0  0  0  0  0  0  0  0  0  0  0  0
    8.0052    0.3918   21.8151 C   0  0  0  0  0  0  0  0  0  0  0  0
    7.2598   -0.6146   20.9794 C   0  0  0  0  0  0  0  0  0  0  0  0
    6.5409   -0.0076   19.7842 C   0  0  0  0  0  0  0  0  0  0  0  0
    5.3472    0.6975   19.9718 C   0  0  0  0  0  0  0  0  0  0  0  0
    4.7688    1.3513   18.8837 C   0  0  0  0  0  0  0  0  0  0  0  0
    5.4109    1.2772   17.6433 C   0  0  0  0  0  0  0  0  0  0  0  0
    6.5458    0.5903   17.4358 N   0  0  0  0  0  0  0  0  0  0  0  0
    7.0878   -0.0333   18.4891 C   0  0  0  0  0  0  0  0  0  0  0  0
    8.0216   -0.5733   18.3114 H   0  0  0  0  0  0  0  0  0  0  0  0
    4.9970    1.7852   16.7751 H   0  0  0  0  0  0  0  0  0  0  0  0
    3.8560    1.9287   18.9853 H   0  0  0  0  0  0  0  0  0  0  0  0
    4.8968    0.7484   20.9649 H   0  0  0  0  0  0  0  0  0  0  0  0
    7.9826   -1.3649   20.6383 H   0  0  0  0  0  0  0  0  0  0  0  0
    6.5471   -1.1288   21.6323 H   0  0  0  0  0  0  0  0  0  0  0  0
    7.4752    1.1165   22.7867 N   0  0  0  0  0  0  0  0  0  0  0  0
    8.5228    1.8388   23.2441 N   0  0  0  0  0  0  0  0  0  0  0  0
    8.3465    2.7150   24.3939 C   0  0  0  0  0  0  0  0  0  0  0  0
    7.9350    3.6829   24.0890 H   0  0  0  0  0  0  0  0  0  0  0  0
    9.3282    2.8844   24.8416 H   0  0  0  0  0  0  0  0  0  0  0  0
    7.6915    2.2240   25.1219 H   0  0  0  0  0  0  0  0  0  0  0  0
   12.0702    1.2132   22.7310 C   0  0  0  0  0  0  0  0  0  0  0  0
   11.9059    0.1387   22.6469 H   0  0  0  0  0  0  0  0  0  0  0  0
   10.7285    6.6002   22.9038 H   0  0  0  0  0  0  0  0  0  0  0  0
   13.4090    5.8548   23.0557 H   0  0  0  0  0  0  0  0  0  0  0  0
   14.5776    3.5321   22.7253 H   0  0  0  0  0  0  0  0  0  0  0  0
   14.3743   -0.0838   22.0246 H   0  0  0  0  0  0  0  0  0  0  0  0
   14.7781    0.3093   23.6922 H   0  0  0  0  0  0  0  0  0  0  0  0
   15.4659    1.2639   22.3647 H   0  0  0  0  0  0  0  0  0  0  0  0
  1  2  1  0
  2  3  2  0
  3  4  1  0
  4  5  1  0
  5  6  2  0
  6  7  1  0
  7  8  2  0
  8  9  1  0
  9 10  1  0
 10 11  2  0
 11 12  1  0
 12 13  1  0
 13 14  1  0
 14 15  2  0
 15 16  1  0
 16 17  2  0
 17 18  1  0
 18 19  2  0
 19 20  1  0
 17 21  1  0
 16 22  1  0
 15 23  1  0
 13 24  1  0
 13 25  1  0
 12 26  2  0
 26 27  1  0
 27 28  1  0
 28 29  1  0
 28 30  1  0
 28 31  1  0
  9 32  2  0
 32 33  1  0
  6 34  1  0
  5 35  1  0
  3 36  1  0
  1 37  1  0
  1 38  1  0
  1 39  1  0
 32  2  1  0
  8  4  1  0
 27 10  1  0
 19 14  1  0
M  END
>  <cnnaffinity>  (1) 
-5.7674

>  <filename>  (1) 
Cc1cc(-c2nc(Cc3cccnc3)nn2C)c2nccn2c1

$$$$
