
     RDKit          3D

 52 55  0  0  0  0  0  0  0  0999 V2000
    7.6564    1.5008   25.7257 C   0  0  0  0  0  0  0  0  0  0  0  0
    8.6940    2.5515   25.2994 C   0  0  0  0  0  0  0  0  0  0  0  0
    8.6111    3.8151   26.1879 C   0  0  0  0  0  0  0  0  0  0  0  0
    7.4373    4.7453   25.8425 C   0  0  0  0  0  0  0  0  0  0  0  0
    7.4771    5.1460   24.3622 C   0  0  0  0  0  0  0  0  0  0  0  0
    7.4845    3.9077   23.4503 C   0  0  0  0  0  0  0  0  0  0  0  0
    8.6693    2.9786   23.7959 C   0  0  0  0  0  0  0  0  0  0  0  0
    8.7605    1.8365   22.8680 N   0  0  0  0  0  0  0  0  0  0  0  0
    7.6893    1.0358   22.6487 N   0  0  0  0  0  0  0  0  0  0  0  0
    8.1113    0.2024   21.7151 C   0  0  0  0  0  0  0  0  0  0  0  0
    7.1975   -0.7683   21.0254 C   0  0  0  0  0  0  0  0  0  0  0  0
    6.4651   -0.1230   19.8457 C   0  0  0  0  0  0  0  0  0  0  0  0
    5.2813    0.6055   20.0385 C   0  0  0  0  0  0  0  0  0  0  0  0
    4.7473    1.3288   18.9677 C   0  0  0  0  0  0  0  0  0  0  0  0
    5.4074    1.2937   17.7374 C   0  0  0  0  0  0  0  0  0  0  0  0
    6.5179    0.5740   17.5146 N   0  0  0  0  0  0  0  0  0  0  0  0
    7.0213   -0.1068   18.5522 C   0  0  0  0  0  0  0  0  0  0  0  0
    7.9331   -0.6691   18.3460 H   0  0  0  0  0  0  0  0  0  0  0  0
    5.0394    1.8770   16.8951 H   0  0  0  0  0  0  0  0  0  0  0  0
    3.8639    1.9479   19.0815 H   0  0  0  0  0  0  0  0  0  0  0  0
    4.7944    0.6237   21.0159 H   0  0  0  0  0  0  0  0  0  0  0  0
    7.8075   -1.6173   20.6936 H   0  0  0  0  0  0  0  0  0  0  0  0
    6.4907   -1.1278   21.7793 H   0  0  0  0  0  0  0  0  0  0  0  0
    9.4023    0.3827   21.3437 N   0  0  0  0  0  0  0  0  0  0  0  0
    9.7872    1.4186   22.0758 C   0  0  0  0  0  0  0  0  0  0  0  0
   11.1054    2.1491   22.0587 C   0  0  0  0  0  0  0  0  0  0  0  0
   12.0021    2.1032   23.1421 C   0  0  0  0  0  0  0  0  0  0  0  0
   13.1107    2.9486   23.1332 C   0  0  0  0  0  0  0  0  0  0  0  0
   13.2723    3.8599   22.0811 C   0  0  0  0  0  0  0  0  0  0  0  0
   14.3420    4.9106   22.0518 C   0  0  0  0  0  0  0  0  0  0  0  0
   13.7841    6.2179   22.0102 O   0  0  0  0  0  0  0  0  0  0  0  0
   13.8907    6.5611   21.1196 H   0  0  0  0  0  0  0  0  0  0  0  0
   14.9619    4.8391   22.9531 H   0  0  0  0  0  0  0  0  0  0  0  0
   14.9930    4.7424   21.1828 H   0  0  0  0  0  0  0  0  0  0  0  0
   12.3679    3.7723   21.0152 C   0  0  0  0  0  0  0  0  0  0  0  0
   11.3544    2.9093   20.9792 N   0  0  0  0  0  0  0  0  0  0  0  0
   12.4532    4.4190   20.1383 H   0  0  0  0  0  0  0  0  0  0  0  0
   13.8432    2.9077   23.9357 H   0  0  0  0  0  0  0  0  0  0  0  0
   11.8366    1.4049   23.9539 H   0  0  0  0  0  0  0  0  0  0  0  0
    9.5844    3.5568   23.6284 H   0  0  0  0  0  0  0  0  0  0  0  0
    6.5483    3.3437   23.5581 H   0  0  0  0  0  0  0  0  0  0  0  0
    7.5491    4.2054   22.3977 H   0  0  0  0  0  0  0  0  0  0  0  0
    6.6380    5.8069   24.1125 H   0  0  0  0  0  0  0  0  0  0  0  0
    8.3901    5.7344   24.1791 H   0  0  0  0  0  0  0  0  0  0  0  0
    6.4846    4.2395   26.0581 H   0  0  0  0  0  0  0  0  0  0  0  0
    7.4704    5.6362   26.4831 H   0  0  0  0  0  0  0  0  0  0  0  0
    8.5499    3.5079   27.2384 H   0  0  0  0  0  0  0  0  0  0  0  0
    9.5421    4.3883   26.0808 H   0  0  0  0  0  0  0  0  0  0  0  0
    9.6820    2.0938   25.4631 H   0  0  0  0  0  0  0  0  0  0  0  0
    7.7623    1.3047   26.8012 H   0  0  0  0  0  0  0  0  0  0  0  0
    6.6223    1.8194   25.5488 H   0  0  0  0  0  0  0  0  0  0  0  0
    7.7983    0.5608   25.1882 H   0  0  0  0  0  0  0  0  0  0  0  0
  1  2  1  0
  2  3  1  0
  3  4  1  0
  4  5  1  0
  5  6  1  0
  6  7  1  0
  7  8  1  0
  8  9  1  0
  9 10  2  0
 10 11  1  0
 11 12  1  0
 12 13  2  0
 13 14  1  0
 14 15  2  0
 15 16  1  0
 16 17  2  0
 17 18  1  0
 15 19  1  0
 14 20  1  0
 13 21  1  0
 11 22  1  0
 11 23  1  0
 10 24  1  0
 24 25  2  0
 25 26  1  0
 26 27  2  0
 27 28  1  0
 28 29  2  0
 29 30  1  0
 30 31  1  0
 31 32  1  0
 30 33  1  0
 30 34  1  0
 29 35  1  0
 35 36  2  0
 35 37  1  0
 28 38  1  0
 27 39  1  0
  7 40  1  0
  6 41  1  0
  6 42  1  0
  5 43  1  0
  5 44  1  0
  4 45  1  0
  4 46  1  0
  3 47  1  0
  3 48  1  0
  2 49  1  0
  1 50  1  0
  1 51  1  0
  1 52  1  0
  7  2  1  0
 25  8  1  0
 36 26  1  0
 17 12  1  0
M  END
>  <cnnaffinity>  (1) 
-6.42697

>  <filename>  (1) 
CC1CCCCC1n1nc(Cc2cccnc2)nc1-c1ccc(CO)cn1

$$$$
