
     RDKit          3D

 45 49  0  0  0  0  0  0  0  0999 V2000
   10.3258    1.6779   25.4812 C   0  0  0  0  0  0  0  0  0  0  0  0
    9.2924    2.7446   25.2195 C   0  0  0  0  0  0  0  0  0  0  0  0
    9.0925    3.6256   26.2072 N   0  0  0  0  0  0  0  0  0  0  0  0
    8.1761    4.5857   26.0550 C   0  0  0  0  0  0  0  0  0  0  0  0
    7.4007    4.7352   24.9025 C   0  0  0  0  0  0  0  0  0  0  0  0
    7.5814    3.8199   23.8662 C   0  0  0  0  0  0  0  0  0  0  0  0
    8.5520    2.8284   24.0147 C   0  0  0  0  0  0  0  0  0  0  0  0
    8.7557    1.9113   22.9456 N   0  0  0  0  0  0  0  0  0  0  0  0
    7.7161    1.1609   22.5128 N   0  0  0  0  0  0  0  0  0  0  0  0
    8.2767    0.3472   21.6452 C   0  0  0  0  0  0  0  0  0  0  0  0
    7.4752   -0.6646   20.8638 C   0  0  0  0  0  0  0  0  0  0  0  0
    6.6601   -0.0610   19.7151 C   0  0  0  0  0  0  0  0  0  0  0  0
    5.4534    0.6025   19.9870 C   0  0  0  0  0  0  0  0  0  0  0  0
    4.8131    1.2964   18.9578 C   0  0  0  0  0  0  0  0  0  0  0  0
    5.3877    1.2890   17.6855 C   0  0  0  0  0  0  0  0  0  0  0  0
    6.5022    0.6059   17.3837 N   0  0  0  0  0  0  0  0  0  0  0  0
    7.1085   -0.0503   18.3805 C   0  0  0  0  0  0  0  0  0  0  0  0
    8.0156   -0.5876   18.1000 H   0  0  0  0  0  0  0  0  0  0  0  0
    4.9387    1.8570   16.8728 H   0  0  0  0  0  0  0  0  0  0  0  0
    3.9014    1.8579   19.1289 H   0  0  0  0  0  0  0  0  0  0  0  0
    5.0353    0.5846   20.9958 H   0  0  0  0  0  0  0  0  0  0  0  0
    6.7970   -1.1550   21.5720 H   0  0  0  0  0  0  0  0  0  0  0  0
    8.1888   -1.4171   20.5168 H   0  0  0  0  0  0  0  0  0  0  0  0
    9.6149    0.5030   21.4939 N   0  0  0  0  0  0  0  0  0  0  0  0
    9.8947    1.5205   22.2963 C   0  0  0  0  0  0  0  0  0  0  0  0
   11.2169    2.1329   22.5366 C   0  0  0  0  0  0  0  0  0  0  0  0
   12.3412    1.2987   22.6309 C   0  0  0  0  0  0  0  0  0  0  0  0
   13.6445    1.8172   22.7867 C   0  0  0  0  0  0  0  0  0  0  0  0
   13.8683    3.1844   22.8128 C   0  0  0  0  0  0  0  0  0  0  0  0
   12.7410    4.0253   22.7875 C   0  0  0  0  0  0  0  0  0  0  0  0
   11.4145    3.5513   22.6848 C   0  0  0  0  0  0  0  0  0  0  0  0
   10.6588    4.7774   22.6878 C   0  0  0  0  0  0  0  0  0  0  0  0
   11.4253    5.8509   22.7686 N   0  0  0  0  0  0  0  0  0  0  0  0
   12.6822    5.3791   22.8246 N   0  0  0  0  0  0  0  0  0  0  0  0
   13.4795    5.9996   22.8389 H   0  0  0  0  0  0  0  0  0  0  0  0
    9.5937    4.9358   22.6055 H   0  0  0  0  0  0  0  0  0  0  0  0
   14.8580    3.6262   22.7940 H   0  0  0  0  0  0  0  0  0  0  0  0
   14.4902    1.1338   22.8380 H   0  0  0  0  0  0  0  0  0  0  0  0
   12.1993    0.2208   22.6148 H   0  0  0  0  0  0  0  0  0  0  0  0
    7.0282    3.8816   22.9262 H   0  0  0  0  0  0  0  0  0  0  0  0
    6.6672    5.5316   24.8303 H   0  0  0  0  0  0  0  0  0  0  0  0
    8.0542    5.2696   26.8922 H   0  0  0  0  0  0  0  0  0  0  0  0
   10.2234    0.8132   24.8242 H   0  0  0  0  0  0  0  0  0  0  0  0
   10.2335    1.3375   26.5074 H   0  0  0  0  0  0  0  0  0  0  0  0
   11.3297    2.0871   25.3434 H   0  0  0  0  0  0  0  0  0  0  0  0
  1  2  1  0
  2  3  2  0
  3  4  1  0
  4  5  2  0
  5  6  1  0
  6  7  2  0
  7  8  1  0
  8  9  1  0
  9 10  2  0
 10 11  1  0
 11 12  1  0
 12 13  2  0
 13 14  1  0
 14 15  2  0
 15 16  1  0
 16 17  2  0
 17 18  1  0
 15 19  1  0
 14 20  1  0
 13 21  1  0
 11 22  1  0
 11 23  1  0
 10 24  1  0
 24 25  2  0
 25 26  1  0
 26 27  2  0
 27 28  1  0
 28 29  2  0
 29 30  1  0
 30 31  2  0
 31 32  1  0
 32 33  2  0
 33 34  1  0
 34 35  1  0
 32 36  1  0
 29 37  1  0
 28 38  1  0
 27 39  1  0
  6 40  1  0
  5 41  1  0
  4 42  1  0
  1 43  1  0
  1 44  1  0
  1 45  1  0
  7  2  1  0
 25  8  1  0
 31 26  1  0
 17 12  1  0
 34 30  1  0
M  END
>  <cnnaffinity>  (1) 
-6.08452

>  <filename>  (1) 
Cc1ncccc1-n1nc(Cc2cccnc2)nc1-c1cccc2[nH]ncc12

$$$$
