
     RDKit          3D

 43 47  0  0  0  0  0  0  0  0999 V2000
   10.0194    8.0121   26.7807 C   0  0  0  0  0  0  0  0  0  0  0  0
    9.6532    6.6885   26.1991 C   0  0  0  0  0  0  0  0  0  0  0  0
    9.9783    6.2749   25.0088 N   0  0  0  0  0  0  0  0  0  0  0  0
    9.4667    4.9921   24.9189 C   0  0  0  0  0  0  0  0  0  0  0  0
    9.5158    4.0716   23.8646 C   0  0  0  0  0  0  0  0  0  0  0  0
    8.9016    2.8270   24.0424 C   0  0  0  0  0  0  0  0  0  0  0  0
    8.9305    1.8608   22.9889 N   0  0  0  0  0  0  0  0  0  0  0  0
    7.8731    1.0392   22.7400 N   0  0  0  0  0  0  0  0  0  0  0  0
    8.2882    0.3158   21.7225 C   0  0  0  0  0  0  0  0  0  0  0  0
    7.4102   -0.6719   21.0138 C   0  0  0  0  0  0  0  0  0  0  0  0
    6.6386   -0.0149   19.8826 C   0  0  0  0  0  0  0  0  0  0  0  0
    5.4340    0.6456   20.1438 C   0  0  0  0  0  0  0  0  0  0  0  0
    4.7992    1.3145   19.0955 C   0  0  0  0  0  0  0  0  0  0  0  0
    5.3932    1.2996   17.8291 C   0  0  0  0  0  0  0  0  0  0  0  0
    6.5556    0.6850   17.5613 N   0  0  0  0  0  0  0  0  0  0  0  0
    7.1553    0.0553   18.5781 C   0  0  0  0  0  0  0  0  0  0  0  0
    8.1124   -0.4182   18.3581 H   0  0  0  0  0  0  0  0  0  0  0  0
    4.9145    1.7930   16.9864 H   0  0  0  0  0  0  0  0  0  0  0  0
    3.8701    1.8487   19.2492 H   0  0  0  0  0  0  0  0  0  0  0  0
    5.0201    0.6368   21.1563 H   0  0  0  0  0  0  0  0  0  0  0  0
    8.0445   -1.4805   20.6358 H   0  0  0  0  0  0  0  0  0  0  0  0
    6.7225   -1.0976   21.7511 H   0  0  0  0  0  0  0  0  0  0  0  0
    9.5481    0.5804   21.3028 N   0  0  0  0  0  0  0  0  0  0  0  0
    9.9404    1.5357   22.1292 C   0  0  0  0  0  0  0  0  0  0  0  0
   11.3175    2.0679   22.2110 C   0  0  0  0  0  0  0  0  0  0  0  0
   12.1076    1.9206   23.4874 C   0  0  0  0  0  0  0  0  0  0  0  0
   12.4559    1.0874   22.2922 C   0  0  0  0  0  0  0  0  0  0  0  0
   13.3758    1.2999   21.7691 H   0  0  0  0  0  0  0  0  0  0  0  0
   12.1871    0.0325   22.2801 H   0  0  0  0  0  0  0  0  0  0  0  0
   12.7840    2.7186   23.7839 H   0  0  0  0  0  0  0  0  0  0  0  0
   11.6029    1.4169   24.3070 H   0  0  0  0  0  0  0  0  0  0  0  0
   11.4709    2.9657   21.6149 H   0  0  0  0  0  0  0  0  0  0  0  0
    8.2453    2.4972   25.2639 C   0  0  0  0  0  0  0  0  0  0  0  0
    8.1982    3.4072   26.3174 C   0  0  0  0  0  0  0  0  0  0  0  0
    8.8167    4.6433   26.1176 C   0  0  0  0  0  0  0  0  0  0  0  0
    8.9588    5.7522   26.9225 N   0  0  0  0  0  0  0  0  0  0  0  0
    8.5951    5.8642   27.8498 H   0  0  0  0  0  0  0  0  0  0  0  0
    7.6928    3.1837   27.2552 H   0  0  0  0  0  0  0  0  0  0  0  0
    7.7660    1.5248   25.3608 H   0  0  0  0  0  0  0  0  0  0  0  0
   10.0007    4.3599   22.9407 H   0  0  0  0  0  0  0  0  0  0  0  0
   10.9425    7.9211   27.3644 H   0  0  0  0  0  0  0  0  0  0  0  0
    9.2326    8.4014   27.4358 H   0  0  0  0  0  0  0  0  0  0  0  0
   10.1993    8.7137   25.9627 H   0  0  0  0  0  0  0  0  0  0  0  0
  1  2  1  0
  2  3  2  0
  3  4  1  0
  4  5  2  0
  5  6  1  0
  6  7  1  0
  7  8  1  0
  8  9  2  0
  9 10  1  0
 10 11  1  0
 11 12  2  0
 12 13  1  0
 13 14  2  0
 14 15  1  0
 15 16  2  0
 16 17  1  0
 14 18  1  0
 13 19  1  0
 12 20  1  0
 10 21  1  0
 10 22  1  0
  9 23  1  0
 23 24  2  0
 24 25  1  0
 25 26  1  0
 26 27  1  0
 27 28  1  0
 27 29  1  0
 26 30  1  0
 26 31  1  0
 25 32  1  0
  6 33  2  0
 33 34  1  0
 34 35  2  0
 35 36  1  0
 36 37  1  0
 34 38  1  0
 33 39  1  0
  5 40  1  0
  1 41  1  0
  1 42  1  0
  1 43  1  0
 36  2  1  0
 35  4  1  0
 24  7  1  0
 27 25  1  0
 16 11  1  0
M  END
>  <cnnaffinity>  (1) 
-5.812

>  <filename>  (1) 
Cc1nc2cc(-n3nc(Cc4cccnc4)nc3C3CC3)ccc2[nH]1

$$$$
