
     RDKit          3D

 41 44  0  0  0  0  0  0  0  0999 V2000
    1.6542   -9.0223   25.5032 C   0  0  0  0  0  0  0  0  0  0  0  0
    1.8640   -7.9217   24.5037 C   0  0  0  0  0  0  0  0  0  0  0  0
    1.1728   -7.9461   23.3959 N   0  0  0  0  0  0  0  0  0  0  0  0
    1.5897   -6.8728   22.6135 O   0  0  0  0  0  0  0  0  0  0  0  0
    2.5403   -6.2047   23.2791 C   0  0  0  0  0  0  0  0  0  0  0  0
    3.2443   -5.0867   22.8240 C   0  0  0  0  0  0  0  0  0  0  0  0
    4.3466   -4.6501   23.5731 C   0  0  0  0  0  0  0  0  0  0  0  0
    5.2592   -3.6423   22.9498 C   0  0  0  0  0  0  0  0  0  0  0  0
    5.8282   -2.5464   23.4251 N   0  0  0  0  0  0  0  0  0  0  0  0
    6.3049   -1.9317   22.2989 C   0  0  0  0  0  0  0  0  0  0  0  0
    6.9132   -0.5472   22.2437 C   0  0  0  0  0  0  0  0  0  0  0  0
    6.6613    0.1628   20.9135 C   0  0  0  0  0  0  0  0  0  0  0  0
    5.4025    0.7201   20.6620 C   0  0  0  0  0  0  0  0  0  0  0  0
    5.1357    1.2986   19.4198 C   0  0  0  0  0  0  0  0  0  0  0  0
    6.1312    1.2589   18.4446 C   0  0  0  0  0  0  0  0  0  0  0  0
    7.3375    0.7110   18.6415 N   0  0  0  0  0  0  0  0  0  0  0  0
    7.5854    0.1907   19.8530 C   0  0  0  0  0  0  0  0  0  0  0  0
    8.5734   -0.2495   19.9801 H   0  0  0  0  0  0  0  0  0  0  0  0
    5.9615    1.7131   17.4701 H   0  0  0  0  0  0  0  0  0  0  0  0
    4.1869    1.7804   19.2141 H   0  0  0  0  0  0  0  0  0  0  0  0
    4.6383    0.7059   21.4358 H   0  0  0  0  0  0  0  0  0  0  0  0
    7.9835   -0.6306   22.4602 H   0  0  0  0  0  0  0  0  0  0  0  0
    6.4777    0.0134   23.0771 H   0  0  0  0  0  0  0  0  0  0  0  0
    6.1891   -2.6469   21.2036 N   0  0  0  0  0  0  0  0  0  0  0  0
    5.5046   -3.7394   21.6019 N   0  0  0  0  0  0  0  0  0  0  0  0
    5.7643   -4.9278   20.7991 C   0  0  0  0  0  0  0  0  0  0  0  0
    7.0565   -5.6071   21.2260 C   0  0  0  0  0  0  0  0  0  0  0  0
    8.1127   -4.8040   21.3648 F   0  0  0  0  0  0  0  0  0  0  0  0
    6.8884   -6.2627   22.3916 F   0  0  0  0  0  0  0  0  0  0  0  0
    7.3671   -6.4968   20.2819 F   0  0  0  0  0  0  0  0  0  0  0  0
    5.8603   -4.5987   19.7628 H   0  0  0  0  0  0  0  0  0  0  0  0
    4.9695   -5.6727   20.8799 H   0  0  0  0  0  0  0  0  0  0  0  0
    4.5775   -5.2092   24.8594 C   0  0  0  0  0  0  0  0  0  0  0  0
    3.7849   -6.2475   25.3492 C   0  0  0  0  0  0  0  0  0  0  0  0
    2.7752   -6.7943   24.5195 C   0  0  0  0  0  0  0  0  0  0  0  0
    3.9477   -6.6361   26.3511 H   0  0  0  0  0  0  0  0  0  0  0  0
    5.4126   -4.8499   25.4581 H   0  0  0  0  0  0  0  0  0  0  0  0
    2.9444   -4.5761   21.9210 H   0  0  0  0  0  0  0  0  0  0  0  0
    2.2032   -9.9218   25.2026 H   0  0  0  0  0  0  0  0  0  0  0  0
    0.5956   -9.2959   25.5522 H   0  0  0  0  0  0  0  0  0  0  0  0
    2.0049   -8.7453   26.5018 H   0  0  0  0  0  0  0  0  0  0  0  0
  1  2  1  0
  2  3  2  0
  3  4  1  0
  4  5  1  0
  5  6  2  0
  6  7  1  0
  7  8  1  0
  8  9  2  0
  9 10  1  0
 10 11  1  0
 11 12  1  0
 12 13  2  0
 13 14  1  0
 14 15  2  0
 15 16  1  0
 16 17  2  0
 17 18  1  0
 15 19  1  0
 14 20  1  0
 13 21  1  0
 11 22  1  0
 11 23  1  0
 10 24  2  0
 24 25  1  0
 25 26  1  0
 26 27  1  0
 27 28  1  0
 27 29  1  0
 27 30  1  0
 26 31  1  0
 26 32  1  0
  7 33  2  0
 33 34  1  0
 34 35  2  0
 34 36  1  0
 33 37  1  0
  6 38  1  0
  1 39  1  0
  1 40  1  0
  1 41  1  0
 35  2  1  0
 35  5  1  0
 25  8  1  0
 17 12  1  0
M  END
>  <cnnaffinity>  (1) 
-5.90248

>  <filename>  (1) 
Cc1noc2cc(-c3nc(Cc4cccnc4)nn3CC(F)(F)F)ccc12

$$$$
