
     RDKit          3D

 50 55  0  0  0  0  0  0  0  0999 V2000
    9.6833    7.7290   27.2327 C   0  0  0  0  0  0  0  0  0  0  0  0
    9.4191    6.4128   26.5953 C   0  0  0  0  0  0  0  0  0  0  0  0
    9.5911    6.1243   25.3374 N   0  0  0  0  0  0  0  0  0  0  0  0
    9.2083    4.7998   25.2232 C   0  0  0  0  0  0  0  0  0  0  0  0
    9.1765    3.9700   24.1047 C   0  0  0  0  0  0  0  0  0  0  0  0
    8.8080    2.6294   24.2740 C   0  0  0  0  0  0  0  0  0  0  0  0
    8.8489    1.7314   23.1667 N   0  0  0  0  0  0  0  0  0  0  0  0
    7.8182    0.9336   22.8008 N   0  0  0  0  0  0  0  0  0  0  0  0
    8.3011    0.2794   21.7609 C   0  0  0  0  0  0  0  0  0  0  0  0
    7.4329   -0.6662   20.9683 C   0  0  0  0  0  0  0  0  0  0  0  0
    6.6576   -0.0070   19.8309 C   0  0  0  0  0  0  0  0  0  0  0  0
    5.4472    0.6534   20.0806 C   0  0  0  0  0  0  0  0  0  0  0  0
    4.8112    1.3246   19.0346 C   0  0  0  0  0  0  0  0  0  0  0  0
    5.4068    1.3052   17.7712 C   0  0  0  0  0  0  0  0  0  0  0  0
    6.5440    0.6472   17.4979 N   0  0  0  0  0  0  0  0  0  0  0  0
    7.1386    0.0047   18.5108 C   0  0  0  0  0  0  0  0  0  0  0  0
    8.0515   -0.5421   18.2669 H   0  0  0  0  0  0  0  0  0  0  0  0
    4.9496    1.8332   16.9369 H   0  0  0  0  0  0  0  0  0  0  0  0
    3.8789    1.8579   19.1859 H   0  0  0  0  0  0  0  0  0  0  0  0
    5.0165    0.6337   21.0832 H   0  0  0  0  0  0  0  0  0  0  0  0
    8.0525   -1.4837   20.5822 H   0  0  0  0  0  0  0  0  0  0  0  0
    6.7194   -1.0997   21.6778 H   0  0  0  0  0  0  0  0  0  0  0  0
    9.5987    0.5694   21.4597 N   0  0  0  0  0  0  0  0  0  0  0  0
    9.9172    1.4779   22.3699 C   0  0  0  0  0  0  0  0  0  0  0  0
   11.2292    2.1461   22.6679 C   0  0  2  0  0  0  0  0  0  0  0  0
   12.3450    1.8175   21.6716 C   0  0  0  0  0  0  0  0  0  0  0  0
   13.1231    0.6433   22.3012 C   0  0  0  0  0  0  0  0  0  0  0  0
   12.9934    0.8711   23.8002 C   0  0  2  0  0  0  0  0  0  0  0  0
   11.7721    0.3381   24.4926 C   0  0  0  0  0  0  0  0  0  0  0  0
   11.8190    1.7741   24.0490 C   0  0  2  0  0  0  0  0  0  0  0  0
   11.8442    2.5168   24.8426 H   0  0  0  0  0  0  0  0  0  0  0  0
   11.1249   -0.3556   23.9527 H   0  0  0  0  0  0  0  0  0  0  0  0
   11.8591    0.1486   25.5621 H   0  0  0  0  0  0  0  0  0  0  0  0
   13.8990    1.0006   24.3790 H   0  0  0  0  0  0  0  0  0  0  0  0
   14.1680    0.5988   21.9752 H   0  0  0  0  0  0  0  0  0  0  0  0
   12.6608   -0.3118   22.0220 H   0  0  0  0  0  0  0  0  0  0  0  0
   11.9614    1.6287   20.6652 H   0  0  0  0  0  0  0  0  0  0  0  0
   12.9860    2.7052   21.6427 H   0  0  0  0  0  0  0  0  0  0  0  0
   11.0554    3.2207   22.6338 H   0  0  0  0  0  0  0  0  0  0  0  0
    8.4770    2.1213   25.5518 C   0  0  0  0  0  0  0  0  0  0  0  0
    8.4717    2.9527   26.6691 C   0  0  0  0  0  0  0  0  0  0  0  0
    8.8239    4.2893   26.4755 C   0  0  0  0  0  0  0  0  0  0  0  0
    8.9523    5.3583   27.3336 N   0  0  0  0  0  0  0  0  0  0  0  0
    8.6269    5.4015   28.2846 H   0  0  0  0  0  0  0  0  0  0  0  0
    8.2207    2.5844   27.6586 H   0  0  0  0  0  0  0  0  0  0  0  0
    8.2373    1.0680   25.6521 H   0  0  0  0  0  0  0  0  0  0  0  0
    9.4470    4.3932   23.1469 H   0  0  0  0  0  0  0  0  0  0  0  0
    8.7417    8.2595   27.4077 H   0  0  0  0  0  0  0  0  0  0  0  0
   10.3126    8.3313   26.5752 H   0  0  0  0  0  0  0  0  0  0  0  0
   10.1839    7.5974   28.1968 H   0  0  0  0  0  0  0  0  0  0  0  0
  1  2  1  0
  2  3  2  0
  3  4  1  0
  4  5  2  0
  5  6  1  0
  6  7  1  0
  7  8  1  0
  8  9  2  0
  9 10  1  0
 10 11  1  0
 11 12  2  0
 12 13  1  0
 13 14  2  0
 14 15  1  0
 15 16  2  0
 16 17  1  0
 14 18  1  0
 13 19  1  0
 12 20  1  0
 10 21  1  0
 10 22  1  0
  9 23  1  0
 23 24  2  0
 24 25  1  0
 25 26  1  0
 26 27  1  0
 27 28  1  0
 28 29  1  0
 29 30  1  0
 30 31  1  1
 29 32  1  0
 29 33  1  0
 28 34  1  1
 27 35  1  0
 27 36  1  0
 26 37  1  0
 26 38  1  0
 25 39  1  1
  6 40  2  0
 40 41  1  0
 41 42  2  0
 42 43  1  0
 43 44  1  0
 41 45  1  0
 40 46  1  0
  5 47  1  0
  1 48  1  0
  1 49  1  0
  1 50  1  0
 43  2  1  0
 42  4  1  0
 24  7  1  0
 30 25  1  0
 16 11  1  0
 30 28  1  0
M  END
>  <cnnaffinity>  (1) 
-6.22867

>  <filename>  (1) 
Cc1nc2cc(-n3nc(Cc4cccnc4)nc3[C@@H]3CC[C@@H]4C[C@@H]43)ccc2[nH]1

$$$$
