
     RDKit          3D

 23 24  0  0  0  0  0  0  0  0999 V2000
    5.6538   -1.6555   21.6477 H   0  0  0  0  0  0  0  0  0  0  0  0
    6.7134   -1.5180   21.8047 C   0  0  0  0  0  0  0  0  0  0  0  0
    7.3953   -0.6817   20.9509 C   0  0  0  0  0  0  0  0  0  0  0  0
    9.2828   -0.3970   21.0812 Br  0  0  0  0  0  0  0  0  0  0  0  0
    6.6614    0.0088   19.9006 C   0  0  0  0  0  0  0  0  0  0  0  0
    7.1916    0.0615   18.6033 C   0  0  0  0  0  0  0  0  0  0  0  0
    8.1342   -0.4391   18.3931 H   0  0  0  0  0  0  0  0  0  0  0  0
    6.5688    0.6806   17.5848 N   0  0  0  0  0  0  0  0  0  0  0  0
    5.3994    1.2932   17.8397 C   0  0  0  0  0  0  0  0  0  0  0  0
    4.8932    1.7793   17.0134 H   0  0  0  0  0  0  0  0  0  0  0  0
    4.8107    1.3082   19.1107 C   0  0  0  0  0  0  0  0  0  0  0  0
    3.8766    1.8403   19.2667 H   0  0  0  0  0  0  0  0  0  0  0  0
    5.4423    0.6418   20.1590 C   0  0  0  0  0  0  0  0  0  0  0  0
    5.0098    0.6304   21.1566 H   0  0  0  0  0  0  0  0  0  0  0  0
    7.3088   -2.2553   22.9042 C   0  0  0  0  0  0  0  0  0  0  0  0
    6.6303   -3.0737   23.6735 N   0  0  0  0  0  0  0  0  0  0  0  0
    7.5109   -3.5790   24.5867 N   0  0  0  0  0  0  0  0  0  0  0  0
    8.6696   -3.0333   24.3127 C   0  0  0  0  0  0  0  0  0  0  0  0
    9.9337   -3.3144   25.0435 C   0  0  0  0  0  0  0  0  0  0  0  0
   10.6375   -2.4956   24.8840 H   0  0  0  0  0  0  0  0  0  0  0  0
    9.7299   -3.4242   26.1100 H   0  0  0  0  0  0  0  0  0  0  0  0
   10.3791   -4.2351   24.6651 H   0  0  0  0  0  0  0  0  0  0  0  0
    8.6115   -2.1911   23.2575 O   0  0  0  0  0  0  0  0  0  0  0  0
  1  2  1  0
  2  3  2  3
  3  4  1  0
  3  5  1  0
  5  6  2  0
  6  7  1  0
  6  8  1  0
  8  9  2  0
  9 10  1  0
  9 11  1  0
 11 12  1  0
 11 13  2  0
 13 14  1  0
  2 15  1  0
 15 16  2  0
 16 17  1  0
 17 18  2  0
 18 19  1  0
 19 20  1  0
 19 21  1  0
 19 22  1  0
 18 23  1  0
 13  5  1  0
 23 15  1  0
M  END
>  <cnnaffinity>  (1) 
-4.74411

>  <filename>  (1) 
Cc1nnc(C=C(Br)c2cccnc2)o1

$$$$
