
     RDKit          3D

 33 35  0  0  0  0  0  0  0  0999 V2000
    8.9393   -3.5390   22.2097 C   0  0  0  0  0  0  0  0  0  0  0  0
    8.2607   -2.2569   21.9308 C   0  0  0  0  0  0  0  0  0  0  0  0
    7.8399   -1.9217   20.7298 N   0  0  0  0  0  0  0  0  0  0  0  0
    7.3507   -0.6731   20.9281 N   0  0  0  0  0  0  0  0  0  0  0  0
    6.6460   -0.0023   19.8997 C   0  0  0  0  0  0  0  0  0  0  0  0
    5.4311    0.6412   20.1644 C   0  0  0  0  0  0  0  0  0  0  0  0
    4.8084    1.3042   19.1064 C   0  0  0  0  0  0  0  0  0  0  0  0
    5.4063    1.2930   17.8411 C   0  0  0  0  0  0  0  0  0  0  0  0
    6.5722    0.6723   17.5877 N   0  0  0  0  0  0  0  0  0  0  0  0
    7.1737    0.0376   18.5958 C   0  0  0  0  0  0  0  0  0  0  0  0
    8.1237   -0.4425   18.3779 H   0  0  0  0  0  0  0  0  0  0  0  0
    4.9260    1.7834   16.9971 H   0  0  0  0  0  0  0  0  0  0  0  0
    3.8796    1.8395   19.2579 H   0  0  0  0  0  0  0  0  0  0  0  0
    5.0130    0.6380   21.1743 H   0  0  0  0  0  0  0  0  0  0  0  0
    7.5664   -0.3140   22.2366 C   0  0  0  0  0  0  0  0  0  0  0  0
    7.2505    0.9773   22.8408 C   0  0  0  0  0  0  0  0  0  0  0  0
    6.7609    1.0156   24.1577 C   0  0  0  0  0  0  0  0  0  0  0  0
    6.4975    2.2582   24.7162 C   0  0  0  0  0  0  0  0  0  0  0  0
    6.0149    2.4398   26.0202 O   0  0  0  0  0  0  0  0  0  0  0  0
    5.7528    1.3944   26.8571 C   0  0  0  0  0  0  0  0  0  0  0  0
    6.8347    0.6439   27.1204 F   0  0  0  0  0  0  0  0  0  0  0  0
    4.8159    0.5597   26.3779 F   0  0  0  0  0  0  0  0  0  0  0  0
    5.3124    1.9149   27.9933 F   0  0  0  0  0  0  0  0  0  0  0  0
    6.7368    3.4154   23.9459 C   0  0  0  0  0  0  0  0  0  0  0  0
    7.2155    3.3741   22.6985 N   0  0  0  0  0  0  0  0  0  0  0  0
    7.4729    2.1809   22.1586 C   0  0  0  0  0  0  0  0  0  0  0  0
    7.8597    2.1875   21.1408 H   0  0  0  0  0  0  0  0  0  0  0  0
    6.5440    4.4021   24.3549 H   0  0  0  0  0  0  0  0  0  0  0  0
    6.6072    0.0912   24.7169 H   0  0  0  0  0  0  0  0  0  0  0  0
    8.1283   -1.3078   22.8858 N   0  0  0  0  0  0  0  0  0  0  0  0
    8.5931   -4.3201   21.5317 H   0  0  0  0  0  0  0  0  0  0  0  0
   10.0021   -3.3217   22.1002 H   0  0  0  0  0  0  0  0  0  0  0  0
    8.8097   -3.8615   23.2388 H   0  0  0  0  0  0  0  0  0  0  0  0
  1  2  1  0
  2  3  2  0
  3  4  1  0
  4  5  1  0
  5  6  2  0
  6  7  1  0
  7  8  2  0
  8  9  1  0
  9 10  2  0
 10 11  1  0
  8 12  1  0
  7 13  1  0
  6 14  1  0
  4 15  1  0
 15 16  1  0
 16 17  2  0
 17 18  1  0
 18 19  1  0
 19 20  1  0
 20 21  1  0
 20 22  1  0
 20 23  1  0
 18 24  2  0
 24 25  1  0
 25 26  2  0
 26 27  1  0
 24 28  1  0
 17 29  1  0
 15 30  2  0
  1 31  1  0
  1 32  1  0
  1 33  1  0
 30  2  1  0
 10  5  1  0
 26 16  1  0
M  END
>  <cnnaffinity>  (1) 
-5.4613

>  <filename>  (1) 
Cc1nc(-c2cncc(OC(F)(F)F)c2)n(-c2cccnc2)n1

$$$$
