
     RDKit          3D

 33 35  0  0  0  0  0  0  0  0999 V2000
   10.9169   -1.2867   21.8547 C   0  0  0  0  0  0  0  0  0  0  0  0
    9.4286   -1.3359   21.8638 C   0  0  0  0  0  0  0  0  0  0  0  0
    8.8616   -1.9954   22.8804 N   0  0  0  0  0  0  0  0  0  0  0  0
    7.5342   -2.0003   22.9216 C   0  0  0  0  0  0  0  0  0  0  0  0
    6.7273   -2.7852   24.3048 S   0  0  0  0  0  0  0  0  0  0  0  0
    6.6321   -1.3715   25.4006 C   0  0  0  0  0  0  0  0  0  0  0  0
    7.7159   -1.0702   26.2402 C   0  0  0  0  0  0  0  0  0  0  0  0
    7.7058    0.0895   27.0273 C   0  0  0  0  0  0  0  0  0  0  0  0
    6.6138    0.9597   26.9476 C   0  0  0  0  0  0  0  0  0  0  0  0
    6.5802    2.4072   27.9155 Cl  0  0  0  0  0  0  0  0  0  0  0  0
    5.5268    0.6703   26.1219 C   0  0  0  0  0  0  0  0  0  0  0  0
    5.5212   -0.5154   25.3859 C   0  0  0  0  0  0  0  0  0  0  0  0
    4.6214   -0.7676   24.8432 H   0  0  0  0  0  0  0  0  0  0  0  0
    4.6911    1.3580   26.0509 H   0  0  0  0  0  0  0  0  0  0  0  0
    8.5333    0.3321   27.6877 H   0  0  0  0  0  0  0  0  0  0  0  0
    8.5706   -1.7449   26.2560 H   0  0  0  0  0  0  0  0  0  0  0  0
    6.7706   -1.3917   21.9390 C   0  0  0  0  0  0  0  0  0  0  0  0
    7.4531   -0.7077   20.9459 C   0  0  0  0  0  0  0  0  0  0  0  0
    6.6938    0.0189   19.9130 C   0  0  0  0  0  0  0  0  0  0  0  0
    5.4613    0.6501   20.1678 C   0  0  0  0  0  0  0  0  0  0  0  0
    4.8223    1.2995   19.1141 C   0  0  0  0  0  0  0  0  0  0  0  0
    5.4177    1.2752   17.8477 C   0  0  0  0  0  0  0  0  0  0  0  0
    6.5777    0.6552   17.5881 N   0  0  0  0  0  0  0  0  0  0  0  0
    7.1994    0.0591   18.6085 C   0  0  0  0  0  0  0  0  0  0  0  0
    8.1454   -0.4222   18.3703 H   0  0  0  0  0  0  0  0  0  0  0  0
    4.9488    1.7776   17.0046 H   0  0  0  0  0  0  0  0  0  0  0  0
    3.8842    1.8292   19.2552 H   0  0  0  0  0  0  0  0  0  0  0  0
    5.0085    0.6541   21.1635 H   0  0  0  0  0  0  0  0  0  0  0  0
    8.7856   -0.7065   20.8838 N   0  0  0  0  0  0  0  0  0  0  0  0
    5.7001   -1.4491   21.9166 H   0  0  0  0  0  0  0  0  0  0  0  0
   11.2449   -0.4175   22.4366 H   0  0  0  0  0  0  0  0  0  0  0  0
   11.2663   -1.1856   20.8261 H   0  0  0  0  0  0  0  0  0  0  0  0
   11.2972   -2.1934   22.3323 H   0  0  0  0  0  0  0  0  0  0  0  0
  1  2  1  0
  2  3  2  0
  3  4  1  0
  4  5  1  0
  5  6  1  0
  6  7  2  0
  7  8  1  0
  8  9  2  0
  9 10  1  0
  9 11  1  0
 11 12  2  0
 12 13  1  0
 11 14  1  0
  8 15  1  0
  7 16  1  0
  4 17  2  0
 17 18  1  0
 18 19  1  0
 19 20  2  0
 20 21  1  0
 21 22  2  0
 22 23  1  0
 23 24  2  0
 24 25  1  0
 22 26  1  0
 21 27  1  0
 20 28  1  0
 18 29  2  0
 17 30  1  0
  1 31  1  0
  1 32  1  0
  1 33  1  0
 29  2  1  0
 12  6  1  0
 24 19  1  0
M  END
>  <cnnaffinity>  (1) 
-5.36984

>  <filename>  (1) 
Cc1nc(Sc2ccc(Cl)cc2)cc(-c2cccnc2)n1

$$$$
