
     RDKit          3D

 27 29  0  0  0  0  0  0  0  0999 V2000
    8.6150   -3.6164   22.2689 C   0  0  0  0  0  0  0  0  0  0  0  0
    8.1329   -2.2410   22.0188 C   0  0  0  0  0  0  0  0  0  0  0  0
    7.7433   -1.9019   20.8047 N   0  0  0  0  0  0  0  0  0  0  0  0
    7.3520   -0.6246   20.9624 N   0  0  0  0  0  0  0  0  0  0  0  0
    6.6481    0.0254   19.9207 C   0  0  0  0  0  0  0  0  0  0  0  0
    5.4186    0.6487   20.1606 C   0  0  0  0  0  0  0  0  0  0  0  0
    4.7967    1.2995   19.0937 C   0  0  0  0  0  0  0  0  0  0  0  0
    5.4146    1.2839   17.8400 C   0  0  0  0  0  0  0  0  0  0  0  0
    6.5758    0.6478   17.5987 N   0  0  0  0  0  0  0  0  0  0  0  0
    7.1700    0.0208   18.6157 C   0  0  0  0  0  0  0  0  0  0  0  0
    8.1096   -0.4835   18.3991 H   0  0  0  0  0  0  0  0  0  0  0  0
    4.9670    1.8021   16.9962 H   0  0  0  0  0  0  0  0  0  0  0  0
    3.8657    1.8387   19.2320 H   0  0  0  0  0  0  0  0  0  0  0  0
    4.9937    0.6469   21.1640 H   0  0  0  0  0  0  0  0  0  0  0  0
    7.5662   -0.2574   22.2624 C   0  0  0  0  0  0  0  0  0  0  0  0
    7.3904    1.0856   22.7349 C   0  0  0  0  0  0  0  0  0  0  0  0
    7.4338    2.2750   22.0583 C   0  0  0  0  0  0  0  0  0  0  0  0
    7.2374    3.3864   22.9272 C   0  0  0  0  0  0  0  0  0  0  0  0
    7.0661    2.9805   24.2141 C   0  0  0  0  0  0  0  0  0  0  0  0
    6.8627    3.7499   25.2792 F   0  0  0  0  0  0  0  0  0  0  0  0
    7.1473    1.2750   24.4348 S   0  0  0  0  0  0  0  0  0  0  0  0
    7.2162    4.4255   22.6321 H   0  0  0  0  0  0  0  0  0  0  0  0
    7.5927    2.3096   20.9813 H   0  0  0  0  0  0  0  0  0  0  0  0
    8.0346   -1.2779   22.9571 N   0  0  0  0  0  0  0  0  0  0  0  0
    9.4887   -3.6046   22.9178 H   0  0  0  0  0  0  0  0  0  0  0  0
    8.8594   -4.0325   21.2957 H   0  0  0  0  0  0  0  0  0  0  0  0
    7.8327   -4.2240   22.7293 H   0  0  0  0  0  0  0  0  0  0  0  0
  1  2  1  0
  2  3  2  0
  3  4  1  0
  4  5  1  0
  5  6  2  0
  6  7  1  0
  7  8  2  0
  8  9  1  0
  9 10  2  0
 10 11  1  0
  8 12  1  0
  7 13  1  0
  6 14  1  0
  4 15  1  0
 15 16  1  0
 16 17  2  0
 17 18  1  0
 18 19  2  0
 19 20  1  0
 19 21  1  0
 18 22  1  0
 17 23  1  0
 15 24  2  0
  1 25  1  0
  1 26  1  0
  1 27  1  0
 24  2  1  0
 10  5  1  0
 21 16  1  0
M  END
>  <cnnaffinity>  (1) 
-4.81066

>  <filename>  (1) 
Cc1nc(-c2ccc(F)s2)n(-c2cccnc2)n1

$$$$
