
     RDKit          3D

 26 28  0  0  0  0  0  0  0  0999 V2000
    8.7965   -3.5776   22.2877 C   0  0  0  0  0  0  0  0  0  0  0  0
    8.1568   -2.2848   21.9650 C   0  0  0  0  0  0  0  0  0  0  0  0
    7.6764   -1.9698   20.7778 N   0  0  0  0  0  0  0  0  0  0  0  0
    7.3473   -0.6693   20.9259 N   0  0  0  0  0  0  0  0  0  0  0  0
    6.6437    0.0123   19.8997 C   0  0  0  0  0  0  0  0  0  0  0  0
    5.4183    0.6352   20.1500 C   0  0  0  0  0  0  0  0  0  0  0  0
    4.7943    1.2907   19.0871 C   0  0  0  0  0  0  0  0  0  0  0  0
    5.4056    1.2818   17.8320 C   0  0  0  0  0  0  0  0  0  0  0  0
    6.5696    0.6543   17.5861 N   0  0  0  0  0  0  0  0  0  0  0  0
    7.1681    0.0278   18.5988 C   0  0  0  0  0  0  0  0  0  0  0  0
    8.1141   -0.4649   18.3796 H   0  0  0  0  0  0  0  0  0  0  0  0
    4.9572    1.7991   16.9885 H   0  0  0  0  0  0  0  0  0  0  0  0
    3.8689    1.8353   19.2384 H   0  0  0  0  0  0  0  0  0  0  0  0
    4.9893    0.6518   21.1522 H   0  0  0  0  0  0  0  0  0  0  0  0
    7.6781   -0.2698   22.1891 C   0  0  0  0  0  0  0  0  0  0  0  0
    7.5628    1.0814   22.6894 C   0  0  0  0  0  0  0  0  0  0  0  0
    7.7281    1.4409   23.9815 C   0  0  0  0  0  0  0  0  0  0  0  0
    7.5474    2.7854   24.0509 O   0  0  0  0  0  0  0  0  0  0  0  0
    7.2921    3.1563   22.7863 C   0  0  0  0  0  0  0  0  0  0  0  0
    7.0412    4.8149   22.5535 Cl  0  0  0  0  0  0  0  0  0  0  0  0
    7.2734    2.2164   21.9113 N   0  0  0  0  0  0  0  0  0  0  0  0
    7.9443    0.9223   24.9076 H   0  0  0  0  0  0  0  0  0  0  0  0
    8.1747   -1.2823   22.8704 N   0  0  0  0  0  0  0  0  0  0  0  0
    8.6252   -3.8263   23.3371 H   0  0  0  0  0  0  0  0  0  0  0  0
    9.8667   -3.4081   22.1397 H   0  0  0  0  0  0  0  0  0  0  0  0
    8.4451   -4.3744   21.6325 H   0  0  0  0  0  0  0  0  0  0  0  0
  1  2  1  0
  2  3  2  0
  3  4  1  0
  4  5  1  0
  5  6  2  0
  6  7  1  0
  7  8  2  0
  8  9  1  0
  9 10  2  0
 10 11  1  0
  8 12  1  0
  7 13  1  0
  6 14  1  0
  4 15  1  0
 15 16  1  0
 16 17  2  0
 17 18  1  0
 18 19  1  0
 19 20  1  0
 19 21  2  0
 17 22  1  0
 15 23  2  0
  1 24  1  0
  1 25  1  0
  1 26  1  0
 23  2  1  0
 10  5  1  0
 21 16  1  0
M  END
>  <cnnaffinity>  (1) 
-4.59974

>  <filename>  (1) 
Cc1nc(-c2coc(Cl)n2)n(-c2cccnc2)n1

$$$$
