
     RDKit          3D

 45 47  0  0  0  0  0  0  0  0999 V2000
    9.6354   -3.5259   26.9188 C   0  0  0  0  0  0  0  0  0  0  0  0
    8.6705   -2.4100   27.4860 C   0  0  0  0  0  0  0  0  0  0  0  0
    8.7461   -2.3817   27.4607 N   0  0  0  0  0  0  0  0  0  0  0  0
    7.6378   -0.3724   27.4305 N   0  0  0  0  0  0  0  0  0  0  0  0
    7.6378   -0.3724   27.4305 C   0  0  0  0  0  0  0  0  0  0  0  0
    6.8897    0.8121   26.7433 C   0  0  0  0  0  0  0  0  0  0  0  0
    7.4028    1.3299   25.8896 H   0  0  0  0  0  0  0  0  0  0  0  0
    6.6091    1.6316   27.3822 H   0  0  0  0  0  0  0  0  0  0  0  0
    5.8990    0.6384   26.3119 H   0  0  0  0  0  0  0  0  0  0  0  0
    8.7213   -1.0885   26.6533 C   0  0  0  0  0  0  0  0  0  0  0  0
    8.9593   -1.2569   25.0437 C   0  0  0  0  0  0  0  0  0  0  0  0
    7.7563   -1.8724   24.2814 C   0  0  0  0  0  0  0  0  0  0  0  0
    7.5301   -3.3859   24.5093 C   0  0  0  0  0  0  0  0  0  0  0  0
    8.4179   -3.9875   24.2842 H   0  0  0  0  0  0  0  0  0  0  0  0
    7.2774   -3.5424   25.5699 H   0  0  0  0  0  0  0  0  0  0  0  0
    6.7176   -3.7510   23.8646 H   0  0  0  0  0  0  0  0  0  0  0  0
    7.7624   -1.4720   22.8417 C   0  0  0  0  0  0  0  0  0  0  0  0
    6.8905   -0.7488   22.1859 N   0  0  0  0  0  0  0  0  0  0  0  0
    7.4010   -0.7074   20.9325 C   0  0  0  0  0  0  0  0  0  0  0  0
    6.6652    0.0038   19.9022 C   0  0  0  0  0  0  0  0  0  0  0  0
    5.4409    0.6474   20.1706 C   0  0  0  0  0  0  0  0  0  0  0  0
    4.8145    1.3002   19.1126 C   0  0  0  0  0  0  0  0  0  0  0  0
    5.4164    1.2816   17.8456 C   0  0  0  0  0  0  0  0  0  0  0  0
    6.5762    0.6611   17.5874 N   0  0  0  0  0  0  0  0  0  0  0  0
    7.1844    0.0498   18.6063 C   0  0  0  0  0  0  0  0  0  0  0  0
    8.1304   -0.4295   18.3747 H   0  0  0  0  0  0  0  0  0  0  0  0
    4.9417    1.7762   17.0000 H   0  0  0  0  0  0  0  0  0  0  0  0
    3.8818    1.8367   19.2535 H   0  0  0  0  0  0  0  0  0  0  0  0
    5.0022    0.6366   21.1770 H   0  0  0  0  0  0  0  0  0  0  0  0
    8.5485   -1.3388   20.7821 N   0  0  0  0  0  0  0  0  0  0  0  0
    8.7899   -1.7937   22.0367 N   0  0  0  0  0  0  0  0  0  0  0  0
   10.0362   -2.4827   22.1886 C   0  0  0  0  0  0  0  0  0  0  0  0
   11.2863   -1.6131   22.1289 C   0  0  0  0  0  0  0  0  0  0  0  0
   11.2742   -0.6309   23.0508 F   0  0  0  0  0  0  0  0  0  0  0  0
   11.5003   -1.0692   20.9309 F   0  0  0  0  0  0  0  0  0  0  0  0
   12.3646   -2.3828   22.3702 F   0  0  0  0  0  0  0  0  0  0  0  0
   10.0408   -3.0519   21.2758 H   0  0  0  0  0  0  0  0  0  0  0  0
   10.0905   -3.0987   23.0854 H   0  0  0  0  0  0  0  0  0  0  0  0
    6.9140   -1.3279   24.6886 H   0  0  0  0  0  0  0  0  0  0  0  0
    9.8736   -1.8683   24.9144 H   0  0  0  0  0  0  0  0  0  0  0  0
    9.2171   -0.2405   24.7483 H   0  0  0  0  0  0  0  0  0  0  0  0
    7.4213   -0.5021   28.6090 H   0  0  0  0  0  0  0  0  0  0  0  0
    8.9682   -4.5737   27.1731 H   0  0  0  0  0  0  0  0  0  0  0  0
   10.2450   -3.8081   27.8542 H   0  0  0  0  0  0  0  0  0  0  0  0
   10.3334   -3.2537   25.9833 H   0  0  0  0  0  0  0  0  0  0  0  0
  1  2  1  0
  2  3  2  0
  3  4  1  0
  4  5  1  0
  5  6  1  0
  6  7  1  0
  6  8  1  0
  6  9  1  0
  5 10  2  0
 10 11  1  0
 11 12  1  0
 12 13  1  0
 13 14  1  0
 13 15  1  0
 13 16  1  0
 12 17  1  0
 17 18  2  0
 18 19  1  0
 19 20  1  0
 20 21  2  0
 21 22  1  0
 22 23  2  0
 23 24  1  0
 24 25  2  0
 25 26  1  0
 23 27  1  0
 22 28  1  0
 21 29  1  0
 19 30  2  0
 30 31  1  0
 31 32  1  0
 32 33  1  0
 33 34  1  0
 33 35  1  0
 33 36  1  0
 32 37  1  0
 32 38  1  0
 12 39  1  0
 11 40  1  0
 11 41  1  0
  4 42  1  0
  1 43  1  0
  1 44  1  0
  1 45  1  0
 10  2  1  0
 31 17  1  0
 25 20  1  0
M  END
>  <cnnaffinity>  (1) 
-5.94833

>  <filename>  (1) 
Cc1n[nH]c(C)c1CC(C)c1nc(-c2cccnc2)nn1CC(F)(F)F

$$$$
