
     RDKit          3D

 41 42  0  0  0  0  0  0  0  0999 V2000
   12.3109   -1.6022   21.7387 C   0  0  0  0  0  0  0  0  0  0  0  0
   11.9249   -0.2654   22.2669 C   0  0  0  0  0  0  0  0  0  0  0  0
   12.8176    0.6718   22.4469 N   0  0  0  0  0  0  0  0  0  0  0  0
   12.1243    1.7586   22.9415 O   0  0  0  0  0  0  0  0  0  0  0  0
   10.8224    1.4598   23.0330 C   0  0  0  0  0  0  0  0  0  0  0  0
    9.8782    2.4227   23.7006 C   0  0  0  0  0  0  0  0  0  0  0  0
   10.1896    3.9070   23.4524 C   0  0  0  0  0  0  0  0  0  0  0  0
   11.1203    4.2430   23.9230 H   0  0  0  0  0  0  0  0  0  0  0  0
   10.2603    4.1171   22.3814 H   0  0  0  0  0  0  0  0  0  0  0  0
    9.3770    4.5231   23.8568 H   0  0  0  0  0  0  0  0  0  0  0  0
    9.7134    2.0847   25.2020 C   0  0  0  0  0  0  0  0  0  0  0  0
    9.2354    2.9073   25.7413 H   0  0  0  0  0  0  0  0  0  0  0  0
    9.0879    1.1962   25.3502 H   0  0  0  0  0  0  0  0  0  0  0  0
   10.6770    1.8980   25.6881 H   0  0  0  0  0  0  0  0  0  0  0  0
    8.9114    2.2190   23.2124 H   0  0  0  0  0  0  0  0  0  0  0  0
   10.6185    0.1735   22.6174 C   0  0  0  0  0  0  0  0  0  0  0  0
    9.3305   -0.5654   22.5996 C   0  0  0  0  0  0  0  0  0  0  0  0
    8.5692   -0.0503   21.4474 N   0  0  0  0  0  4  0  0  0  0  0  0
    7.2177   -0.6173   21.2025 C   0  0  0  0  0  0  0  0  0  0  0  0
    7.3215   -2.1374   20.9891 C   0  0  0  0  0  0  0  0  0  0  0  0
    6.4849   -2.5287   20.4097 H   0  0  0  0  0  0  0  0  0  0  0  0
    7.3661   -2.6574   21.9538 H   0  0  0  0  0  0  0  0  0  0  0  0
    8.2503   -2.3633   20.4596 H   0  0  0  0  0  0  0  0  0  0  0  0
    6.6204    0.1512   20.0461 C   0  0  0  0  0  0  0  0  0  0  0  0
    5.3816    0.8151   20.1557 C   0  0  0  0  0  0  0  0  0  0  0  0
    4.8241    1.4113   19.0212 C   0  0  0  0  0  0  0  0  0  0  0  0
    5.5295    1.3365   17.8166 C   0  0  0  0  0  0  0  0  0  0  0  0
    6.7088    0.7145   17.6903 N   0  0  0  0  0  0  0  0  0  0  0  0
    7.2350    0.1512   18.7878 C   0  0  0  0  0  0  0  0  0  0  0  0
    8.1904   -0.3504   18.6258 H   0  0  0  0  0  0  0  0  0  0  0  0
    5.1242    1.7789   16.9074 H   0  0  0  0  0  0  0  0  0  0  0  0
    3.8704    1.9305   19.0475 H   0  0  0  0  0  0  0  0  0  0  0  0
    4.8657    0.8738   21.1174 H   0  0  0  0  0  0  0  0  0  0  0  0
    6.5839   -0.4375   22.0833 H   0  0  0  0  0  0  0  0  0  0  0  0
    8.4947    0.9932   21.5354 H   0  0  0  0  0  0  0  0  0  0  0  0
    9.1643   -0.2229   20.6004 H   0  0  0  0  0  0  0  0  0  0  0  0
    9.5069   -1.6493   22.5347 H   0  0  0  0  0  0  0  0  0  0  0  0
    8.7666   -0.4278   23.5379 H   0  0  0  0  0  0  0  0  0  0  0  0
   11.7000   -1.8445   20.8671 H   0  0  0  0  0  0  0  0  0  0  0  0
   12.1493   -2.3899   22.4799 H   0  0  0  0  0  0  0  0  0  0  0  0
   13.3653   -1.6189   21.4575 H   0  0  0  0  0  0  0  0  0  0  0  0
  1  2  1  0
  2  3  2  0
  3  4  1  0
  4  5  1  0
  5  6  1  0
  6  7  1  0
  7  8  1  0
  7  9  1  0
  7 10  1  0
  6 11  1  0
 11 12  1  0
 11 13  1  0
 11 14  1  0
  6 15  1  0
  5 16  2  0
 16 17  1  0
 17 18  1  0
 18 19  1  0
 19 20  1  0
 20 21  1  0
 20 22  1  0
 20 23  1  0
 19 24  1  0
 24 25  2  0
 25 26  1  0
 26 27  2  0
 27 28  1  0
 28 29  2  0
 29 30  1  0
 27 31  1  0
 26 32  1  0
 25 33  1  0
 19 34  1  0
 18 35  1  0
 18 36  1  0
 17 37  1  0
 17 38  1  0
  1 39  1  0
  1 40  1  0
  1 41  1  0
 16  2  1  0
 29 24  1  0
M  CHG  1  18   1
M  END
>  <cnnaffinity>  (1) 
-5.22384

>  <filename>  (1) 
Cc1noc(C(C)C)c1C[NH2+]C(C)c1cccnc1

$$$$
