
     RDKit          3D

 28 30  0  0  0  0  0  0  0  0999 V2000
    4.9298    1.7822   16.9971 H   0  0  0  0  0  0  0  0  0  0  0  0
    5.4100    1.2910   17.8433 C   0  0  0  0  0  0  0  0  0  0  0  0
    6.5769    0.6711   17.5964 N   0  0  0  0  0  0  0  0  0  0  0  0
    7.1748    0.0356   18.6067 C   0  0  0  0  0  0  0  0  0  0  0  0
    8.1229   -0.4410   18.3736 H   0  0  0  0  0  0  0  0  0  0  0  0
    6.6470   -0.0096   19.9097 C   0  0  0  0  0  0  0  0  0  0  0  0
    7.3614   -0.6734   20.9474 N   0  0  0  0  0  0  0  0  0  0  0  0
    7.9135   -1.8835   20.7149 N   0  0  0  0  0  0  0  0  0  0  0  0
    8.4035   -2.2714   21.8796 C   0  0  0  0  0  0  0  0  0  0  0  0
    8.9103   -3.2248   21.9498 H   0  0  0  0  0  0  0  0  0  0  0  0
    8.1949   -1.3217   22.8957 C   0  0  0  0  0  0  0  0  0  0  0  0
    8.5158   -1.3338   23.9277 H   0  0  0  0  0  0  0  0  0  0  0  0
    7.5475   -0.2914   22.2562 C   0  0  0  0  0  0  0  0  0  0  0  0
    7.1769    0.9698   22.7375 N   0  0  0  0  0  0  0  0  0  0  0  0
    6.6397    1.2528   23.9819 C   0  0  0  0  0  0  0  0  0  0  0  0
    6.2387    0.2194   24.9815 C   0  0  0  0  0  0  0  0  0  0  0  0
    5.5290    0.6580   25.6849 H   0  0  0  0  0  0  0  0  0  0  0  0
    5.7969   -0.6526   24.4954 H   0  0  0  0  0  0  0  0  0  0  0  0
    7.1012   -0.1277   25.5607 H   0  0  0  0  0  0  0  0  0  0  0  0
    6.5303    2.5405   24.1660 N   0  0  0  0  0  0  0  0  0  0  0  0
    7.0256    3.1350   23.0258 C   0  0  0  0  0  0  0  0  0  0  0  0
    7.0602    4.2121   22.9281 H   0  0  0  0  0  0  0  0  0  0  0  0
    7.4378    2.1948   22.1324 C   0  0  0  0  0  0  0  0  0  0  0  0
    7.8707    2.2518   21.1442 H   0  0  0  0  0  0  0  0  0  0  0  0
    5.4312    0.6354   20.1665 C   0  0  0  0  0  0  0  0  0  0  0  0
    5.0153    0.6484   21.1761 H   0  0  0  0  0  0  0  0  0  0  0  0
    4.8091    1.2987   19.1069 C   0  0  0  0  0  0  0  0  0  0  0  0
    3.8795    1.8373   19.2578 H   0  0  0  0  0  0  0  0  0  0  0  0
  1  2  1  0
  2  3  2  0
  3  4  1  0
  4  5  1  0
  4  6  2  0
  6  7  1  0
  7  8  1  0
  8  9  2  0
  9 10  1  0
  9 11  1  0
 11 12  1  0
 11 13  2  0
 13 14  1  0
 14 15  1  0
 15 16  1  0
 16 17  1  0
 16 18  1  0
 16 19  1  0
 15 20  2  0
 20 21  1  0
 21 22  1  0
 21 23  2  0
 23 24  1  0
  6 25  1  0
 25 26  1  0
 25 27  2  0
 27 28  1  0
 27  2  1  0
 13  7  1  0
 23 14  1  0
M  END
>  <cnnaffinity>  (1) 
-4.86573

>  <filename>  (1) 
Cc1nccn1-c1ccnn1-c1cccnc1

$$$$
