
     RDKit          3D

 32 34  0  0  0  0  0  0  0  0999 V2000
    8.5602   -3.5490   22.2683 C   0  0  0  0  0  0  0  0  0  0  0  0
    8.0544   -2.1677   21.9745 C   0  0  0  0  0  0  0  0  0  0  0  0
    7.8056   -1.7806   20.7495 N   0  0  0  0  0  0  0  0  0  0  0  0
    7.3320   -0.5287   20.9315 N   0  0  0  0  0  0  0  0  0  0  0  0
    6.6653    0.1349   19.9038 C   0  0  0  0  0  0  0  0  0  0  0  0
    5.4940    0.8536   20.1434 C   0  0  0  0  0  0  0  0  0  0  0  0
    4.8635    1.4415   19.0473 C   0  0  0  0  0  0  0  0  0  0  0  0
    5.4241    1.3238   17.7649 C   0  0  0  0  0  0  0  0  0  0  0  0
    6.5434    0.6150   17.5323 N   0  0  0  0  0  0  0  0  0  0  0  0
    7.1319    0.0153   18.5848 C   0  0  0  0  0  0  0  0  0  0  0  0
    8.0216   -0.5787   18.4090 H   0  0  0  0  0  0  0  0  0  0  0  0
    4.9167    1.7816   16.9222 H   0  0  0  0  0  0  0  0  0  0  0  0
    3.9345    1.9831   19.1827 H   0  0  0  0  0  0  0  0  0  0  0  0
    5.0770    0.9180   21.1490 H   0  0  0  0  0  0  0  0  0  0  0  0
    7.4230   -0.1712   22.2757 C   0  0  0  0  0  0  0  0  0  0  0  0
    7.2170    1.2136   22.8735 C   0  0  0  0  0  0  0  0  0  0  0  0
    8.4812    1.6436   23.6035 C   0  0  0  0  0  0  0  0  0  0  0  0
    8.5732    1.5393   24.9850 C   0  0  0  0  0  0  0  0  0  0  0  0
    9.8178    1.7664   25.5595 C   0  0  0  0  0  0  0  0  0  0  0  0
   10.9084    2.1575   24.7854 C   0  0  0  0  0  0  0  0  0  0  0  0
   10.8169    2.3044   23.4680 N   0  0  0  0  0  0  0  0  0  0  0  0
    9.6346    2.0328   22.9031 C   0  0  0  0  0  0  0  0  0  0  0  0
    9.5569    2.0518   21.0413 Br  0  0  0  0  0  0  0  0  0  0  0  0
   11.8727    2.3475   25.2429 H   0  0  0  0  0  0  0  0  0  0  0  0
    9.9436    1.6090   26.6087 H   0  0  0  0  0  0  0  0  0  0  0  0
    7.7165    1.2467   25.5870 H   0  0  0  0  0  0  0  0  0  0  0  0
    6.9816    1.9358   22.0808 H   0  0  0  0  0  0  0  0  0  0  0  0
    6.3785    1.1932   23.5745 H   0  0  0  0  0  0  0  0  0  0  0  0
    7.8393   -1.2109   22.9522 N   0  0  0  0  0  0  0  0  0  0  0  0
    9.6053   -3.5007   22.6017 H   0  0  0  0  0  0  0  0  0  0  0  0
    8.4852   -4.1686   21.3703 H   0  0  0  0  0  0  0  0  0  0  0  0
    7.9580   -4.0109   23.0574 H   0  0  0  0  0  0  0  0  0  0  0  0
  1  2  1  0
  2  3  2  0
  3  4  1  0
  4  5  1  0
  5  6  2  0
  6  7  1  0
  7  8  2  0
  8  9  1  0
  9 10  2  0
 10 11  1  0
  8 12  1  0
  7 13  1  0
  6 14  1  0
  4 15  1  0
 15 16  1  0
 16 17  1  0
 17 18  2  0
 18 19  1  0
 19 20  2  0
 20 21  1  0
 21 22  2  0
 22 23  1  0
 20 24  1  0
 19 25  1  0
 18 26  1  0
 16 27  1  0
 16 28  1  0
 15 29  2  0
  1 30  1  0
  1 31  1  0
  1 32  1  0
 29  2  1  0
 10  5  1  0
 22 17  1  0
M  END
>  <cnnaffinity>  (1) 
-5.29237

>  <filename>  (1) 
Cc1nc(Cc2cccnc2Br)n(-c2cccnc2)n1

$$$$
