
     RDKit          3D

 36 39  0  0  0  0  0  0  0  0999 V2000
    9.0815   -3.2243   22.4276 C   0  0  0  0  0  0  0  0  0  0  0  0
    8.4310   -1.9521   22.0149 C   0  0  0  0  0  0  0  0  0  0  0  0
    8.0286   -1.6773   20.7863 N   0  0  0  0  0  0  0  0  0  0  0  0
    7.3972   -0.4846   20.9366 N   0  0  0  0  0  0  0  0  0  0  0  0
    6.6692    0.1018   19.8679 C   0  0  0  0  0  0  0  0  0  0  0  0
    5.4619    0.7792   20.0910 C   0  0  0  0  0  0  0  0  0  0  0  0
    4.8331    1.3850   19.0012 C   0  0  0  0  0  0  0  0  0  0  0  0
    5.4362    1.3102   17.7418 C   0  0  0  0  0  0  0  0  0  0  0  0
    6.5695    0.6212   17.5146 N   0  0  0  0  0  0  0  0  0  0  0  0
    7.1515    0.0080   18.5484 C   0  0  0  0  0  0  0  0  0  0  0  0
    8.0361   -0.5890   18.3333 H   0  0  0  0  0  0  0  0  0  0  0  0
    4.9938    1.8067   16.8813 H   0  0  0  0  0  0  0  0  0  0  0  0
    3.8943    1.9176   19.1166 H   0  0  0  0  0  0  0  0  0  0  0  0
    5.0189    0.8113   21.0868 H   0  0  0  0  0  0  0  0  0  0  0  0
    7.5031   -0.0864   22.2456 C   0  0  0  0  0  0  0  0  0  0  0  0
    6.9788    1.1670   22.8152 C   0  0  1  0  0  0  0  0  0  0  0  0
    5.8688    1.1877   23.8395 C   0  0  0  0  0  0  0  0  0  0  0  0
    7.2792    1.4753   24.2695 C   0  0  2  0  0  0  0  0  0  0  0  0
    7.7222    2.8378   24.6767 C   0  0  0  0  0  0  0  0  0  0  0  0
    7.2641    3.9797   24.0117 C   0  0  0  0  0  0  0  0  0  0  0  0
    7.6701    5.2382   24.4473 C   0  0  0  0  0  0  0  0  0  0  0  0
    8.5003    5.4374   25.4792 N   0  0  0  0  0  0  0  0  0  0  0  0
    8.9563    4.3459   26.1041 C   0  0  0  0  0  0  0  0  0  0  0  0
    8.6053    3.0408   25.7496 C   0  0  0  0  0  0  0  0  0  0  0  0
    9.0213    2.2150   26.3138 H   0  0  0  0  0  0  0  0  0  0  0  0
    9.6361    4.5298   26.9308 H   0  0  0  0  0  0  0  0  0  0  0  0
    7.3028    6.1282   23.9460 H   0  0  0  0  0  0  0  0  0  0  0  0
    6.5973    3.9185   23.1605 H   0  0  0  0  0  0  0  0  0  0  0  0
    7.7521    0.6638   24.8193 H   0  0  0  0  0  0  0  0  0  0  0  0
    5.4334    0.2361   24.1366 H   0  0  0  0  0  0  0  0  0  0  0  0
    5.1709    2.0214   23.8241 H   0  0  0  0  0  0  0  0  0  0  0  0
    7.0167    2.0035   22.1237 H   0  0  0  0  0  0  0  0  0  0  0  0
    8.1484   -1.0037   22.9341 N   0  0  0  0  0  0  0  0  0  0  0  0
    8.8558   -3.4111   23.4802 H   0  0  0  0  0  0  0  0  0  0  0  0
    8.7078   -4.0527   21.8260 H   0  0  0  0  0  0  0  0  0  0  0  0
   10.1680   -3.1683   22.3242 H   0  0  0  0  0  0  0  0  0  0  0  0
  1  2  1  0
  2  3  2  0
  3  4  1  0
  4  5  1  0
  5  6  2  0
  6  7  1  0
  7  8  2  0
  8  9  1  0
  9 10  2  0
 10 11  1  0
  8 12  1  0
  7 13  1  0
  6 14  1  0
  4 15  1  0
 15 16  1  0
 16 17  1  0
 17 18  1  0
 18 19  1  0
 19 20  2  0
 20 21  1  0
 21 22  2  0
 22 23  1  0
 23 24  2  0
 24 25  1  0
 23 26  1  0
 21 27  1  0
 20 28  1  0
 18 29  1  1
 17 30  1  0
 17 31  1  0
 16 32  1  6
 15 33  2  0
  1 34  1  0
  1 35  1  0
  1 36  1  0
 33  2  1  0
 10  5  1  0
 18 16  1  0
 24 19  1  0
M  END
>  <cnnaffinity>  (1) 
-4.93671

>  <filename>  (1) 
Cc1nc([C@H]2C[C@@H]2c2ccncc2)n(-c2cccnc2)n1

$$$$
