
     RDKit          3D

 25 26  0  0  0  0  0  0  0  0999 V2000
    4.9243    1.7736   17.0037 H   0  0  0  0  0  0  0  0  0  0  0  0
    5.4108    1.2877   17.8495 C   0  0  0  0  0  0  0  0  0  0  0  0
    6.5739    0.6693   17.6004 N   0  0  0  0  0  0  0  0  0  0  0  0
    7.1972    0.0800   18.6258 C   0  0  0  0  0  0  0  0  0  0  0  0
    8.1242   -0.4336   18.3832 H   0  0  0  0  0  0  0  0  0  0  0  0
    6.6990    0.0627   19.9273 C   0  0  0  0  0  0  0  0  0  0  0  0
    7.5573   -0.9096   21.1663 S   0  0  0  0  0  4  0  0  0  0  0  0
    6.5275   -1.2118   22.2129 O   0  0  0  0  0  0  0  0  0  0  0  0
    8.5870    0.3705   21.8343 C   0  0  0  0  0  0  0  0  0  0  0  0
    8.2515    1.4912   22.6539 C   0  0  0  0  0  0  0  0  0  0  0  0
    6.9024    1.9923   23.0187 C   0  0  0  0  0  0  0  0  0  0  0  0
    6.9435    2.7113   23.8410 H   0  0  0  0  0  0  0  0  0  0  0  0
    6.4672    2.4839   22.1470 H   0  0  0  0  0  0  0  0  0  0  0  0
    6.2608    1.1531   23.2856 H   0  0  0  0  0  0  0  0  0  0  0  0
    9.3258    2.1143   23.0573 N   0  0  0  0  0  0  0  0  0  0  0  0
   10.3953    1.4004   22.5466 O   0  0  0  0  0  0  0  0  0  0  0  0
    9.9415    0.3571   21.8517 C   0  0  0  0  0  0  0  0  0  0  0  0
   10.8878   -0.5942   21.2286 C   0  0  0  0  0  0  0  0  0  0  0  0
   11.9357   -0.3211   21.3649 H   0  0  0  0  0  0  0  0  0  0  0  0
   10.6980   -1.6063   21.5880 H   0  0  0  0  0  0  0  0  0  0  0  0
   10.6234   -0.6436   20.1775 H   0  0  0  0  0  0  0  0  0  0  0  0
    5.4578    0.6598   20.1796 C   0  0  0  0  0  0  0  0  0  0  0  0
    5.0048    0.6125   21.1718 H   0  0  0  0  0  0  0  0  0  0  0  0
    4.8164    1.3059   19.1184 C   0  0  0  0  0  0  0  0  0  0  0  0
    3.8793    1.8350   19.2626 H   0  0  0  0  0  0  0  0  0  0  0  0
  1  2  1  0
  2  3  2  0
  3  4  1  0
  4  5  1  0
  4  6  2  0
  7  6  1  1
  7  8  2  0
  7  9  1  0
  9 10  1  0
 10 11  1  0
 11 12  1  0
 11 13  1  0
 11 14  1  0
 10 15  2  0
 15 16  1  0
 16 17  1  0
 17 18  1  0
 18 19  1  0
 18 20  1  0
 18 21  1  0
  6 22  1  0
 22 23  1  0
 22 24  2  0
 24 25  1  0
 24  2  1  0
 17  9  2  0
M  END
>  <cnnaffinity>  (1) 
-4.5241

>  <filename>  (1) 
Cc1noc(C)c1[S@](=O)c1cccnc1

$$$$
