
     RDKit          3D

 34 36  0  0  0  0  0  0  0  0999 V2000
    6.1793   -0.7870   22.4799 H   0  0  0  0  0  0  0  0  0  0  0  0
    6.5647   -1.4193   21.8535 O   0  0  0  0  0  0  0  0  0  0  0  0
    7.4213   -0.6898   21.0051 C   0  0  1  0  0  0  0  0  0  0  0  0
    8.0665   -1.4467   20.5344 H   0  0  0  0  0  0  0  0  0  0  0  0
    6.6578    0.0162   19.9082 C   0  0  0  0  0  0  0  0  0  0  0  0
    7.1631    0.0647   18.6017 C   0  0  0  0  0  0  0  0  0  0  0  0
    8.1088   -0.4271   18.3631 H   0  0  0  0  0  0  0  0  0  0  0  0
    6.5632    0.6785   17.5741 N   0  0  0  0  0  0  0  0  0  0  0  0
    5.4006    1.2950   17.8323 C   0  0  0  0  0  0  0  0  0  0  0  0
    4.9197    1.7861   16.9908 H   0  0  0  0  0  0  0  0  0  0  0  0
    4.8023    1.3095   19.0973 C   0  0  0  0  0  0  0  0  0  0  0  0
    3.8727    1.8431   19.2538 H   0  0  0  0  0  0  0  0  0  0  0  0
    5.4291    0.6492   20.1512 C   0  0  0  0  0  0  0  0  0  0  0  0
    5.0033    0.6494   21.1596 H   0  0  0  0  0  0  0  0  0  0  0  0
    8.3421    0.2736   21.8273 C   0  0  0  0  0  0  0  0  0  0  0  0
    7.5803    1.4413   22.4049 C   0  0  0  0  0  0  0  0  0  0  0  0
    6.9604    1.3838   23.6312 N   0  0  0  0  0  0  0  0  0  0  0  0
    6.3871    2.5139   23.9248 C   0  0  0  0  0  0  0  0  0  0  0  0
    5.7051    2.7869   25.2209 C   0  0  0  0  0  0  0  0  0  0  0  0
    6.3881    3.2849   25.9163 H   0  0  0  0  0  0  0  0  0  0  0  0
    5.3888    1.8488   25.6768 H   0  0  0  0  0  0  0  0  0  0  0  0
    4.8419    3.4382   25.0836 H   0  0  0  0  0  0  0  0  0  0  0  0
    6.4772    3.7216   22.6752 S   0  0  0  0  0  0  0  0  0  0  0  0
    7.4210    2.6237   21.7582 C   0  0  0  0  0  0  0  0  0  0  0  0
    7.7819    2.7806   20.7648 H   0  0  0  0  0  0  0  0  0  0  0  0
    9.2141   -0.4999   22.8650 C   0  0  0  0  0  0  0  0  0  0  0  0
    9.1305   -0.0986   23.8769 H   0  0  0  0  0  0  0  0  0  0  0  0
    8.9935   -1.5703   22.9072 H   0  0  0  0  0  0  0  0  0  0  0  0
   10.4950   -0.1217   22.0978 C   0  0  0  0  0  0  0  0  0  0  0  0
   11.0506   -0.9735   21.6904 H   0  0  0  0  0  0  0  0  0  0  0  0
   11.1962    0.4926   22.6683 H   0  0  0  0  0  0  0  0  0  0  0  0
    9.6535    0.6574   21.0652 C   0  0  0  0  0  0  0  0  0  0  0  0
    9.8727    1.7282   21.0224 H   0  0  0  0  0  0  0  0  0  0  0  0
    9.7026    0.2692   20.0442 H   0  0  0  0  0  0  0  0  0  0  0  0
  1  2  1  0
  2  3  1  0
  3  4  1  6
  3  5  1  0
  5  6  2  0
  6  7  1  0
  6  8  1  0
  8  9  2  0
  9 10  1  0
  9 11  1  0
 11 12  1  0
 11 13  2  0
 13 14  1  0
  3 15  1  0
 15 16  1  0
 16 17  1  0
 17 18  2  0
 18 19  1  0
 19 20  1  0
 19 21  1  0
 19 22  1  0
 18 23  1  0
 23 24  1  0
 24 25  1  0
 15 26  1  0
 26 27  1  0
 26 28  1  0
 26 29  1  0
 29 30  1  0
 29 31  1  0
 29 32  1  0
 32 33  1  0
 32 34  1  0
 13  5  1  0
 32 15  1  0
 24 16  2  0
M  END
>  <cnnaffinity>  (1) 
-5.08424

>  <filename>  (1) 
Cc1nc(C2([C@@H](O)c3cccnc3)CCC2)cs1

$$$$
