
     RDKit          3D

 44 46  0  0  0  0  0  0  0  0999 V2000
   10.3211    1.1220   24.7141 C   0  0  0  0  0  0  0  0  0  0  0  0
    8.8714    1.3956   24.9635 C   0  0  0  0  0  0  0  0  0  0  0  0
    8.4180    1.4256   26.1890 N   0  0  0  0  0  0  0  0  0  0  0  0
    7.0488    1.5790   26.0845 O   0  0  0  0  0  0  0  0  0  0  0  0
    6.7008    1.6387   24.7947 C   0  0  0  0  0  0  0  0  0  0  0  0
    5.2476    1.7184   24.4596 C   0  0  0  0  0  0  0  0  0  0  0  0
    5.0425    2.5901   23.8312 H   0  0  0  0  0  0  0  0  0  0  0  0
    4.6342    1.7679   25.3589 H   0  0  0  0  0  0  0  0  0  0  0  0
    4.9521    0.8358   23.8805 H   0  0  0  0  0  0  0  0  0  0  0  0
    7.8085    1.5466   24.0097 C   0  0  0  0  0  0  0  0  0  0  0  0
    7.8367    1.3657   22.5112 C   0  0  0  0  0  0  0  0  0  0  0  0
    8.9974    2.1009   21.8156 C   0  0  0  0  0  0  0  0  0  0  0  0
    9.0927    3.1309   22.1702 H   0  0  0  0  0  0  0  0  0  0  0  0
    9.9444    1.5840   21.9985 H   0  0  0  0  0  0  0  0  0  0  0  0
    8.8327    2.1203   20.7338 H   0  0  0  0  0  0  0  0  0  0  0  0
    7.8361   -0.1042   22.1025 C   0  0  0  0  0  0  0  0  0  0  0  0
    8.4190   -1.1120   22.7340 N   0  0  0  0  0  0  0  0  0  0  0  0
    8.3354   -2.1330   21.8430 C   0  0  0  0  0  0  0  0  0  0  0  0
    8.7558   -3.5328   22.1533 C   0  0  0  0  0  0  0  0  0  0  0  0
    7.7671   -4.2186   23.1229 C   0  0  0  0  0  0  0  0  0  0  0  0
    8.1281   -5.5891   23.6608 C   0  0  0  0  0  0  0  0  0  0  0  0
    7.1402   -5.9685   24.4932 F   0  0  0  0  0  0  0  0  0  0  0  0
    8.2430   -6.5167   22.6898 F   0  0  0  0  0  0  0  0  0  0  0  0
    9.2808   -5.6096   24.3513 F   0  0  0  0  0  0  0  0  0  0  0  0
    7.6053   -3.5792   24.0002 H   0  0  0  0  0  0  0  0  0  0  0  0
    6.7911   -4.3530   22.6392 H   0  0  0  0  0  0  0  0  0  0  0  0
    8.7538   -4.0461   21.1880 H   0  0  0  0  0  0  0  0  0  0  0  0
    9.7746   -3.4818   22.5610 H   0  0  0  0  0  0  0  0  0  0  0  0
    7.7593   -1.8248   20.7057 N   0  0  0  0  0  0  0  0  0  0  0  0
    7.4066   -0.5288   20.8792 N   0  0  0  0  0  0  0  0  0  0  0  0
    6.6459    0.1002   19.8663 C   0  0  0  0  0  0  0  0  0  0  0  0
    5.4129    0.7139   20.1045 C   0  0  0  0  0  0  0  0  0  0  0  0
    4.7835    1.3431   19.0244 C   0  0  0  0  0  0  0  0  0  0  0  0
    5.3959    1.3177   17.7691 C   0  0  0  0  0  0  0  0  0  0  0  0
    6.5399    0.6536   17.5238 N   0  0  0  0  0  0  0  0  0  0  0  0
    7.1302    0.0400   18.5499 C   0  0  0  0  0  0  0  0  0  0  0  0
    8.0342   -0.5341   18.3507 H   0  0  0  0  0  0  0  0  0  0  0  0
    4.9598    1.8494   16.9243 H   0  0  0  0  0  0  0  0  0  0  0  0
    3.8449    1.8651   19.1544 H   0  0  0  0  0  0  0  0  0  0  0  0
    4.9390    0.6590   21.0870 H   0  0  0  0  0  0  0  0  0  0  0  0
    6.9087    1.7970   22.1158 H   0  0  0  0  0  0  0  0  0  0  0  0
   10.4073    0.2566   24.0474 H   0  0  0  0  0  0  0  0  0  0  0  0
   10.8385    0.9095   25.6529 H   0  0  0  0  0  0  0  0  0  0  0  0
   10.8124    1.9704   24.2301 H   0  0  0  0  0  0  0  0  0  0  0  0
  1  2  1  0
  2  3  2  0
  3  4  1  0
  4  5  1  0
  5  6  1  0
  6  7  1  0
  6  8  1  0
  6  9  1  0
  5 10  2  0
 10 11  1  0
 11 12  1  0
 12 13  1  0
 12 14  1  0
 12 15  1  0
 11 16  1  0
 16 17  2  0
 17 18  1  0
 18 19  1  0
 19 20  1  0
 20 21  1  0
 21 22  1  0
 21 23  1  0
 21 24  1  0
 20 25  1  0
 20 26  1  0
 19 27  1  0
 19 28  1  0
 18 29  2  0
 29 30  1  0
 30 31  1  0
 31 32  2  0
 32 33  1  0
 33 34  2  0
 34 35  1  0
 35 36  2  0
 36 37  1  0
 34 38  1  0
 33 39  1  0
 32 40  1  0
 11 41  1  0
  1 42  1  0
  1 43  1  0
  1 44  1  0
 10  2  1  0
 30 16  1  0
 36 31  1  0
M  END
>  <cnnaffinity>  (1) 
-6.22041

>  <filename>  (1) 
Cc1noc(C)c1C(C)c1nc(CCC(F)(F)F)nn1-c1cccnc1

$$$$
