
     RDKit          3D

 48 52  0  0  0  0  0  0  0  0999 V2000
   10.6556    5.8458   24.7997 C   0  0  0  0  0  0  0  0  0  0  0  0
    9.7091    4.7009   25.0191 C   0  0  0  0  0  0  0  0  0  0  0  0
    9.6221    3.7530   24.0650 N   0  0  0  0  0  0  0  0  0  0  0  0
    8.7912    2.6967   24.2520 C   0  0  0  0  0  0  0  0  0  0  0  0
    8.6116    1.5972   23.2195 C   0  0  0  0  0  0  0  0  0  0  0  0
    7.4742    1.0028   22.8588 N   0  0  0  0  0  0  0  0  0  0  0  0
    7.8481    0.1060   21.9156 C   0  0  0  0  0  0  0  0  0  0  0  0
    6.8970   -0.7565   21.1312 C   0  0  0  0  0  0  0  0  0  0  0  0
    6.4705   -0.1030   19.8234 C   0  0  0  0  0  0  0  0  0  0  0  0
    5.5777    0.9750   19.8580 C   0  0  0  0  0  0  0  0  0  0  0  0
    5.2460    1.6113   18.6609 C   0  0  0  0  0  0  0  0  0  0  0  0
    5.8296    1.1580   17.4741 C   0  0  0  0  0  0  0  0  0  0  0  0
    6.6999    0.1386   17.4200 N   0  0  0  0  0  0  0  0  0  0  0  0
    7.0075   -0.4651   18.5756 C   0  0  0  0  0  0  0  0  0  0  0  0
    7.7363   -1.2752   18.5154 H   0  0  0  0  0  0  0  0  0  0  0  0
    5.5978    1.6392   16.5250 H   0  0  0  0  0  0  0  0  0  0  0  0
    4.5657    2.4567   18.6358 H   0  0  0  0  0  0  0  0  0  0  0  0
    5.1730    1.3107   20.8158 H   0  0  0  0  0  0  0  0  0  0  0  0
    7.3860   -1.7189   20.9426 H   0  0  0  0  0  0  0  0  0  0  0  0
    6.0286   -0.9458   21.7699 H   0  0  0  0  0  0  0  0  0  0  0  0
    9.1436    0.0796   21.6787 N   0  0  0  0  0  0  0  0  0  0  0  0
    9.6464    1.0160   22.5219 N   0  0  0  0  0  0  0  0  0  0  0  0
   11.0255    1.1865   22.6743 C   0  0  0  0  0  0  0  0  0  0  0  0
   11.6530    0.8981   23.8214 C   0  0  0  0  0  0  0  0  0  0  0  0
   12.7215    1.7330   24.2665 C   0  0  0  0  0  0  0  0  0  0  0  0
   13.1952    2.7788   23.5659 C   0  0  0  0  0  0  0  0  0  0  0  0
   12.9007    2.8624   22.0571 C   0  0  0  0  0  0  0  0  0  0  0  0
   11.7062    2.5245   21.1058 C   0  0  0  0  0  0  0  0  0  0  0  0
   11.9770    2.2528   21.3053 C   0  0  0  0  0  0  0  0  0  0  0  0
   11.6114    1.4081   20.5634 H   0  0  0  0  0  0  0  0  0  0  0  0
   11.6062    3.4279   19.9474 H   0  0  0  0  0  0  0  0  0  0  0  0
   10.6202    3.0171   21.3186 H   0  0  0  0  0  0  0  0  0  0  0  0
   13.6377    3.5533   21.6570 H   0  0  0  0  0  0  0  0  0  0  0  0
   13.9341    3.4985   23.8936 H   0  0  0  0  0  0  0  0  0  0  0  0
   13.1235    1.4850   25.2469 H   0  0  0  0  0  0  0  0  0  0  0  0
   11.3194    0.0596   24.4383 H   0  0  0  0  0  0  0  0  0  0  0  0
    8.0316    2.6109   25.4373 C   0  0  0  0  0  0  0  0  0  0  0  0
    7.0561    1.7374   26.0537 C   0  0  0  0  0  0  0  0  0  0  0  0
    6.6975    2.3215   27.2332 C   0  0  0  0  0  0  0  0  0  0  0  0
    7.4057    3.4984   27.3908 N   0  0  0  0  0  0  0  0  0  0  0  0
    8.2187    3.6879   26.3267 C   0  0  0  0  0  0  0  0  0  0  0  0
    9.0333    4.7227   26.1748 N   0  0  0  0  0  0  0  0  0  0  0  0
    7.3528    4.1976   28.1081 H   0  0  0  0  0  0  0  0  0  0  0  0
    5.9891    1.9871   27.9812 H   0  0  0  0  0  0  0  0  0  0  0  0
    6.6728    0.8142   25.6349 H   0  0  0  0  0  0  0  0  0  0  0  0
   10.4908    6.3061   23.8213 H   0  0  0  0  0  0  0  0  0  0  0  0
   10.5103    6.5957   25.5815 H   0  0  0  0  0  0  0  0  0  0  0  0
   11.6993    5.5136   24.8585 H   0  0  0  0  0  0  0  0  0  0  0  0
  1  2  1  0
  2  3  2  0
  3  4  1  0
  4  5  1  0
  5  6  2  0
  6  7  1  0
  7  8  1  0
  8  9  1  0
  9 10  2  0
 10 11  1  0
 11 12  2  0
 12 13  1  0
 13 14  2  0
 14 15  1  0
 12 16  1  0
 11 17  1  0
 10 18  1  0
  8 19  1  0
  8 20  1  0
  7 21  2  0
 21 22  1  0
 22 23  1  0
 23 24  2  0
 24 25  1  0
 25 26  2  0
 26 27  1  0
 27 28  2  0
 28 29  1  0
 29 30  1  0
 29 31  1  0
 29 32  1  0
 27 33  1  0
 26 34  1  0
 25 35  1  0
 24 36  1  0
  4 37  2  0
 37 38  1  0
 38 39  2  0
 39 40  1  0
 40 41  1  0
 41 42  2  0
 40 43  1  0
 39 44  1  0
 38 45  1  0
  1 46  1  0
  1 47  1  0
  1 48  1  0
 42  2  1  0
 22  5  1  0
 28 23  1  0
 41 37  1  0
 14  9  1  0
M  END
>  <cnnaffinity>  (1) 
-6.26605

>  <filename>  (1) 
Cc1nc(-c2nc(Cc3cccnc3)nn2-c2ccccc2C)c2cc[nH]c2n1

$$$$
