
     RDKit          3D

 50 54  0  0  0  0  0  0  0  0999 V2000
   10.0875    8.1749   26.4904 C   0  0  0  0  0  0  0  0  0  0  0  0
    9.8432    6.7902   25.9948 C   0  0  0  0  0  0  0  0  0  0  0  0
   10.0023    6.3771   24.7699 N   0  0  0  0  0  0  0  0  0  0  0  0
    9.6064    5.0447   24.7828 C   0  0  0  0  0  0  0  0  0  0  0  0
    9.5620    4.1070   23.7379 C   0  0  0  0  0  0  0  0  0  0  0  0
    9.1425    2.7889   23.9930 C   0  0  0  0  0  0  0  0  0  0  0  0
    9.0370    1.7548   22.9337 C   0  0  0  0  0  0  0  0  0  0  0  0
    8.0076    0.9422   22.7591 N   0  0  0  0  0  0  0  0  0  0  0  0
    8.3407    0.2691   21.6325 C   0  0  0  0  0  0  0  0  0  0  0  0
    7.4232   -0.7051   20.9500 C   0  0  0  0  0  0  0  0  0  0  0  0
    6.6402   -0.0562   19.8146 C   0  0  0  0  0  0  0  0  0  0  0  0
    5.4455    0.6224   20.0855 C   0  0  0  0  0  0  0  0  0  0  0  0
    4.8050    1.3053   19.0497 C   0  0  0  0  0  0  0  0  0  0  0  0
    5.3908    1.3059   17.7810 C   0  0  0  0  0  0  0  0  0  0  0  0
    6.5320    0.6606   17.4948 N   0  0  0  0  0  0  0  0  0  0  0  0
    7.1320    0.0061   18.4981 C   0  0  0  0  0  0  0  0  0  0  0  0
    8.0694   -0.4900   18.2433 H   0  0  0  0  0  0  0  0  0  0  0  0
    4.9263    1.8513   16.9605 H   0  0  0  0  0  0  0  0  0  0  0  0
    3.8816    1.8481   19.2169 H   0  0  0  0  0  0  0  0  0  0  0  0
    5.0296    0.6286   21.0957 H   0  0  0  0  0  0  0  0  0  0  0  0
    8.0169   -1.5489   20.5847 H   0  0  0  0  0  0  0  0  0  0  0  0
    6.7357   -1.0928   21.7086 H   0  0  0  0  0  0  0  0  0  0  0  0
    9.5245    0.5692   21.1337 N   0  0  0  0  0  0  0  0  0  0  0  0
    9.9674    1.5542   21.9608 N   0  0  0  0  0  0  0  0  0  0  0  0
   11.4001    1.8909   21.9354 C   0  0  0  0  0  0  0  0  0  0  0  0
   12.1894    0.9066   22.8046 C   0  0  0  0  0  0  0  0  0  0  0  0
   11.8209    1.0098   24.2944 C   0  0  0  0  0  0  0  0  0  0  0  0
   13.0184    0.3617   24.9807 C   0  0  0  0  0  0  0  0  0  0  0  0
   14.0793    0.3501   24.0374 O   0  0  0  0  0  0  0  0  0  0  0  0
   13.7030    1.0854   22.8869 C   0  0  0  0  0  0  0  0  0  0  0  0
   14.2563    0.6609   22.0438 H   0  0  0  0  0  0  0  0  0  0  0  0
   13.9734    2.1520   23.0030 H   0  0  0  0  0  0  0  0  0  0  0  0
   13.3533    0.8776   25.8696 H   0  0  0  0  0  0  0  0  0  0  0  0
   12.7803   -0.6477   25.3099 H   0  0  0  0  0  0  0  0  0  0  0  0
   10.8751    0.5082   24.5227 H   0  0  0  0  0  0  0  0  0  0  0  0
   11.7255    2.0665   24.5818 H   0  0  0  0  0  0  0  0  0  0  0  0
   11.9843   -0.1108   22.4377 H   0  0  0  0  0  0  0  0  0  0  0  0
   11.5198    2.9142   22.3058 H   0  0  0  0  0  0  0  0  0  0  0  0
   11.7027    1.8565   20.8861 H   0  0  0  0  0  0  0  0  0  0  0  0
    8.7780    2.4515   25.3220 C   0  0  0  0  0  0  0  0  0  0  0  0
    8.4460    1.1818   25.6067 F   0  0  0  0  0  0  0  0  0  0  0  0
    8.7744    3.3620   26.3745 C   0  0  0  0  0  0  0  0  0  0  0  0
    9.2038    4.6643   26.0787 C   0  0  0  0  0  0  0  0  0  0  0  0
    9.3715    5.8059   26.8314 N   0  0  0  0  0  0  0  0  0  0  0  0
    9.1488    5.9277   27.8019 H   0  0  0  0  0  0  0  0  0  0  0  0
    8.4473    3.0258   27.3532 H   0  0  0  0  0  0  0  0  0  0  0  0
    9.8198    4.4553   22.7435 H   0  0  0  0  0  0  0  0  0  0  0  0
   10.5482    8.1728   27.4830 H   0  0  0  0  0  0  0  0  0  0  0  0
    9.1441    8.7279   26.5479 H   0  0  0  0  0  0  0  0  0  0  0  0
   10.7419    8.6997   25.7937 H   0  0  0  0  0  0  0  0  0  0  0  0
  1  2  1  0
  2  3  2  0
  3  4  1  0
  4  5  2  0
  5  6  1  0
  6  7  1  0
  7  8  2  0
  8  9  1  0
  9 10  1  0
 10 11  1  0
 11 12  2  0
 12 13  1  0
 13 14  2  0
 14 15  1  0
 15 16  2  0
 16 17  1  0
 14 18  1  0
 13 19  1  0
 12 20  1  0
 10 21  1  0
 10 22  1  0
  9 23  2  0
 23 24  1  0
 24 25  1  0
 25 26  1  0
 26 27  1  0
 27 28  1  0
 28 29  1  0
 29 30  1  0
 30 31  1  0
 30 32  1  0
 28 33  1  0
 28 34  1  0
 27 35  1  0
 27 36  1  0
 26 37  1  0
 25 38  1  0
 25 39  1  0
  6 40  2  0
 40 41  1  0
 40 42  1  0
 42 43  2  0
 43 44  1  0
 44 45  1  0
 42 46  1  0
  5 47  1  0
  1 48  1  0
  1 49  1  0
  1 50  1  0
 44  2  1  0
 43  4  1  0
 24  7  1  0
 30 26  1  0
 16 11  1  0
M  END
>  <cnnaffinity>  (1) 
-6.30271

>  <filename>  (1) 
Cc1nc2cc(-c3nc(Cc4cccnc4)nn3CC3CCOC3)c(F)cc2[nH]1

$$$$
