
     RDKit          3D

 27 29  0  0  0  0  0  0  0  0999 V2000
    8.7912   -3.5911   22.2821 C   0  0  0  0  0  0  0  0  0  0  0  0
    8.1451   -2.3025   21.9572 C   0  0  0  0  0  0  0  0  0  0  0  0
    7.7223   -1.9748   20.7530 N   0  0  0  0  0  0  0  0  0  0  0  0
    7.3408   -0.6865   20.9203 N   0  0  0  0  0  0  0  0  0  0  0  0
    6.6368   -0.0077   19.8949 C   0  0  0  0  0  0  0  0  0  0  0  0
    5.4204    0.6336   20.1555 C   0  0  0  0  0  0  0  0  0  0  0  0
    4.7991    1.2962   19.0944 C   0  0  0  0  0  0  0  0  0  0  0  0
    5.4100    1.2897   17.8364 C   0  0  0  0  0  0  0  0  0  0  0  0
    6.5717    0.6611   17.5861 N   0  0  0  0  0  0  0  0  0  0  0  0
    7.1643    0.0201   18.5933 C   0  0  0  0  0  0  0  0  0  0  0  0
    8.1108   -0.4672   18.3744 H   0  0  0  0  0  0  0  0  0  0  0  0
    4.9576    1.8062   16.9938 H   0  0  0  0  0  0  0  0  0  0  0  0
    3.8707    1.8378   19.2361 H   0  0  0  0  0  0  0  0  0  0  0  0
    5.0025    0.6392   21.1647 H   0  0  0  0  0  0  0  0  0  0  0  0
    7.5959   -0.3089   22.2111 C   0  0  0  0  0  0  0  0  0  0  0  0
    7.4314    1.0248   22.7279 C   0  0  0  0  0  0  0  0  0  0  0  0
    7.4423    2.2476   22.1088 C   0  0  0  0  0  0  0  0  0  0  0  0
    7.2870    3.2481   23.0225 N   0  0  0  0  0  0  0  0  0  0  0  0
    7.1905    2.6497   24.1698 C   0  0  0  0  0  0  0  0  0  0  0  0
    7.0143    3.4090   25.6919 Cl  0  0  0  0  0  0  0  0  0  0  0  0
    7.2684    1.3063   24.0741 N   0  0  0  0  0  0  0  0  0  0  0  0
    7.2833    0.6735   24.8613 H   0  0  0  0  0  0  0  0  0  0  0  0
    7.5297    2.4542   21.0484 H   0  0  0  0  0  0  0  0  0  0  0  0
    8.0861   -1.3235   22.8881 N   0  0  0  0  0  0  0  0  0  0  0  0
    8.5777   -3.8652   23.3168 H   0  0  0  0  0  0  0  0  0  0  0  0
    9.8649   -3.3983   22.1942 H   0  0  0  0  0  0  0  0  0  0  0  0
    8.4796   -4.3776   21.5931 H   0  0  0  0  0  0  0  0  0  0  0  0
  1  2  1  0
  2  3  2  0
  3  4  1  0
  4  5  1  0
  5  6  2  0
  6  7  1  0
  7  8  2  0
  8  9  1  0
  9 10  2  0
 10 11  1  0
  8 12  1  0
  7 13  1  0
  6 14  1  0
  4 15  1  0
 15 16  1  0
 16 17  2  0
 17 18  1  0
 18 19  2  0
 19 20  1  0
 19 21  1  0
 21 22  1  0
 17 23  1  0
 15 24  2  0
  1 25  1  0
  1 26  1  0
  1 27  1  0
 24  2  1  0
 10  5  1  0
 21 16  1  0
M  END
>  <cnnaffinity>  (1) 
-4.88668

>  <filename>  (1) 
Cc1nc(-c2cnc(Cl)[nH]2)n(-c2cccnc2)n1

$$$$
