
     RDKit          3D

 47 51  0  0  0  0  0  0  0  0999 V2000
    9.8314    8.2033   26.2914 C   0  0  0  0  0  0  0  0  0  0  0  0
    9.6575    6.8047   25.8137 C   0  0  0  0  0  0  0  0  0  0  0  0
    9.8347    6.3960   24.5888 N   0  0  0  0  0  0  0  0  0  0  0  0
    9.5265    5.0462   24.6089 C   0  0  0  0  0  0  0  0  0  0  0  0
    9.5507    4.1172   23.5602 C   0  0  0  0  0  0  0  0  0  0  0  0
    9.1975    2.7938   23.8360 C   0  0  0  0  0  0  0  0  0  0  0  0
    9.1491    1.7914   22.8057 N   0  0  0  0  0  0  0  0  0  0  0  0
    8.0488    1.0037   22.6633 N   0  0  0  0  0  0  0  0  0  0  0  0
    8.3364    0.2633   21.6189 C   0  0  0  0  0  0  0  0  0  0  0  0
    7.3615   -0.6950   20.9899 C   0  0  0  0  0  0  0  0  0  0  0  0
    6.5924   -0.0554   19.8408 C   0  0  0  0  0  0  0  0  0  0  0  0
    5.3953    0.6311   20.0776 C   0  0  0  0  0  0  0  0  0  0  0  0
    4.7882    1.3198   19.0261 C   0  0  0  0  0  0  0  0  0  0  0  0
    5.4058    1.3058   17.7726 C   0  0  0  0  0  0  0  0  0  0  0  0
    6.5447    0.6422   17.5152 N   0  0  0  0  0  0  0  0  0  0  0  0
    7.1106   -0.0153   18.5339 C   0  0  0  0  0  0  0  0  0  0  0  0
    8.0440   -0.5342   18.3097 H   0  0  0  0  0  0  0  0  0  0  0  0
    4.9668    1.8471   16.9370 H   0  0  0  0  0  0  0  0  0  0  0  0
    3.8624    1.8694   19.1685 H   0  0  0  0  0  0  0  0  0  0  0  0
    4.9533    0.6335   21.0759 H   0  0  0  0  0  0  0  0  0  0  0  0
    7.9316   -1.5589   20.6355 H   0  0  0  0  0  0  0  0  0  0  0  0
    6.6681   -1.0414   21.7628 H   0  0  0  0  0  0  0  0  0  0  0  0
    9.5680    0.4761   21.0914 N   0  0  0  0  0  0  0  0  0  0  0  0
   10.0650    1.4375   21.8602 C   0  0  0  0  0  0  0  0  0  0  0  0
   11.5048    1.9075   21.8515 C   0  0  0  0  0  0  0  0  0  0  0  0
   11.6360    3.2929   21.5618 O   0  0  0  0  0  0  0  0  0  0  0  0
   12.5232    3.5571   21.8499 H   0  0  0  0  0  0  0  0  0  0  0  0
   12.1672    1.6425   23.1869 C   0  0  0  0  0  0  0  0  0  0  0  0
   13.5798    1.1742   23.3027 C   0  0  0  0  0  0  0  0  0  0  0  0
   12.4567    0.2418   23.6288 C   0  0  0  0  0  0  0  0  0  0  0  0
   12.2782   -0.0065   24.6690 H   0  0  0  0  0  0  0  0  0  0  0  0
   12.2536   -0.5670   22.9326 H   0  0  0  0  0  0  0  0  0  0  0  0
   14.1227    1.5846   24.1328 H   0  0  0  0  0  0  0  0  0  0  0  0
   14.1824    0.9897   22.4195 H   0  0  0  0  0  0  0  0  0  0  0  0
   11.8175    2.3362   23.9508 H   0  0  0  0  0  0  0  0  0  0  0  0
   11.9650    1.3110   21.0507 H   0  0  0  0  0  0  0  0  0  0  0  0
    8.8385    2.4079   25.1536 C   0  0  0  0  0  0  0  0  0  0  0  0
    8.8149    3.3242   26.2015 C   0  0  0  0  0  0  0  0  0  0  0  0
    9.1600    4.6480   25.9086 C   0  0  0  0  0  0  0  0  0  0  0  0
    9.2508    5.8053   26.6583 N   0  0  0  0  0  0  0  0  0  0  0  0
    9.1445    5.9006   27.6518 H   0  0  0  0  0  0  0  0  0  0  0  0
    8.5227    3.0195   27.2035 H   0  0  0  0  0  0  0  0  0  0  0  0
    8.5484    1.3763   25.3307 H   0  0  0  0  0  0  0  0  0  0  0  0
    9.8535    4.4500   22.5762 H   0  0  0  0  0  0  0  0  0  0  0  0
    8.8565    8.6716   26.4561 H   0  0  0  0  0  0  0  0  0  0  0  0
   10.3901    8.2364   27.2307 H   0  0  0  0  0  0  0  0  0  0  0  0
   10.3662    8.7815   25.5381 H   0  0  0  0  0  0  0  0  0  0  0  0
  1  2  1  0
  2  3  2  0
  3  4  1  0
  4  5  2  0
  5  6  1  0
  6  7  1  0
  7  8  1  0
  8  9  2  0
  9 10  1  0
 10 11  1  0
 11 12  2  0
 12 13  1  0
 13 14  2  0
 14 15  1  0
 15 16  2  0
 16 17  1  0
 14 18  1  0
 13 19  1  0
 12 20  1  0
 10 21  1  0
 10 22  1  0
  9 23  1  0
 23 24  2  0
 24 25  1  0
 25 26  1  0
 26 27  1  0
 25 28  1  0
 28 29  1  0
 29 30  1  0
 30 31  1  0
 30 32  1  0
 29 33  1  0
 29 34  1  0
 28 35  1  0
 25 36  1  0
  6 37  2  0
 37 38  1  0
 38 39  2  0
 39 40  1  0
 40 41  1  0
 38 42  1  0
 37 43  1  0
  5 44  1  0
  1 45  1  0
  1 46  1  0
  1 47  1  0
 40  2  1  0
 39  4  1  0
 24  7  1  0
 30 28  1  0
 16 11  1  0
M  END
>  <cnnaffinity>  (1) 
-6.01864

>  <filename>  (1) 
Cc1nc2cc(-n3nc(Cc4cccnc4)nc3C(O)C3CC3)ccc2[nH]1

$$$$
