
     RDKit          3D

 50 54  0  0  0  0  0  0  0  0999 V2000
    9.7719    8.1436   26.6393 C   0  0  0  0  0  0  0  0  0  0  0  0
    9.5189    6.7483   26.1829 C   0  0  0  0  0  0  0  0  0  0  0  0
    9.5854    6.3509   24.9439 N   0  0  0  0  0  0  0  0  0  0  0  0
    9.1880    5.0240   24.9663 C   0  0  0  0  0  0  0  0  0  0  0  0
    9.0110    4.1311   23.9084 C   0  0  0  0  0  0  0  0  0  0  0  0
    8.5996    2.8200   24.1813 C   0  0  0  0  0  0  0  0  0  0  0  0
    8.5641    1.8750   23.1063 N   0  0  0  0  0  0  0  0  0  0  0  0
    7.5438    0.9943   22.8779 N   0  0  0  0  0  0  0  0  0  0  0  0
    7.9142    0.4107   21.7553 C   0  0  0  0  0  0  0  0  0  0  0  0
    7.1650   -0.6617   21.0220 C   0  0  0  0  0  0  0  0  0  0  0  0
    6.4517   -0.0880   19.8093 C   0  0  0  0  0  0  0  0  0  0  0  0
    5.2763    0.6419   20.0066 C   0  0  0  0  0  0  0  0  0  0  0  0
    4.7295    1.3476   18.9337 C   0  0  0  0  0  0  0  0  0  0  0  0
    5.3792    1.2981   17.6972 C   0  0  0  0  0  0  0  0  0  0  0  0
    6.4893    0.5785   17.4740 N   0  0  0  0  0  0  0  0  0  0  0  0
    7.0027   -0.0928   18.5147 C   0  0  0  0  0  0  0  0  0  0  0  0
    7.9133   -0.6577   18.3083 H   0  0  0  0  0  0  0  0  0  0  0  0
    4.9951    1.8666   16.8499 H   0  0  0  0  0  0  0  0  0  0  0  0
    3.8405    1.9557   19.0529 H   0  0  0  0  0  0  0  0  0  0  0  0
    4.8171    0.6653   20.9968 H   0  0  0  0  0  0  0  0  0  0  0  0
    7.9016   -1.4094   20.7113 H   0  0  0  0  0  0  0  0  0  0  0  0
    6.4668   -1.1409   21.7146 H   0  0  0  0  0  0  0  0  0  0  0  0
    9.1020    0.8304   21.2499 N   0  0  0  0  0  0  0  0  0  0  0  0
    9.5134    1.7028   22.1466 C   0  0  0  0  0  0  0  0  0  0  0  0
   10.9103    2.2084   22.2890 C   0  0  0  0  0  0  0  0  0  0  0  0
   11.8513    1.5776   21.2589 C   0  0  0  0  0  0  0  0  0  0  0  0
   13.0585    1.2918   21.9225 O   0  0  0  0  0  0  0  0  0  0  0  0
   13.0266    1.5805   23.3064 C   0  0  0  0  0  0  0  0  0  0  0  0
   13.6437    0.3757   23.9946 C   0  0  0  0  0  0  0  0  0  0  0  0
   13.1038   -0.5115   23.6455 H   0  0  0  0  0  0  0  0  0  0  0  0
   14.6894    0.2675   23.6936 H   0  0  0  0  0  0  0  0  0  0  0  0
   13.5783    0.4348   25.0875 H   0  0  0  0  0  0  0  0  0  0  0  0
   11.5576    1.8337   23.6483 C   0  0  0  0  0  0  0  0  0  0  0  0
   11.0991    0.9107   24.0215 H   0  0  0  0  0  0  0  0  0  0  0  0
   11.4029    2.5881   24.4231 H   0  0  0  0  0  0  0  0  0  0  0  0
   13.6348    2.4841   23.4819 H   0  0  0  0  0  0  0  0  0  0  0  0
   11.4378    0.6383   20.8790 H   0  0  0  0  0  0  0  0  0  0  0  0
   12.0622    2.2452   20.4130 H   0  0  0  0  0  0  0  0  0  0  0  0
   10.9142    3.2904   22.1507 H   0  0  0  0  0  0  0  0  0  0  0  0
    8.3139    2.4241   25.5122 C   0  0  0  0  0  0  0  0  0  0  0  0
    8.4722    3.3164   26.5760 C   0  0  0  0  0  0  0  0  0  0  0  0
    8.9064    4.6181   26.2839 C   0  0  0  0  0  0  0  0  0  0  0  0
    9.1343    5.7511   27.0512 N   0  0  0  0  0  0  0  0  0  0  0  0
    8.7621    5.9151   27.9694 H   0  0  0  0  0  0  0  0  0  0  0  0
    8.2691    3.0077   27.5987 H   0  0  0  0  0  0  0  0  0  0  0  0
    7.9687    1.4085   25.6962 H   0  0  0  0  0  0  0  0  0  0  0  0
    9.1867    4.4706   22.8952 H   0  0  0  0  0  0  0  0  0  0  0  0
    8.8226    8.6851   26.7117 H   0  0  0  0  0  0  0  0  0  0  0  0
   10.3927    8.6518   25.8998 H   0  0  0  0  0  0  0  0  0  0  0  0
   10.2679    8.1833   27.6130 H   0  0  0  0  0  0  0  0  0  0  0  0
  1  2  1  0
  2  3  2  0
  3  4  1  0
  4  5  2  0
  5  6  1  0
  6  7  1  0
  7  8  1  0
  8  9  2  0
  9 10  1  0
 10 11  1  0
 11 12  2  0
 12 13  1  0
 13 14  2  0
 14 15  1  0
 15 16  2  0
 16 17  1  0
 14 18  1  0
 13 19  1  0
 12 20  1  0
 10 21  1  0
 10 22  1  0
  9 23  1  0
 23 24  2  0
 24 25  1  0
 25 26  1  0
 26 27  1  0
 27 28  1  0
 28 29  1  0
 29 30  1  0
 29 31  1  0
 29 32  1  0
 28 33  1  0
 33 34  1  0
 33 35  1  0
 28 36  1  0
 26 37  1  0
 26 38  1  0
 25 39  1  0
  6 40  2  0
 40 41  1  0
 41 42  2  0
 42 43  1  0
 43 44  1  0
 41 45  1  0
 40 46  1  0
  5 47  1  0
  1 48  1  0
  1 49  1  0
  1 50  1  0
 43  2  1  0
 42  4  1  0
 24  7  1  0
 33 25  1  0
 16 11  1  0
M  END
>  <cnnaffinity>  (1) 
-6.08935

>  <filename>  (1) 
Cc1nc2cc(-n3nc(Cc4cccnc4)nc3C3COC(C)C3)ccc2[nH]1

$$$$
