
     RDKit          3D

 26 28  0  0  0  0  0  0  0  0999 V2000
    8.5274   -3.6477   22.2628 C   0  0  0  0  0  0  0  0  0  0  0  0
    8.1067   -2.2546   21.9837 C   0  0  0  0  0  0  0  0  0  0  0  0
    7.6795   -1.8870   20.7920 N   0  0  0  0  0  0  0  0  0  0  0  0
    7.3492   -0.5923   20.9666 N   0  0  0  0  0  0  0  0  0  0  0  0
    6.6414    0.0522   19.9180 C   0  0  0  0  0  0  0  0  0  0  0  0
    5.3916    0.6429   20.1315 C   0  0  0  0  0  0  0  0  0  0  0  0
    4.7817    1.2827   19.0506 C   0  0  0  0  0  0  0  0  0  0  0  0
    5.4200    1.2706   17.8082 C   0  0  0  0  0  0  0  0  0  0  0  0
    6.5742    0.6143   17.5814 N   0  0  0  0  0  0  0  0  0  0  0  0
    7.1616    0.0071   18.6143 C   0  0  0  0  0  0  0  0  0  0  0  0
    8.0911   -0.5258   18.4094 H   0  0  0  0  0  0  0  0  0  0  0  0
    5.0010    1.8155   16.9652 H   0  0  0  0  0  0  0  0  0  0  0  0
    3.8433    1.8135   19.1776 H   0  0  0  0  0  0  0  0  0  0  0  0
    4.9367    0.6394   21.1221 H   0  0  0  0  0  0  0  0  0  0  0  0
    7.6541   -0.2226   22.2538 C   0  0  0  0  0  0  0  0  0  0  0  0
    7.5520    1.1590   22.7750 C   0  0  0  0  0  0  0  0  0  0  0  0
    7.5956    1.4686   24.1046 C   0  0  0  0  0  0  0  0  0  0  0  0
    7.3953    3.1542   24.3362 S   0  0  0  0  0  0  0  0  0  0  0  0
    7.2924    3.3298   22.6061 C   0  0  0  0  0  0  0  0  0  0  0  0
    7.0279    4.8619   21.8827 Cl  0  0  0  0  0  0  0  0  0  0  0  0
    7.3950    2.2452   21.9249 N   0  0  0  0  0  0  0  0  0  0  0  0
    7.7331    0.7608   24.9115 H   0  0  0  0  0  0  0  0  0  0  0  0
    8.1049   -1.2776   22.9171 N   0  0  0  0  0  0  0  0  0  0  0  0
    9.4873   -3.6647   22.7805 H   0  0  0  0  0  0  0  0  0  0  0  0
    7.7709   -4.1455   22.8737 H   0  0  0  0  0  0  0  0  0  0  0  0
    8.6105   -4.1796   21.3209 H   0  0  0  0  0  0  0  0  0  0  0  0
  1  2  1  0
  2  3  2  0
  3  4  1  0
  4  5  1  0
  5  6  2  0
  6  7  1  0
  7  8  2  0
  8  9  1  0
  9 10  2  0
 10 11  1  0
  8 12  1  0
  7 13  1  0
  6 14  1  0
  4 15  1  0
 15 16  1  0
 16 17  2  0
 17 18  1  0
 18 19  1  0
 19 20  1  0
 19 21  2  0
 17 22  1  0
 15 23  2  0
  1 24  1  0
  1 25  1  0
  1 26  1  0
 23  2  1  0
 10  5  1  0
 21 16  1  0
M  END
>  <cnnaffinity>  (1) 
-4.86079

>  <filename>  (1) 
Cc1nc(-c2csc(Cl)n2)n(-c2cccnc2)n1

$$$$
