
     RDKit          3D

 26 27  0  0  0  0  0  0  0  0999 V2000
    5.0101    1.7124   16.8801 H   0  0  0  0  0  0  0  0  0  0  0  0
    5.4564    1.2381   17.7546 C   0  0  0  0  0  0  0  0  0  0  0  0
    6.6170    0.5903   17.5629 N   0  0  0  0  0  0  0  0  0  0  0  0
    7.1902   -0.0150   18.6140 C   0  0  0  0  0  0  0  0  0  0  0  0
    8.1362   -0.5255   18.4180 H   0  0  0  0  0  0  0  0  0  0  0  0
    6.6454    0.0001   19.9227 C   0  0  0  0  0  0  0  0  0  0  0  0
    7.2396   -0.6475   21.0470 N   0  0  0  0  0  0  0  0  0  0  0  0
    7.9726   -1.3246   20.9450 H   0  0  0  0  0  0  0  0  0  0  0  0
    7.4283   -0.1281   22.2848 C   0  0  0  0  0  0  0  0  0  0  0  0
    6.8886    0.9448   22.7102 N   0  0  0  0  0  0  0  0  0  0  0  0
    7.2457    1.4188   23.9149 C   0  0  0  0  0  0  0  0  0  0  0  0
    7.9945    0.9751   24.8951 N   0  0  0  0  0  0  0  0  0  0  0  0
    7.9365    1.9307   25.9045 N   0  0  0  0  0  0  0  0  0  0  0  0
    7.1718    2.8655   25.4677 C   0  0  0  0  0  0  0  0  0  0  0  0
    6.7268    4.1279   26.1224 C   0  0  0  0  0  0  0  0  0  0  0  0
    5.7210    4.3625   25.7749 H   0  0  0  0  0  0  0  0  0  0  0  0
    6.7211    4.0358   27.2085 H   0  0  0  0  0  0  0  0  0  0  0  0
    7.3756    4.9616   25.8389 H   0  0  0  0  0  0  0  0  0  0  0  0
    6.7092    2.6299   24.2241 O   0  0  0  0  0  0  0  0  0  0  0  0
    8.2387   -0.9778   22.9741 N   0  0  0  0  0  0  0  0  0  0  0  0
    8.3018   -0.6732   23.9377 H   0  0  0  0  0  0  0  0  0  0  0  0
    7.7977   -1.8747   22.8801 H   0  0  0  0  0  0  0  0  0  0  0  0
    5.4357    0.6837   20.1008 C   0  0  0  0  0  0  0  0  0  0  0  0
    5.0134    0.7315   21.1004 H   0  0  0  0  0  0  0  0  0  0  0  0
    4.8284    1.2966   19.0003 C   0  0  0  0  0  0  0  0  0  0  0  0
    3.8887    1.8238   19.1080 H   0  0  0  0  0  0  0  0  0  0  0  0
  1  2  1  0
  2  3  2  0
  3  4  1  0
  4  5  1  0
  4  6  2  0
  6  7  1  0
  7  8  1  0
  7  9  1  0
  9 10  2  3
 10 11  1  0
 11 12  2  0
 12 13  1  0
 13 14  2  0
 14 15  1  0
 15 16  1  0
 15 17  1  0
 15 18  1  0
 14 19  1  0
  9 20  1  0
 20 21  1  0
 20 22  1  0
  6 23  1  0
 23 24  1  0
 23 25  2  0
 25 26  1  0
 25  2  1  0
 19 11  1  0
M  END
>  <cnnaffinity>  (1) 
-4.39623

>  <filename>  (1) 
Cc1nnc(N=C(N)Nc2cccnc2)o1

$$$$
