
     RDKit          3D

 50 54  0  0  0  0  0  0  0  0999 V2000
    9.4610    8.0884   26.6800 C   0  0  0  0  0  0  0  0  0  0  0  0
    9.3143    6.7072   26.1371 C   0  0  0  0  0  0  0  0  0  0  0  0
    9.3531    6.3741   24.8795 N   0  0  0  0  0  0  0  0  0  0  0  0
    9.2054    4.9965   24.8565 C   0  0  0  0  0  0  0  0  0  0  0  0
    9.1913    4.1176   23.7642 C   0  0  0  0  0  0  0  0  0  0  0  0
    9.0391    2.7542   24.0167 C   0  0  0  0  0  0  0  0  0  0  0  0
    9.0234    1.8060   22.9438 N   0  0  0  0  0  0  0  0  0  0  0  0
    7.9419    1.0118   22.7308 N   0  0  0  0  0  0  0  0  0  0  0  0
    8.3114    0.2742   21.7076 C   0  0  0  0  0  0  0  0  0  0  0  0
    7.4004   -0.6886   21.0174 C   0  0  0  0  0  0  0  0  0  0  0  0
    6.6307   -0.0297   19.8789 C   0  0  0  0  0  0  0  0  0  0  0  0
    5.4283    0.6421   20.1280 C   0  0  0  0  0  0  0  0  0  0  0  0
    4.7894    1.3145   19.0831 C   0  0  0  0  0  0  0  0  0  0  0  0
    5.3859    1.3018   17.8200 C   0  0  0  0  0  0  0  0  0  0  0  0
    6.5461    0.6794   17.5595 N   0  0  0  0  0  0  0  0  0  0  0  0
    7.1478    0.0447   18.5729 C   0  0  0  0  0  0  0  0  0  0  0  0
    8.1067   -0.4219   18.3379 H   0  0  0  0  0  0  0  0  0  0  0  0
    4.9192    1.8133   16.9782 H   0  0  0  0  0  0  0  0  0  0  0  0
    3.8627    1.8574   19.2345 H   0  0  0  0  0  0  0  0  0  0  0  0
    5.0160    0.6466   21.1383 H   0  0  0  0  0  0  0  0  0  0  0  0
    8.0219   -1.5100   20.6482 H   0  0  0  0  0  0  0  0  0  0  0  0
    6.7124   -1.0948   21.7666 H   0  0  0  0  0  0  0  0  0  0  0  0
    9.5798    0.4893   21.2747 N   0  0  0  0  0  0  0  0  0  0  0  0
   10.0034    1.4621   22.0654 C   0  0  0  0  0  0  0  0  0  0  0  0
   11.4021    2.0176   22.0780 C   0  0  1  0  0  0  0  0  0  0  0  0
   11.4860    3.4331   21.9361 O   0  0  0  0  0  0  0  0  0  0  0  0
   11.1481    3.7051   21.0667 H   0  0  0  0  0  0  0  0  0  0  0  0
   12.1098    1.6846   23.3907 C   0  0  0  0  0  0  0  0  0  0  0  0
   12.3494    0.1757   23.6579 C   0  0  0  0  0  0  0  0  0  0  0  0
   13.8845    0.4183   23.6156 C   0  0  0  0  0  0  0  0  0  0  0  0
   13.6331    1.9258   23.3686 C   0  0  0  0  0  0  0  0  0  0  0  0
   13.9447    2.6065   24.1507 H   0  0  0  0  0  0  0  0  0  0  0  0
   14.0260    2.3344   22.4341 H   0  0  0  0  0  0  0  0  0  0  0  0
   14.4212    0.1833   24.5401 H   0  0  0  0  0  0  0  0  0  0  0  0
   14.4023   -0.0993   22.7996 H   0  0  0  0  0  0  0  0  0  0  0  0
   11.9479   -0.1910   24.6090 H   0  0  0  0  0  0  0  0  0  0  0  0
   11.9561   -0.4708   22.8595 H   0  0  0  0  0  0  0  0  0  0  0  0
   11.6098    2.2264   24.2062 H   0  0  0  0  0  0  0  0  0  0  0  0
   11.9243    1.5035   21.2528 H   0  0  0  0  0  0  0  0  0  0  0  0
    8.8688    2.2722   25.3366 C   0  0  0  0  0  0  0  0  0  0  0  0
    8.8537    3.1420   26.4210 C   0  0  0  0  0  0  0  0  0  0  0  0
    9.0593    4.5037   26.1686 C   0  0  0  0  0  0  0  0  0  0  0  0
    9.1547    5.6235   26.9702 N   0  0  0  0  0  0  0  0  0  0  0  0
    9.0643    5.6651   27.9687 H   0  0  0  0  0  0  0  0  0  0  0  0
    8.6560    2.7566   27.4144 H   0  0  0  0  0  0  0  0  0  0  0  0
    8.7498    1.2037   25.4885 H   0  0  0  0  0  0  0  0  0  0  0  0
    9.2935    4.5180   22.7649 H   0  0  0  0  0  0  0  0  0  0  0  0
    8.8431    8.2507   27.5686 H   0  0  0  0  0  0  0  0  0  0  0  0
   10.5005    8.2895   26.9590 H   0  0  0  0  0  0  0  0  0  0  0  0
    9.1724    8.8105   25.9154 H   0  0  0  0  0  0  0  0  0  0  0  0
  1  2  1  0
  2  3  2  0
  3  4  1  0
  4  5  2  0
  5  6  1  0
  6  7  1  0
  7  8  1  0
  8  9  2  0
  9 10  1  0
 10 11  1  0
 11 12  2  0
 12 13  1  0
 13 14  2  0
 14 15  1  0
 15 16  2  0
 16 17  1  0
 14 18  1  0
 13 19  1  0
 12 20  1  0
 10 21  1  0
 10 22  1  0
  9 23  1  0
 23 24  2  0
 24 25  1  0
 25 26  1  0
 26 27  1  0
 25 28  1  0
 28 29  1  0
 29 30  1  0
 30 31  1  0
 31 32  1  0
 31 33  1  0
 30 34  1  0
 30 35  1  0
 29 36  1  0
 29 37  1  0
 28 38  1  0
 25 39  1  6
  6 40  2  0
 40 41  1  0
 41 42  2  0
 42 43  1  0
 43 44  1  0
 41 45  1  0
 40 46  1  0
  5 47  1  0
  1 48  1  0
  1 49  1  0
  1 50  1  0
 43  2  1  0
 42  4  1  0
 24  7  1  0
 31 28  1  0
 16 11  1  0
M  END
>  <cnnaffinity>  (1) 
-6.18865

>  <filename>  (1) 
Cc1nc2cc(-n3nc(Cc4cccnc4)nc3[C@@H](O)C3CCC3)ccc2[nH]1

$$$$
