
     RDKit          3D

 48 52  0  0  0  0  0  0  0  0999 V2000
   12.5383   -0.1648   22.5017 C   0  0  0  0  0  0  0  0  0  0  0  0
   12.5151    1.3364   22.5402 C   0  0  0  0  0  0  0  0  0  0  0  0
   13.6903    1.9331   22.7908 N   0  0  0  0  0  0  0  0  0  0  0  0
   13.8282    3.2625   22.8146 N   0  0  0  0  0  0  0  0  0  0  0  0
   12.7713    4.0464   22.5932 C   0  0  0  0  0  0  0  0  0  0  0  0
   11.4940    3.5129   22.3935 C   0  0  0  0  0  0  0  0  0  0  0  0
   11.3420    2.1203   22.3764 C   0  0  0  0  0  0  0  0  0  0  0  0
   10.0276    1.4381   22.2487 C   0  0  0  0  0  0  0  0  0  0  0  0
    9.6843    0.4131   21.4757 N   0  0  0  0  0  0  0  0  0  0  0  0
    8.3430    0.3003   21.6814 C   0  0  0  0  0  0  0  0  0  0  0  0
    7.4332   -0.6623   20.9491 C   0  0  0  0  0  0  0  0  0  0  0  0
    6.6483   -0.0310   19.8031 C   0  0  0  0  0  0  0  0  0  0  0  0
    5.4445    0.6371   20.0589 C   0  0  0  0  0  0  0  0  0  0  0  0
    4.8117    1.3215   19.0194 C   0  0  0  0  0  0  0  0  0  0  0  0
    5.4086    1.3007   17.7567 C   0  0  0  0  0  0  0  0  0  0  0  0
    6.5369    0.6281   17.4749 N   0  0  0  0  0  0  0  0  0  0  0  0
    7.1252   -0.0288   18.4813 C   0  0  0  0  0  0  0  0  0  0  0  0
    8.0355   -0.5844   18.2363 H   0  0  0  0  0  0  0  0  0  0  0  0
    4.9607    1.8411   16.9262 H   0  0  0  0  0  0  0  0  0  0  0  0
    3.8885    1.8712   19.1774 H   0  0  0  0  0  0  0  0  0  0  0  0
    5.0316    0.6195   21.0687 H   0  0  0  0  0  0  0  0  0  0  0  0
    8.0341   -1.5013   20.5838 H   0  0  0  0  0  0  0  0  0  0  0  0
    6.7278   -1.0528   21.6929 H   0  0  0  0  0  0  0  0  0  0  0  0
    7.8577    1.1514   22.5645 N   0  0  0  0  0  0  0  0  0  0  0  0
    8.9455    1.8586   22.9535 N   0  0  0  0  0  0  0  0  0  0  0  0
    8.8554    2.8896   24.0030 C   0  0  0  0  0  0  0  0  0  0  0  0
    8.0499    4.1472   23.5853 C   0  0  0  0  0  0  0  0  0  0  0  0
    6.7769    4.1979   24.4770 C   0  0  0  0  0  0  0  0  0  0  0  0
    7.0135    3.1351   25.5323 C   0  0  0  0  0  0  0  0  0  0  0  0
    6.2524    2.7983   26.6580 C   0  0  0  0  0  0  0  0  0  0  0  0
    6.6831    1.7595   27.4965 C   0  0  0  0  0  0  0  0  0  0  0  0
    7.8650    1.0592   27.2171 C   0  0  0  0  0  0  0  0  0  0  0  0
    8.6176    1.3883   26.0862 C   0  0  0  0  0  0  0  0  0  0  0  0
    8.1753    2.4165   25.2585 C   0  0  0  0  0  0  0  0  0  0  0  0
    9.5384    0.8654   25.8439 H   0  0  0  0  0  0  0  0  0  0  0  0
    8.2071    0.2676   27.8790 H   0  0  0  0  0  0  0  0  0  0  0  0
    6.0927    1.4865   28.3675 H   0  0  0  0  0  0  0  0  0  0  0  0
    5.3386    3.3416   26.8782 H   0  0  0  0  0  0  0  0  0  0  0  0
    6.6245    5.1888   24.9199 H   0  0  0  0  0  0  0  0  0  0  0  0
    5.8730    3.9715   23.8980 H   0  0  0  0  0  0  0  0  0  0  0  0
    7.8117    4.1045   22.5166 H   0  0  0  0  0  0  0  0  0  0  0  0
    8.6768    5.0292   23.7598 H   0  0  0  0  0  0  0  0  0  0  0  0
    9.8852    3.1399   24.2684 H   0  0  0  0  0  0  0  0  0  0  0  0
   10.6529    4.1855   22.2404 H   0  0  0  0  0  0  0  0  0  0  0  0
   12.9551    5.1168   22.6262 H   0  0  0  0  0  0  0  0  0  0  0  0
   13.5534   -0.5283   22.6822 H   0  0  0  0  0  0  0  0  0  0  0  0
   12.1778   -0.5151   21.5311 H   0  0  0  0  0  0  0  0  0  0  0  0
   11.8534   -0.5798   23.2475 H   0  0  0  0  0  0  0  0  0  0  0  0
  1  2  1  0
  2  3  2  0
  3  4  1  0
  4  5  2  0
  5  6  1  0
  6  7  2  0
  7  8  1  0
  8  9  2  0
  9 10  1  0
 10 11  1  0
 11 12  1  0
 12 13  2  0
 13 14  1  0
 14 15  2  0
 15 16  1  0
 16 17  2  0
 17 18  1  0
 15 19  1  0
 14 20  1  0
 13 21  1  0
 11 22  1  0
 11 23  1  0
 10 24  2  0
 24 25  1  0
 25 26  1  0
 26 27  1  0
 27 28  1  0
 28 29  1  0
 29 30  2  0
 30 31  1  0
 31 32  2  0
 32 33  1  0
 33 34  2  0
 33 35  1  0
 32 36  1  0
 31 37  1  0
 30 38  1  0
 28 39  1  0
 28 40  1  0
 27 41  1  0
 27 42  1  0
 26 43  1  0
  6 44  1  0
  5 45  1  0
  1 46  1  0
  1 47  1  0
  1 48  1  0
  7  2  1  0
 25  8  1  0
 34 26  1  0
 17 12  1  0
 34 29  1  0
M  END
>  <cnnaffinity>  (1) 
-6.36104

>  <filename>  (1) 
Cc1nnccc1-c1nc(Cc2cccnc2)nn1C1CCc2ccccc21

$$$$
