
     RDKit          3D

 46 50  0  0  0  0  0  0  0  0999 V2000
    9.7226    7.9945   26.8445 C   0  0  0  0  0  0  0  0  0  0  0  0
    9.4749    6.6425   26.2691 C   0  0  0  0  0  0  0  0  0  0  0  0
    9.6045    6.3131   25.0137 N   0  0  0  0  0  0  0  0  0  0  0  0
    9.3134    4.9593   24.9557 C   0  0  0  0  0  0  0  0  0  0  0  0
    9.3128    4.0837   23.8583 C   0  0  0  0  0  0  0  0  0  0  0  0
    8.9932    2.7405   24.0728 C   0  0  0  0  0  0  0  0  0  0  0  0
    8.9926    1.7963   22.9988 N   0  0  0  0  0  0  0  0  0  0  0  0
    7.9115    1.0000   22.7742 N   0  0  0  0  0  0  0  0  0  0  0  0
    8.2755    0.3031   21.7215 C   0  0  0  0  0  0  0  0  0  0  0  0
    7.3927   -0.6797   21.0230 C   0  0  0  0  0  0  0  0  0  0  0  0
    6.6273   -0.0304   19.8781 C   0  0  0  0  0  0  0  0  0  0  0  0
    5.4266    0.6434   20.1275 C   0  0  0  0  0  0  0  0  0  0  0  0
    4.7886    1.3148   19.0819 C   0  0  0  0  0  0  0  0  0  0  0  0
    5.3857    1.3020   17.8188 C   0  0  0  0  0  0  0  0  0  0  0  0
    6.5454    0.6788   17.5587 N   0  0  0  0  0  0  0  0  0  0  0  0
    7.1468    0.0446   18.5729 C   0  0  0  0  0  0  0  0  0  0  0  0
    8.1068   -0.4199   18.3382 H   0  0  0  0  0  0  0  0  0  0  0  0
    4.9200    1.8146   16.9773 H   0  0  0  0  0  0  0  0  0  0  0  0
    3.8620    1.8575   19.2331 H   0  0  0  0  0  0  0  0  0  0  0  0
    5.0159    0.6481   21.1381 H   0  0  0  0  0  0  0  0  0  0  0  0
    8.0456   -1.4791   20.6588 H   0  0  0  0  0  0  0  0  0  0  0  0
    6.7104   -1.1083   21.7645 H   0  0  0  0  0  0  0  0  0  0  0  0
    9.5301    0.5521   21.2702 N   0  0  0  0  0  0  0  0  0  0  0  0
    9.9605    1.4951   22.0889 C   0  0  0  0  0  0  0  0  0  0  0  0
   11.3670    2.0095   22.1948 C   0  0  0  0  0  0  0  0  0  0  0  0
   11.9824    1.8952   20.9625 F   0  0  0  0  0  0  0  0  0  0  0  0
   12.1681    1.2467   23.2342 C   0  0  0  0  0  0  0  0  0  0  0  0
   13.4699    1.8139   23.7078 C   0  0  0  0  0  0  0  0  0  0  0  0
   12.2637    1.8086   24.6205 C   0  0  0  0  0  0  0  0  0  0  0  0
   12.2209    1.0836   25.4273 H   0  0  0  0  0  0  0  0  0  0  0  0
   11.7534    2.7571   24.8145 H   0  0  0  0  0  0  0  0  0  0  0  0
   14.2756    1.1070   23.8957 H   0  0  0  0  0  0  0  0  0  0  0  0
   13.8162    2.7594   23.2862 H   0  0  0  0  0  0  0  0  0  0  0  0
   12.0951    0.1586   23.1445 H   0  0  0  0  0  0  0  0  0  0  0  0
   11.3441    3.0755   22.4560 H   0  0  0  0  0  0  0  0  0  0  0  0
    8.6546    2.2788   25.3685 C   0  0  0  0  0  0  0  0  0  0  0  0
    8.6526    3.1388   26.4629 C   0  0  0  0  0  0  0  0  0  0  0  0
    8.9960    4.4775   26.2413 C   0  0  0  0  0  0  0  0  0  0  0  0
    9.1181    5.5800   27.0651 N   0  0  0  0  0  0  0  0  0  0  0  0
    8.9188    5.6246   28.0485 H   0  0  0  0  0  0  0  0  0  0  0  0
    8.3883    2.7733   27.4497 H   0  0  0  0  0  0  0  0  0  0  0  0
    8.3833    1.2342   25.4856 H   0  0  0  0  0  0  0  0  0  0  0  0
    9.5257    4.4800   22.8712 H   0  0  0  0  0  0  0  0  0  0  0  0
   10.7416    8.0689   27.2374 H   0  0  0  0  0  0  0  0  0  0  0  0
    9.6081    8.7464   26.0632 H   0  0  0  0  0  0  0  0  0  0  0  0
    9.0348    8.2272   27.6630 H   0  0  0  0  0  0  0  0  0  0  0  0
  1  2  1  0
  2  3  2  0
  3  4  1  0
  4  5  2  0
  5  6  1  0
  6  7  1  0
  7  8  1  0
  8  9  2  0
  9 10  1  0
 10 11  1  0
 11 12  2  0
 12 13  1  0
 13 14  2  0
 14 15  1  0
 15 16  2  0
 16 17  1  0
 14 18  1  0
 13 19  1  0
 12 20  1  0
 10 21  1  0
 10 22  1  0
  9 23  1  0
 23 24  2  0
 24 25  1  0
 25 26  1  0
 25 27  1  0
 27 28  1  0
 28 29  1  0
 29 30  1  0
 29 31  1  0
 28 32  1  0
 28 33  1  0
 27 34  1  0
 25 35  1  0
  6 36  2  0
 36 37  1  0
 37 38  2  0
 38 39  1  0
 39 40  1  0
 37 41  1  0
 36 42  1  0
  5 43  1  0
  1 44  1  0
  1 45  1  0
  1 46  1  0
 39  2  1  0
 38  4  1  0
 24  7  1  0
 29 27  1  0
 16 11  1  0
M  END
>  <cnnaffinity>  (1) 
-6.16943

>  <filename>  (1) 
Cc1nc2cc(-n3nc(Cc4cccnc4)nc3C(F)C3CC3)ccc2[nH]1

$$$$
