
     RDKit          3D

 33 35  0  0  0  0  0  0  0  0999 V2000
    8.8010   -3.4878   22.4784 C   0  0  0  0  0  0  0  0  0  0  0  0
    8.3195   -2.1468   22.0753 C   0  0  0  0  0  0  0  0  0  0  0  0
    8.4633   -1.1041   22.8436 N   0  0  0  0  0  0  0  0  0  0  0  0
    7.8437   -0.1511   22.1143 N   0  0  0  0  0  0  0  0  0  0  0  0
    7.7685    1.2524   22.5181 C   0  0  0  0  0  0  0  0  0  0  0  0
    6.5418    1.5233   23.3487 C   0  0  0  0  0  0  0  0  0  0  0  0
    5.6641    2.5606   23.0074 C   0  0  0  0  0  0  0  0  0  0  0  0
    4.5381    2.8210   23.8002 C   0  0  0  0  0  0  0  0  0  0  0  0
    4.2808    2.0520   24.9402 C   0  0  0  0  0  0  0  0  0  0  0  0
    2.7409    2.4069   26.0197 Br  0  0  0  0  0  0  0  0  0  0  0  0
    5.1635    1.0260   25.2880 C   0  0  0  0  0  0  0  0  0  0  0  0
    6.2903    0.7646   24.5002 C   0  0  0  0  0  0  0  0  0  0  0  0
    6.9726   -0.0337   24.7754 H   0  0  0  0  0  0  0  0  0  0  0  0
    4.9701    0.4309   26.1742 H   0  0  0  0  0  0  0  0  0  0  0  0
    3.8616    3.6286   23.5395 H   0  0  0  0  0  0  0  0  0  0  0  0
    5.8561    3.1729   22.1285 H   0  0  0  0  0  0  0  0  0  0  0  0
    7.7737    1.8931   21.6339 H   0  0  0  0  0  0  0  0  0  0  0  0
    8.6621    1.4913   23.0971 H   0  0  0  0  0  0  0  0  0  0  0  0
    7.3753   -0.6857   20.9249 C   0  0  0  0  0  0  0  0  0  0  0  0
    6.6448    0.0108   19.8903 C   0  0  0  0  0  0  0  0  0  0  0  0
    5.4424    0.6623   20.1672 C   0  0  0  0  0  0  0  0  0  0  0  0
    4.8263    1.3104   19.1016 C   0  0  0  0  0  0  0  0  0  0  0  0
    5.4093    1.2933   17.8285 C   0  0  0  0  0  0  0  0  0  0  0  0
    6.5677    0.6584   17.5743 N   0  0  0  0  0  0  0  0  0  0  0  0
    7.1702    0.0221   18.5945 C   0  0  0  0  0  0  0  0  0  0  0  0
    8.1252   -0.4598   18.4057 H   0  0  0  0  0  0  0  0  0  0  0  0
    4.8956    1.8036   17.0199 H   0  0  0  0  0  0  0  0  0  0  0  0
    3.8904    1.8283   19.2531 H   0  0  0  0  0  0  0  0  0  0  0  0
    4.9987    0.6569   21.1681 H   0  0  0  0  0  0  0  0  0  0  0  0
    7.6956   -1.9371   20.8543 N   0  0  0  0  0  0  0  0  0  0  0  0
    8.0622   -4.0158   23.0880 H   0  0  0  0  0  0  0  0  0  0  0  0
    9.7387   -3.4084   23.0442 H   0  0  0  0  0  0  0  0  0  0  0  0
    8.9263   -4.0361   21.5544 H   0  0  0  0  0  0  0  0  0  0  0  0
  1  2  1  0
  2  3  2  0
  3  4  1  0
  4  5  1  0
  5  6  1  0
  6  7  2  0
  7  8  1  0
  8  9  2  0
  9 10  1  0
  9 11  1  0
 11 12  2  0
 12 13  1  0
 11 14  1  0
  8 15  1  0
  7 16  1  0
  5 17  1  0
  5 18  1  0
  4 19  1  0
 19 20  1  0
 20 21  2  0
 21 22  1  0
 22 23  2  0
 23 24  1  0
 24 25  2  0
 25 26  1  0
 23 27  1  0
 22 28  1  0
 21 29  1  0
 19 30  2  0
  1 31  1  0
  1 32  1  0
  1 33  1  0
 30  2  1  0
 12  6  1  0
 25 20  1  0
M  END
>  <cnnaffinity>  (1) 
-4.76441

>  <filename>  (1) 
Cc1nc(-c2cccnc2)n(Cc2ccc(Br)cc2)n1

$$$$
