
     RDKit          3D

 50 54  0  0  0  0  0  0  0  0999 V2000
    9.7141    8.0257   26.6396 C   0  0  0  0  0  0  0  0  0  0  0  0
    9.2928    6.6707   26.1897 C   0  0  0  0  0  0  0  0  0  0  0  0
    9.1753    6.2962   24.9452 N   0  0  0  0  0  0  0  0  0  0  0  0
    8.8019    4.9660   24.9979 C   0  0  0  0  0  0  0  0  0  0  0  0
    8.5632    4.0544   23.9594 C   0  0  0  0  0  0  0  0  0  0  0  0
    8.3759    2.7085   24.2869 C   0  0  0  0  0  0  0  0  0  0  0  0
    8.5170    1.6931   23.2874 N   0  0  0  0  0  0  0  0  0  0  0  0
    7.4725    1.0317   22.7397 N   0  0  0  0  0  0  0  0  0  0  0  0
    8.0588    0.1919   21.9081 C   0  0  0  0  0  0  0  0  0  0  0  0
    7.2608   -0.7135   21.0057 C   0  0  0  0  0  0  0  0  0  0  0  0
    6.5505   -0.0363   19.8279 C   0  0  0  0  0  0  0  0  0  0  0  0
    5.3659    0.6860   20.0322 C   0  0  0  0  0  0  0  0  0  0  0  0
    4.7861    1.3634   18.9542 C   0  0  0  0  0  0  0  0  0  0  0  0
    5.4065    1.2901   17.7047 C   0  0  0  0  0  0  0  0  0  0  0  0
    6.5212    0.5806   17.4749 N   0  0  0  0  0  0  0  0  0  0  0  0
    7.0629   -0.0651   18.5164 C   0  0  0  0  0  0  0  0  0  0  0  0
    7.9659   -0.6354   18.2986 H   0  0  0  0  0  0  0  0  0  0  0  0
    4.9949    1.8268   16.8504 H   0  0  0  0  0  0  0  0  0  0  0  0
    3.8771    1.9447   19.0673 H   0  0  0  0  0  0  0  0  0  0  0  0
    4.9137    0.7204   21.0256 H   0  0  0  0  0  0  0  0  0  0  0  0
    6.5137   -1.2003   21.6429 H   0  0  0  0  0  0  0  0  0  0  0  0
    7.9437   -1.4922   20.6561 H   0  0  0  0  0  0  0  0  0  0  0  0
    9.4181    0.2220   21.9285 N   0  0  0  0  0  0  0  0  0  0  0  0
    9.6823    1.1876   22.7920 C   0  0  0  0  0  0  0  0  0  0  0  0
   11.0028    1.8561   23.0614 C   0  0  0  0  0  0  0  0  0  0  0  0
   12.2199    0.9674   22.7631 C   0  0  0  0  0  0  0  0  0  0  0  0
   13.5038    1.7313   23.1032 C   0  0  0  0  0  0  0  0  0  0  0  0
   13.4782    3.1035   22.7126 O   0  0  0  0  0  0  0  0  0  0  0  0
   12.5088    3.4845   21.7559 C   0  0  0  0  0  0  0  0  0  0  0  0
   11.0883    3.1830   22.2407 C   0  0  0  0  0  0  0  0  0  0  0  0
   10.4298    3.0717   21.3733 H   0  0  0  0  0  0  0  0  0  0  0  0
   10.7347    4.0247   22.8434 H   0  0  0  0  0  0  0  0  0  0  0  0
   12.6505    4.5554   21.5853 H   0  0  0  0  0  0  0  0  0  0  0  0
   12.6751    2.9808   20.7937 H   0  0  0  0  0  0  0  0  0  0  0  0
   13.6508    1.7438   24.1891 H   0  0  0  0  0  0  0  0  0  0  0  0
   14.3924    1.2453   22.6689 H   0  0  0  0  0  0  0  0  0  0  0  0
   12.1759    0.0335   23.3286 H   0  0  0  0  0  0  0  0  0  0  0  0
   12.2201    0.6924   21.7049 H   0  0  0  0  0  0  0  0  0  0  0  0
   11.0280    2.1012   24.1283 H   0  0  0  0  0  0  0  0  0  0  0  0
    8.1799    2.3106   25.6297 C   0  0  0  0  0  0  0  0  0  0  0  0
    8.3429    3.2245   26.6717 C   0  0  0  0  0  0  0  0  0  0  0  0
    8.6939    4.5380   26.3343 C   0  0  0  0  0  0  0  0  0  0  0  0
    9.0217    5.6578   27.0794 N   0  0  0  0  0  0  0  0  0  0  0  0
    8.8933    5.7746   28.0668 H   0  0  0  0  0  0  0  0  0  0  0  0
    8.2099    2.9115   27.7031 H   0  0  0  0  0  0  0  0  0  0  0  0
    7.9101    1.2792   25.8405 H   0  0  0  0  0  0  0  0  0  0  0  0
    8.5597    4.4089   22.9356 H   0  0  0  0  0  0  0  0  0  0  0  0
    9.7907    8.6915   25.7756 H   0  0  0  0  0  0  0  0  0  0  0  0
   10.6909    7.9761   27.1327 H   0  0  0  0  0  0  0  0  0  0  0  0
    8.9920    8.4460   27.3465 H   0  0  0  0  0  0  0  0  0  0  0  0
  1  2  1  0
  2  3  2  0
  3  4  1  0
  4  5  2  0
  5  6  1  0
  6  7  1  0
  7  8  1  0
  8  9  2  0
  9 10  1  0
 10 11  1  0
 11 12  2  0
 12 13  1  0
 13 14  2  0
 14 15  1  0
 15 16  2  0
 16 17  1  0
 14 18  1  0
 13 19  1  0
 12 20  1  0
 10 21  1  0
 10 22  1  0
  9 23  1  0
 23 24  2  0
 24 25  1  0
 25 26  1  0
 26 27  1  0
 27 28  1  0
 28 29  1  0
 29 30  1  0
 30 31  1  0
 30 32  1  0
 29 33  1  0
 29 34  1  0
 27 35  1  0
 27 36  1  0
 26 37  1  0
 26 38  1  0
 25 39  1  0
  6 40  2  0
 40 41  1  0
 41 42  2  0
 42 43  1  0
 43 44  1  0
 41 45  1  0
 40 46  1  0
  5 47  1  0
  1 48  1  0
  1 49  1  0
  1 50  1  0
 43  2  1  0
 42  4  1  0
 24  7  1  0
 30 25  1  0
 16 11  1  0
M  END
>  <cnnaffinity>  (1) 
-6.11631

>  <filename>  (1) 
Cc1nc2cc(-n3nc(Cc4cccnc4)nc3C3CCOCC3)ccc2[nH]1

$$$$
