
     RDKit          3D

 50 54  0  0  0  0  0  0  0  0999 V2000
    7.8137    5.8356   29.1782 C   0  0  0  0  0  0  0  0  0  0  0  0
    8.0602    5.2831   27.8138 C   0  0  0  0  0  0  0  0  0  0  0  0
    7.8118    4.0534   27.4639 N   0  0  0  0  0  0  0  0  0  0  0  0
    8.1942    3.9572   26.1370 C   0  0  0  0  0  0  0  0  0  0  0  0
    8.1341    2.8610   25.2604 C   0  0  0  0  0  0  0  0  0  0  0  0
    8.5892    3.0360   23.9576 C   0  0  0  0  0  0  0  0  0  0  0  0
    8.6798    1.9126   23.0789 N   0  0  0  0  0  0  0  0  0  0  0  0
    7.6128    1.1172   22.7644 N   0  0  0  0  0  0  0  0  0  0  0  0
    8.0713    0.4116   21.7515 C   0  0  0  0  0  0  0  0  0  0  0  0
    7.2950   -0.6250   20.9976 C   0  0  0  0  0  0  0  0  0  0  0  0
    6.5566   -0.0299   19.8080 C   0  0  0  0  0  0  0  0  0  0  0  0
    5.3630    0.6693   20.0248 C   0  0  0  0  0  0  0  0  0  0  0  0
    4.7700    1.3415   18.9557 C   0  0  0  0  0  0  0  0  0  0  0  0
    5.3926    1.2933   17.7057 C   0  0  0  0  0  0  0  0  0  0  0  0
    6.5216    0.6081   17.4656 N   0  0  0  0  0  0  0  0  0  0  0  0
    7.0763   -0.0355   18.5008 C   0  0  0  0  0  0  0  0  0  0  0  0
    7.9918   -0.5865   18.2787 H   0  0  0  0  0  0  0  0  0  0  0  0
    4.9680    1.8273   16.8586 H   0  0  0  0  0  0  0  0  0  0  0  0
    3.8568    1.9123   19.0821 H   0  0  0  0  0  0  0  0  0  0  0  0
    4.9230    0.6900   21.0237 H   0  0  0  0  0  0  0  0  0  0  0  0
    8.0149   -1.3836   20.6731 H   0  0  0  0  0  0  0  0  0  0  0  0
    6.6001   -1.0995   21.6986 H   0  0  0  0  0  0  0  0  0  0  0  0
    9.3469    0.6907   21.3878 N   0  0  0  0  0  0  0  0  0  0  0  0
    9.7365    1.5672   22.2932 C   0  0  0  0  0  0  0  0  0  0  0  0
   11.1272    2.0647   22.4719 C   0  0  1  0  0  0  0  0  0  0  0  0
   11.6545    2.4032   23.8790 C   0  0  0  0  0  0  0  0  0  0  0  0
   13.1509    2.4060   23.5908 C   0  0  0  0  0  0  0  0  0  0  0  0
   13.3687    1.3456   22.6883 O   0  0  0  0  0  0  0  0  0  0  0  0
   12.2066    1.0972   21.9134 C   0  0  1  0  0  0  0  0  0  0  0  0
   11.9631   -0.4077   21.9861 C   0  0  0  0  0  0  0  0  0  0  0  0
   12.9200   -0.9204   21.8703 H   0  0  0  0  0  0  0  0  0  0  0  0
   11.2648   -0.7541   21.2218 H   0  0  0  0  0  0  0  0  0  0  0  0
   11.5586   -0.6787   22.9694 H   0  0  0  0  0  0  0  0  0  0  0  0
   12.3872    1.4386   20.8879 H   0  0  0  0  0  0  0  0  0  0  0  0
   13.7768    2.1859   24.4460 H   0  0  0  0  0  0  0  0  0  0  0  0
   13.4612    3.3687   23.1455 H   0  0  0  0  0  0  0  0  0  0  0  0
   11.2915    3.3603   24.2699 H   0  0  0  0  0  0  0  0  0  0  0  0
   11.3792    1.6158   24.5900 H   0  0  0  0  0  0  0  0  0  0  0  0
   11.1879    2.9776   21.8614 H   0  0  0  0  0  0  0  0  0  0  0  0
    9.0396    4.3106   23.5058 C   0  0  0  0  0  0  0  0  0  0  0  0
    9.0898    5.4035   24.3618 C   0  0  0  0  0  0  0  0  0  0  0  0
    8.6819    5.2044   25.6837 C   0  0  0  0  0  0  0  0  0  0  0  0
    8.6072    6.0276   26.7948 N   0  0  0  0  0  0  0  0  0  0  0  0
    8.8735    6.9913   26.8377 H   0  0  0  0  0  0  0  0  0  0  0  0
    9.4252    6.3718   23.9984 H   0  0  0  0  0  0  0  0  0  0  0  0
    9.3499    4.4269   22.4702 H   0  0  0  0  0  0  0  0  0  0  0  0
    7.7329    1.9093   25.5833 H   0  0  0  0  0  0  0  0  0  0  0  0
    7.1151    6.6779   29.1471 H   0  0  0  0  0  0  0  0  0  0  0  0
    8.7476    6.1734   29.6409 H   0  0  0  0  0  0  0  0  0  0  0  0
    7.3787    5.0480   29.7999 H   0  0  0  0  0  0  0  0  0  0  0  0
  1  2  1  0
  2  3  2  0
  3  4  1  0
  4  5  2  0
  5  6  1  0
  6  7  1  0
  7  8  1  0
  8  9  2  0
  9 10  1  0
 10 11  1  0
 11 12  2  0
 12 13  1  0
 13 14  2  0
 14 15  1  0
 15 16  2  0
 16 17  1  0
 14 18  1  0
 13 19  1  0
 12 20  1  0
 10 21  1  0
 10 22  1  0
  9 23  1  0
 23 24  2  0
 24 25  1  0
 25 26  1  0
 26 27  1  0
 27 28  1  0
 28 29  1  0
 29 30  1  0
 30 31  1  0
 30 32  1  0
 30 33  1  0
 29 34  1  6
 27 35  1  0
 27 36  1  0
 26 37  1  0
 26 38  1  0
 25 39  1  6
  6 40  2  0
 40 41  1  0
 41 42  2  0
 42 43  1  0
 43 44  1  0
 41 45  1  0
 40 46  1  0
  5 47  1  0
  1 48  1  0
  1 49  1  0
  1 50  1  0
 43  2  1  0
 42  4  1  0
 24  7  1  0
 29 25  1  0
 16 11  1  0
M  END
>  <cnnaffinity>  (1) 
-6.00994

>  <filename>  (1) 
Cc1nc2cc(-n3nc(Cc4cccnc4)nc3[C@H]3CCO[C@H]3C)ccc2[nH]1

$$$$
