
     RDKit          3D

 27 29  0  0  0  0  0  0  0  0999 V2000
    4.9455    1.8030   16.9440 H   0  0  0  0  0  0  0  0  0  0  0  0
    5.3905    1.3032   17.7996 C   0  0  0  0  0  0  0  0  0  0  0  0
    6.5591    0.6799   17.5783 N   0  0  0  0  0  0  0  0  0  0  0  0
    7.1439    0.0836   18.6255 C   0  0  0  0  0  0  0  0  0  0  0  0
    8.0958   -0.4052   18.4108 H   0  0  0  0  0  0  0  0  0  0  0  0
    6.6125    0.0808   19.9335 C   0  0  0  0  0  0  0  0  0  0  0  0
    7.2968   -0.6545   21.0145 C   0  0  0  0  0  0  0  0  0  0  0  0
    7.5826   -1.9953   21.0224 C   0  0  0  0  0  0  0  0  0  0  0  0
    7.2786   -2.6884   20.2552 H   0  0  0  0  0  0  0  0  0  0  0  0
    8.2442   -2.2346   22.2435 C   0  0  0  0  0  0  0  0  0  0  0  0
    8.6653   -3.1474   22.6487 H   0  0  0  0  0  0  0  0  0  0  0  0
    8.3357   -1.1388   22.9688 N   0  0  0  0  0  0  0  0  0  0  0  0
    7.7483   -0.1619   22.2243 N   0  0  0  0  0  0  0  0  0  0  0  0
    7.5548    1.1224   22.7791 C   0  0  0  0  0  0  0  0  0  0  0  0
    7.4188    2.2255   21.9651 N   0  0  0  0  0  0  0  0  0  0  0  0
    7.2260    3.2867   22.6811 C   0  0  0  0  0  0  0  0  0  0  0  0
    6.9736    4.6608   22.1474 C   0  0  0  0  0  0  0  0  0  0  0  0
    7.3151    5.4018   22.8684 H   0  0  0  0  0  0  0  0  0  0  0  0
    5.8989    4.8028   21.9874 H   0  0  0  0  0  0  0  0  0  0  0  0
    7.4796    4.8295   21.1993 H   0  0  0  0  0  0  0  0  0  0  0  0
    7.1855    3.0171   24.4043 S   0  0  0  0  0  0  0  0  0  0  0  0
    7.4644    1.3595   24.1214 C   0  0  0  0  0  0  0  0  0  0  0  0
    7.5461    0.6342   24.9152 H   0  0  0  0  0  0  0  0  0  0  0  0
    5.3632    0.6951   20.1218 C   0  0  0  0  0  0  0  0  0  0  0  0
    4.9137    0.7005   21.1164 H   0  0  0  0  0  0  0  0  0  0  0  0
    4.7498    1.3256   19.0415 C   0  0  0  0  0  0  0  0  0  0  0  0
    3.7971    1.8312   19.1527 H   0  0  0  0  0  0  0  0  0  0  0  0
  1  2  1  0
  2  3  2  0
  3  4  1  0
  4  5  1  0
  4  6  2  0
  6  7  1  0
  7  8  2  0
  8  9  1  0
  8 10  1  0
 10 11  1  0
 10 12  2  0
 12 13  1  0
 13 14  1  0
 14 15  1  0
 15 16  2  0
 16 17  1  0
 17 18  1  0
 17 19  1  0
 17 20  1  0
 16 21  1  0
 21 22  1  0
 22 23  1  0
  6 24  1  0
 24 25  1  0
 24 26  2  0
 26 27  1  0
 26  2  1  0
 13  7  1  0
 22 14  2  0
M  END
>  <cnnaffinity>  (1) 
-4.6762

>  <filename>  (1) 
Cc1nc(-n2nccc2-c2cccnc2)cs1

$$$$
