
     RDKit          3D

 50 54  0  0  0  0  0  0  0  0999 V2000
    9.5378    7.8514   26.9034 C   0  0  0  0  0  0  0  0  0  0  0  0
    9.3934    6.4856   26.3242 C   0  0  0  0  0  0  0  0  0  0  0  0
    9.6278    6.1648   25.0811 N   0  0  0  0  0  0  0  0  0  0  0  0
    9.3104    4.8199   24.9834 C   0  0  0  0  0  0  0  0  0  0  0  0
    9.3229    3.9617   23.8731 C   0  0  0  0  0  0  0  0  0  0  0  0
    8.9579    2.6242   24.0581 C   0  0  0  0  0  0  0  0  0  0  0  0
    8.9558    1.7126   22.9603 N   0  0  0  0  0  0  0  0  0  0  0  0
    7.8972    0.8765   22.7570 N   0  0  0  0  0  0  0  0  0  0  0  0
    8.1715    0.3278   21.5963 C   0  0  0  0  0  0  0  0  0  0  0  0
    7.2885   -0.6789   20.9203 C   0  0  0  0  0  0  0  0  0  0  0  0
    6.5200   -0.0756   19.7552 C   0  0  0  0  0  0  0  0  0  0  0  0
    5.3389    0.6384   19.9851 C   0  0  0  0  0  0  0  0  0  0  0  0
    4.7634    1.3460   18.9279 C   0  0  0  0  0  0  0  0  0  0  0  0
    5.3832    1.3114   17.6756 C   0  0  0  0  0  0  0  0  0  0  0  0
    6.4980    0.6107   17.4242 N   0  0  0  0  0  0  0  0  0  0  0  0
    7.0387   -0.0621   18.4475 C   0  0  0  0  0  0  0  0  0  0  0  0
    7.9517   -0.6115   18.2192 H   0  0  0  0  0  0  0  0  0  0  0  0
    4.9697    1.8687   16.8364 H   0  0  0  0  0  0  0  0  0  0  0  0
    3.8681    1.9390   19.0638 H   0  0  0  0  0  0  0  0  0  0  0  0
    4.8932    0.6507   20.9834 H   0  0  0  0  0  0  0  0  0  0  0  0
    7.9325   -1.4970   20.5853 H   0  0  0  0  0  0  0  0  0  0  0  0
    6.6106   -1.0844   21.6763 H   0  0  0  0  0  0  0  0  0  0  0  0
    9.3369    0.7416   21.0288 N   0  0  0  0  0  0  0  0  0  0  0  0
    9.8225    1.5879   21.9162 C   0  0  0  0  0  0  0  0  0  0  0  0
   11.2344    2.0914   21.9077 C   0  0  0  0  0  0  0  0  0  0  0  0
   12.0771    1.5003   23.0477 C   0  0  0  0  0  0  0  0  0  0  0  0
   12.0433   -0.0248   23.1513 C   0  0  0  0  0  0  0  0  0  0  0  0
   10.8908   -0.5327   23.8004 O   0  0  0  0  0  0  0  0  0  0  0  0
   10.5115    0.1732   24.3479 H   0  0  0  0  0  0  0  0  0  0  0  0
   12.0485   -0.4441   22.1370 H   0  0  0  0  0  0  0  0  0  0  0  0
   12.9599   -0.3838   23.6441 H   0  0  0  0  0  0  0  0  0  0  0  0
   13.3493    2.2074   23.4210 C   0  0  0  0  0  0  0  0  0  0  0  0
   12.1499    2.2906   24.3186 C   0  0  0  0  0  0  0  0  0  0  0  0
   11.6005    3.2251   24.3483 H   0  0  0  0  0  0  0  0  0  0  0  0
   12.1534    1.7384   25.2538 H   0  0  0  0  0  0  0  0  0  0  0  0
   14.1823    1.5907   23.7419 H   0  0  0  0  0  0  0  0  0  0  0  0
   13.6551    3.0805   22.8517 H   0  0  0  0  0  0  0  0  0  0  0  0
   11.2390    3.1842   21.9443 H   0  0  0  0  0  0  0  0  0  0  0  0
   11.6476    1.8026   20.9358 H   0  0  0  0  0  0  0  0  0  0  0  0
    8.5935    2.1389   25.3393 C   0  0  0  0  0  0  0  0  0  0  0  0
    8.5563    2.9893   26.4423 C   0  0  0  0  0  0  0  0  0  0  0  0
    8.9020    4.3294   26.2385 C   0  0  0  0  0  0  0  0  0  0  0  0
    8.9671    5.4227   27.0832 N   0  0  0  0  0  0  0  0  0  0  0  0
    8.5358    5.4808   27.9876 H   0  0  0  0  0  0  0  0  0  0  0  0
    8.2724    2.6226   27.4259 H   0  0  0  0  0  0  0  0  0  0  0  0
    8.3147    1.0914   25.4454 H   0  0  0  0  0  0  0  0  0  0  0  0
    9.6232    4.3505   22.9073 H   0  0  0  0  0  0  0  0  0  0  0  0
   10.0694    8.4824   26.1890 H   0  0  0  0  0  0  0  0  0  0  0  0
    8.5518    8.2951   27.0812 H   0  0  0  0  0  0  0  0  0  0  0  0
   10.0879    7.8308   27.8498 H   0  0  0  0  0  0  0  0  0  0  0  0
  1  2  1  0
  2  3  2  0
  3  4  1  0
  4  5  2  0
  5  6  1  0
  6  7  1  0
  7  8  1  0
  8  9  2  0
  9 10  1  0
 10 11  1  0
 11 12  2  0
 12 13  1  0
 13 14  2  0
 14 15  1  0
 15 16  2  0
 16 17  1  0
 14 18  1  0
 13 19  1  0
 12 20  1  0
 10 21  1  0
 10 22  1  0
  9 23  1  0
 23 24  2  0
 24 25  1  0
 25 26  1  0
 26 27  1  0
 27 28  1  0
 28 29  1  0
 27 30  1  0
 27 31  1  0
 26 32  1  0
 32 33  1  0
 33 34  1  0
 33 35  1  0
 32 36  1  0
 32 37  1  0
 25 38  1  0
 25 39  1  0
  6 40  2  0
 40 41  1  0
 41 42  2  0
 42 43  1  0
 43 44  1  0
 41 45  1  0
 40 46  1  0
  5 47  1  0
  1 48  1  0
  1 49  1  0
  1 50  1  0
 43  2  1  0
 42  4  1  0
 24  7  1  0
 33 26  1  0
 16 11  1  0
M  END
>  <cnnaffinity>  (1) 
-5.82058

>  <filename>  (1) 
Cc1nc2cc(-n3nc(Cc4cccnc4)nc3CC3(CO)CC3)ccc2[nH]1

$$$$
