
     RDKit          3D

 33 35  0  0  0  0  0  0  0  0999 V2000
   11.9192    0.6201   21.9383 C   0  0  0  0  0  0  0  0  0  0  0  0
   10.4347    0.6337   21.8998 C   0  0  0  0  0  0  0  0  0  0  0  0
    9.6900   -0.3499   21.4260 N   0  0  0  0  0  0  0  0  0  0  0  0
    8.4281    0.1129   21.5929 N   0  0  0  0  0  0  0  0  0  0  0  0
    7.2885   -0.6457   21.0730 C   0  0  0  0  0  0  0  0  0  0  0  0
    6.5581    0.0547   19.9417 C   0  0  0  0  0  0  0  0  0  0  0  0
    5.3473    0.7323   20.1210 C   0  0  0  0  0  0  0  0  0  0  0  0
    4.7663    1.3769   19.0258 C   0  0  0  0  0  0  0  0  0  0  0  0
    5.4169    1.3153   17.7902 C   0  0  0  0  0  0  0  0  0  0  0  0
    6.5741    0.6641   17.5948 N   0  0  0  0  0  0  0  0  0  0  0  0
    7.1193    0.0572   18.6545 C   0  0  0  0  0  0  0  0  0  0  0  0
    8.0459   -0.4871   18.4684 H   0  0  0  0  0  0  0  0  0  0  0  0
    4.9892    1.8090   16.9190 H   0  0  0  0  0  0  0  0  0  0  0  0
    3.8340    1.9247   19.1158 H   0  0  0  0  0  0  0  0  0  0  0  0
    4.8787    0.7569   21.1053 H   0  0  0  0  0  0  0  0  0  0  0  0
    6.6012   -0.8427   21.9045 H   0  0  0  0  0  0  0  0  0  0  0  0
    7.7012   -1.6045   20.7346 H   0  0  0  0  0  0  0  0  0  0  0  0
    8.4838    1.3587   22.1355 C   0  0  0  0  0  0  0  0  0  0  0  0
    7.3165    2.1878   22.5204 C   0  0  0  0  0  0  0  0  0  0  0  0
    6.2328    1.7155   23.2952 C   0  0  0  0  0  0  0  0  0  0  0  0
    5.1594    2.5576   23.6083 C   0  0  0  0  0  0  0  0  0  0  0  0
    5.1585    3.9002   23.1963 C   0  0  0  0  0  0  0  0  0  0  0  0
    6.2485    4.3861   22.4721 C   0  0  0  0  0  0  0  0  0  0  0  0
    6.3079    6.0606   22.0290 Cl  0  0  0  0  0  0  0  0  0  0  0  0
    7.3244    3.5473   22.1581 C   0  0  0  0  0  0  0  0  0  0  0  0
    8.3736    4.0786   21.5416 F   0  0  0  0  0  0  0  0  0  0  0  0
    4.3555    4.5921   23.4510 H   0  0  0  0  0  0  0  0  0  0  0  0
    4.3406    2.1825   24.2151 H   0  0  0  0  0  0  0  0  0  0  0  0
    6.2515    0.6947   23.6815 H   0  0  0  0  0  0  0  0  0  0  0  0
    9.7379    1.7098   22.3326 N   0  0  0  0  0  0  0  0  0  0  0  0
   12.2713    0.8472   22.9480 H   0  0  0  0  0  0  0  0  0  0  0  0
   12.2990    1.4081   21.2804 H   0  0  0  0  0  0  0  0  0  0  0  0
   12.3030   -0.3454   21.6135 H   0  0  0  0  0  0  0  0  0  0  0  0
  1  2  1  0
  2  3  2  0
  3  4  1  0
  4  5  1  0
  5  6  1  0
  6  7  2  0
  7  8  1  0
  8  9  2  0
  9 10  1  0
 10 11  2  0
 11 12  1  0
  9 13  1  0
  8 14  1  0
  7 15  1  0
  5 16  1  0
  5 17  1  0
  4 18  1  0
 18 19  1  0
 19 20  2  0
 20 21  1  0
 21 22  2  0
 22 23  1  0
 23 24  1  0
 23 25  2  0
 25 26  1  0
 22 27  1  0
 21 28  1  0
 20 29  1  0
 18 30  2  0
  1 31  1  0
  1 32  1  0
  1 33  1  0
 30  2  1  0
 11  6  1  0
 25 19  1  0
M  END
>  <cnnaffinity>  (1) 
-5.10306

>  <filename>  (1) 
Cc1nc(-c2cccc(Cl)c2F)n(Cc2cccnc2)n1

$$$$
