
     RDKit          3D

 53 57  0  0  0  0  0  0  0  0999 V2000
    9.5364    8.0102   26.9179 C   0  0  0  0  0  0  0  0  0  0  0  0
    9.3096    6.6613   26.3319 C   0  0  0  0  0  0  0  0  0  0  0  0
    9.4431    6.3680   25.0736 N   0  0  0  0  0  0  0  0  0  0  0  0
    9.1146    5.0290   24.9833 C   0  0  0  0  0  0  0  0  0  0  0  0
    9.0586    4.2212   23.8505 C   0  0  0  0  0  0  0  0  0  0  0  0
    8.7388    2.8704   24.0009 C   0  0  0  0  0  0  0  0  0  0  0  0
    8.7836    1.9995   22.8789 N   0  0  0  0  0  0  0  0  0  0  0  0
    7.8751    1.0027   22.6670 N   0  0  0  0  0  0  0  0  0  0  0  0
    8.3069    0.4442   21.5555 C   0  0  0  0  0  0  0  0  0  0  0  0
    7.5754   -0.6523   20.8399 C   0  0  0  0  0  0  0  0  0  0  0  0
    6.7450   -0.1017   19.6899 C   0  0  0  0  0  0  0  0  0  0  0  0
    5.5796    0.6246   19.9650 C   0  0  0  0  0  0  0  0  0  0  0  0
    4.9406    1.2973   18.9237 C   0  0  0  0  0  0  0  0  0  0  0  0
    5.4818    1.2090   17.6361 C   0  0  0  0  0  0  0  0  0  0  0  0
    6.5654    0.4759   17.3398 N   0  0  0  0  0  0  0  0  0  0  0  0
    7.1675   -0.1624   18.3507 C   0  0  0  0  0  0  0  0  0  0  0  0
    8.0468   -0.7516   18.0883 H   0  0  0  0  0  0  0  0  0  0  0  0
    5.0277    1.7458   16.8064 H   0  0  0  0  0  0  0  0  0  0  0  0
    4.0610    1.9069   19.0979 H   0  0  0  0  0  0  0  0  0  0  0  0
    5.1963    0.6688   20.9876 H   0  0  0  0  0  0  0  0  0  0  0  0
    8.3213   -1.3699   20.4846 H   0  0  0  0  0  0  0  0  0  0  0  0
    6.9351   -1.1484   21.5760 H   0  0  0  0  0  0  0  0  0  0  0  0
    9.4631    0.9691   21.0605 N   0  0  0  0  0  0  0  0  0  0  0  0
    9.7326    1.9453   21.9074 C   0  0  0  0  0  0  0  0  0  0  0  0
   11.0079    2.6938   21.9379 C   0  0  0  0  0  0  0  0  0  0  0  0
   12.1074    1.9026   22.6651 C   0  0  0  0  0  0  0  0  0  0  0  0
   13.3469    2.7854   22.7345 C   0  0  0  0  0  0  0  0  0  0  0  0
   14.2446    2.1862   22.8927 H   0  0  0  0  0  0  0  0  0  0  0  0
   13.4629    3.3698   21.8180 H   0  0  0  0  0  0  0  0  0  0  0  0
   13.2561    3.5203   23.5407 H   0  0  0  0  0  0  0  0  0  0  0  0
   12.3947    0.7731   21.8703 O   0  0  0  0  0  0  0  0  0  0  0  0
   11.5405    0.4179   21.5676 H   0  0  0  0  0  0  0  0  0  0  0  0
   11.7167    1.4897   24.0923 C   0  0  0  0  0  0  0  0  0  0  0  0
   12.4836    0.3538   24.7079 C   0  0  0  0  0  0  0  0  0  0  0  0
   11.0012    0.2268   24.5093 C   0  0  0  0  0  0  0  0  0  0  0  0
   10.6704   -0.4585   23.7328 H   0  0  0  0  0  0  0  0  0  0  0  0
   10.3540    0.2627   25.3871 H   0  0  0  0  0  0  0  0  0  0  0  0
   12.9480    0.4411   25.6799 H   0  0  0  0  0  0  0  0  0  0  0  0
   13.0821   -0.1776   23.9741 H   0  0  0  0  0  0  0  0  0  0  0  0
   11.4476    2.3640   24.6867 H   0  0  0  0  0  0  0  0  0  0  0  0
   11.3255    2.8446   20.9029 H   0  0  0  0  0  0  0  0  0  0  0  0
   10.9196    3.6673   22.4014 H   0  0  0  0  0  0  0  0  0  0  0  0
    8.4051    2.3552   25.2777 C   0  0  0  0  0  0  0  0  0  0  0  0
    8.4311    3.1609   26.4157 C   0  0  0  0  0  0  0  0  0  0  0  0
    8.7929    4.5046   26.2487 C   0  0  0  0  0  0  0  0  0  0  0  0
    8.9376    5.5854   27.1036 N   0  0  0  0  0  0  0  0  0  0  0  0
    8.5826    5.6566   28.0402 H   0  0  0  0  0  0  0  0  0  0  0  0
    8.1758    2.7460   27.3867 H   0  0  0  0  0  0  0  0  0  0  0  0
    8.1285    1.3068   25.3483 H   0  0  0  0  0  0  0  0  0  0  0  0
    9.2424    4.6795   22.8904 H   0  0  0  0  0  0  0  0  0  0  0  0
    9.6676    8.7305   26.1088 H   0  0  0  0  0  0  0  0  0  0  0  0
    8.6831    8.3164   27.5287 H   0  0  0  0  0  0  0  0  0  0  0  0
   10.4332    8.0223   27.5433 H   0  0  0  0  0  0  0  0  0  0  0  0
  1  2  1  0
  2  3  2  0
  3  4  1  0
  4  5  2  0
  5  6  1  0
  6  7  1  0
  7  8  1  0
  8  9  2  0
  9 10  1  0
 10 11  1  0
 11 12  2  0
 12 13  1  0
 13 14  2  0
 14 15  1  0
 15 16  2  0
 16 17  1  0
 14 18  1  0
 13 19  1  0
 12 20  1  0
 10 21  1  0
 10 22  1  0
  9 23  1  0
 23 24  2  0
 24 25  1  0
 25 26  1  0
 26 27  1  0
 27 28  1  0
 27 29  1  0
 27 30  1  0
 26 31  1  0
 31 32  1  0
 26 33  1  0
 33 34  1  0
 34 35  1  0
 35 36  1  0
 35 37  1  0
 34 38  1  0
 34 39  1  0
 33 40  1  0
 25 41  1  0
 25 42  1  0
  6 43  2  0
 43 44  1  0
 44 45  2  0
 45 46  1  0
 46 47  1  0
 44 48  1  0
 43 49  1  0
  5 50  1  0
  1 51  1  0
  1 52  1  0
  1 53  1  0
 46  2  1  0
 45  4  1  0
 24  7  1  0
 35 33  1  0
 16 11  1  0
M  END
>  <cnnaffinity>  (1) 
-6.04447

>  <filename>  (1) 
Cc1nc2cc(-n3nc(Cc4cccnc4)nc3CC(C)(O)C3CC3)ccc2[nH]1

$$$$
