
     RDKit          3D

 34 35  0  0  0  0  0  0  0  0999 V2000
    5.6138   -4.3446   26.6715 H   0  0  0  0  0  0  0  0  0  0  0  0
    6.5756   -4.5010   26.6300 O   0  0  0  0  0  0  0  0  0  0  0  0
    6.7851   -3.9426   25.4281 C   0  0  0  0  0  0  0  0  0  0  0  0
    5.8371   -3.4909   24.8252 O   0  0  0  0  0  0  0  0  0  0  0  0
    8.1925   -3.9094   24.9714 C   0  0  0  0  0  0  0  0  0  0  0  0
    8.6929   -3.3019   23.8284 C   0  0  0  0  0  0  0  0  0  0  0  0
    7.9946   -2.5960   22.7221 C   0  0  0  0  0  0  0  0  0  0  0  0
    6.9534   -2.9461   22.6440 H   0  0  0  0  0  0  0  0  0  0  0  0
    8.4704   -2.8149   21.7546 H   0  0  0  0  0  0  0  0  0  0  0  0
    8.0997   -1.1456   22.9366 N   0  0  0  0  0  0  0  0  0  0  0  0
    7.6455   -0.8003   23.7682 H   0  0  0  0  0  0  0  0  0  0  0  0
    7.5682   -0.3282   21.9841 C   0  0  0  0  0  0  0  0  0  0  0  0
    7.3975   -0.7058   20.7924 N   0  0  0  0  0  0  0  0  0  0  0  0
    6.7024    0.0389   19.8302 C   0  0  0  0  0  0  0  0  0  0  0  0
    7.2060    0.0768   18.5065 C   0  0  0  0  0  0  0  0  0  0  0  0
    8.1348   -0.4535   18.2955 H   0  0  0  0  0  0  0  0  0  0  0  0
    6.6153    0.7227   17.4954 N   0  0  0  0  0  0  0  0  0  0  0  0
    5.4539    1.3526   17.7602 C   0  0  0  0  0  0  0  0  0  0  0  0
    4.9962    1.8814   16.9298 H   0  0  0  0  0  0  0  0  0  0  0  0
    4.8405    1.3346   19.0149 C   0  0  0  0  0  0  0  0  0  0  0  0
    3.9104    1.8650   19.1774 H   0  0  0  0  0  0  0  0  0  0  0  0
    5.4663    0.6552   20.0677 C   0  0  0  0  0  0  0  0  0  0  0  0
    5.0222    0.5820   21.0605 H   0  0  0  0  0  0  0  0  0  0  0  0
    7.3102    0.8765   22.6080 N   0  0  0  0  0  0  0  0  0  0  0  0
    7.1478    1.5867   21.9100 H   0  0  0  0  0  0  0  0  0  0  0  0
    8.1673    1.0634   23.1067 H   0  0  0  0  0  0  0  0  0  0  0  0
   10.0911   -3.3497   23.9622 C   0  0  0  0  0  0  0  0  0  0  0  0
   11.0838   -2.7520   23.0258 C   0  0  0  0  0  0  0  0  0  0  0  0
   10.7556   -2.8499   21.9926 H   0  0  0  0  0  0  0  0  0  0  0  0
   11.1570   -1.6790   23.2123 H   0  0  0  0  0  0  0  0  0  0  0  0
   12.0618   -3.2138   23.1256 H   0  0  0  0  0  0  0  0  0  0  0  0
   10.4356   -3.9877   25.0729 N   0  0  0  0  0  0  0  0  0  0  0  0
    9.2895   -4.3125   25.6781 N   0  0  0  0  0  0  0  0  0  0  0  0
    9.3325   -4.8204   26.5551 H   0  0  0  0  0  0  0  0  0  0  0  0
  1  2  1  0
  2  3  1  0
  3  4  2  0
  3  5  1  0
  5  6  2  0
  6  7  1  0
  7  8  1  0
  7  9  1  0
  7 10  1  0
 10 11  1  0
 10 12  1  0
 12 13  2  3
 13 14  1  0
 14 15  2  0
 15 16  1  0
 15 17  1  0
 17 18  2  0
 18 19  1  0
 18 20  1  0
 20 21  1  0
 20 22  2  0
 22 23  1  0
 12 24  1  0
 24 25  1  0
 24 26  1  0
  6 27  1  0
 27 28  1  0
 28 29  1  0
 28 30  1  0
 28 31  1  0
 27 32  2  0
 32 33  1  0
 33 34  1  0
 33  5  1  0
 22 14  1  0
M  END
>  <cnnaffinity>  (1) 
-4.93864

>  <filename>  (1) 
Cc1n[nH]c(C(=O)O)c1CNC(N)=Nc1cccnc1

$$$$
