
     RDKit          3D

 50 55  0  0  0  0  0  0  0  0999 V2000
   10.4697    8.1498   26.3564 C   0  0  0  0  0  0  0  0  0  0  0  0
   10.0310    6.8005   25.9200 C   0  0  0  0  0  0  0  0  0  0  0  0
   10.1410    6.3496   24.7006 N   0  0  0  0  0  0  0  0  0  0  0  0
    9.5612    5.0972   24.7247 C   0  0  0  0  0  0  0  0  0  0  0  0
    9.4093    4.1756   23.6886 C   0  0  0  0  0  0  0  0  0  0  0  0
    8.8185    2.9424   23.9694 C   0  0  0  0  0  0  0  0  0  0  0  0
    8.7901    1.9549   22.9411 N   0  0  0  0  0  0  0  0  0  0  0  0
    7.7038    1.1935   22.6412 N   0  0  0  0  0  0  0  0  0  0  0  0
    8.1239    0.4940   21.6053 C   0  0  0  0  0  0  0  0  0  0  0  0
    7.3005   -0.5508   20.9090 C   0  0  0  0  0  0  0  0  0  0  0  0
    6.5450    0.0079   19.7172 C   0  0  0  0  0  0  0  0  0  0  0  0
    5.3502    0.7085   19.9223 C   0  0  0  0  0  0  0  0  0  0  0  0
    4.7529    1.3529   18.8392 C   0  0  0  0  0  0  0  0  0  0  0  0
    5.3724    1.2735   17.5882 C   0  0  0  0  0  0  0  0  0  0  0  0
    6.4996    0.5787   17.3607 N   0  0  0  0  0  0  0  0  0  0  0  0
    7.0549   -0.0386   18.4093 C   0  0  0  0  0  0  0  0  0  0  0  0
    7.9636   -0.6085   18.2041 H   0  0  0  0  0  0  0  0  0  0  0  0
    4.9475    1.7789   16.7245 H   0  0  0  0  0  0  0  0  0  0  0  0
    3.8402    1.9286   18.9563 H   0  0  0  0  0  0  0  0  0  0  0  0
    4.9161    0.7460   20.9238 H   0  0  0  0  0  0  0  0  0  0  0  0
    7.9885   -1.3439   20.5957 H   0  0  0  0  0  0  0  0  0  0  0  0
    6.6080   -0.9729   21.6448 H   0  0  0  0  0  0  0  0  0  0  0  0
    9.3969    0.7411   21.2138 N   0  0  0  0  0  0  0  0  0  0  0  0
    9.8168    1.6187   22.1114 C   0  0  0  0  0  0  0  0  0  0  0  0
   11.2441    1.8467   22.4902 C   0  0  0  0  0  0  0  0  0  0  0  0
   11.5777    1.1139   23.7780 C   0  0  0  0  0  0  0  0  0  0  0  0
   12.8436    1.2146   24.5712 C   0  0  0  0  0  0  0  0  0  0  0  0
   11.6002    1.9288   25.0295 C   0  0  0  0  0  0  0  0  0  0  0  0
   11.5687    3.0032   24.8502 H   0  0  0  0  0  0  0  0  0  0  0  0
   11.0179    1.5983   25.8899 H   0  0  0  0  0  0  0  0  0  0  0  0
   13.6692    1.8146   24.1958 H   0  0  0  0  0  0  0  0  0  0  0  0
   13.1727    0.3359   25.1200 H   0  0  0  0  0  0  0  0  0  0  0  0
   11.1050    0.1356   23.8269 H   0  0  0  0  0  0  0  0  0  0  0  0
   12.2544    1.8287   21.3946 C   0  0  0  0  0  0  0  0  0  0  0  0
   12.0187    3.0981   22.1506 C   0  0  0  0  0  0  0  0  0  0  0  0
   11.5107    3.9236   21.6659 H   0  0  0  0  0  0  0  0  0  0  0  0
   12.7712    3.4232   22.8625 H   0  0  0  0  0  0  0  0  0  0  0  0
   13.1505    1.2593   21.6216 H   0  0  0  0  0  0  0  0  0  0  0  0
   11.8700    1.7747   20.3821 H   0  0  0  0  0  0  0  0  0  0  0  0
    8.3385    2.6497   25.2696 C   0  0  0  0  0  0  0  0  0  0  0  0
    8.4898    3.5650   26.3111 C   0  0  0  0  0  0  0  0  0  0  0  0
    9.0988    4.7922   26.0180 C   0  0  0  0  0  0  0  0  0  0  0  0
    9.4241    5.9080   26.7714 N   0  0  0  0  0  0  0  0  0  0  0  0
    9.0984    6.1235   27.6938 H   0  0  0  0  0  0  0  0  0  0  0  0
    8.1453    3.3312   27.3136 H   0  0  0  0  0  0  0  0  0  0  0  0
    7.8813    1.6807   25.4514 H   0  0  0  0  0  0  0  0  0  0  0  0
    9.7504    4.4432   22.6988 H   0  0  0  0  0  0  0  0  0  0  0  0
   11.0937    8.5800   25.5732 H   0  0  0  0  0  0  0  0  0  0  0  0
    9.6009    8.7991   26.5008 H   0  0  0  0  0  0  0  0  0  0  0  0
   11.0411    8.1172   27.2872 H   0  0  0  0  0  0  0  0  0  0  0  0
  1  2  1  0
  2  3  2  0
  3  4  1  0
  4  5  2  0
  5  6  1  0
  6  7  1  0
  7  8  1  0
  8  9  2  0
  9 10  1  0
 10 11  1  0
 11 12  2  0
 12 13  1  0
 13 14  2  0
 14 15  1  0
 15 16  2  0
 16 17  1  0
 14 18  1  0
 13 19  1  0
 12 20  1  0
 10 21  1  0
 10 22  1  0
  9 23  1  0
 23 24  2  0
 24 25  1  0
 25 26  1  0
 26 27  1  0
 27 28  1  0
 28 29  1  0
 28 30  1  0
 27 31  1  0
 27 32  1  0
 26 33  1  0
 25 34  1  0
 34 35  1  0
 35 36  1  0
 35 37  1  0
 34 38  1  0
 34 39  1  0
  6 40  2  0
 40 41  1  0
 41 42  2  0
 42 43  1  0
 43 44  1  0
 41 45  1  0
 40 46  1  0
  5 47  1  0
  1 48  1  0
  1 49  1  0
  1 50  1  0
 43  2  1  0
 42  4  1  0
 24  7  1  0
 35 25  1  0
 16 11  1  0
 28 26  1  0
M  END
>  <cnnaffinity>  (1) 
-6.85375

>  <filename>  (1) 
Cc1nc2cc(-n3nc(Cc4cccnc4)nc3C3(C4CC4)CC3)ccc2[nH]1

$$$$
