
     RDKit          3D

 31 33  0  0  0  0  0  0  0  0999 V2000
    4.9181    1.7887   16.9882 H   0  0  0  0  0  0  0  0  0  0  0  0
    5.3968    1.3016   17.8340 C   0  0  0  0  0  0  0  0  0  0  0  0
    6.5599    0.6858   17.5745 N   0  0  0  0  0  0  0  0  0  0  0  0
    7.1560    0.0632   18.5982 C   0  0  0  0  0  0  0  0  0  0  0  0
    8.1055   -0.4176   18.3692 H   0  0  0  0  0  0  0  0  0  0  0  0
    6.6307   -0.0138   19.8976 C   0  0  0  0  0  0  0  0  0  0  0  0
    7.4048   -0.7023   21.0001 C   0  0  0  0  0  0  0  0  0  0  0  0
    7.7891   -1.6691   20.6547 H   0  0  0  0  0  0  0  0  0  0  0  0
    6.7387   -0.9165   21.8476 H   0  0  0  0  0  0  0  0  0  0  0  0
    8.5571    0.1578   21.4481 C   0  0  0  0  0  0  0  0  0  0  0  0
    9.9198    0.0426   21.1081 C   0  0  0  0  0  0  0  0  0  0  0  0
   10.3804   -0.7601   20.5498 H   0  0  0  0  0  0  0  0  0  0  0  0
   10.6362    1.0811   21.5068 N   0  0  0  0  0  0  0  0  0  0  0  0
    9.7346    1.8802   22.0974 N   0  0  0  0  0  0  0  0  0  0  0  0
   10.0358    2.7495   22.5025 H   0  0  0  0  0  0  0  0  0  0  0  0
    8.4770    1.3825   22.0819 C   0  0  0  0  0  0  0  0  0  0  0  0
    7.3977    2.1268   22.5900 N   0  0  0  0  0  0  0  0  0  0  0  0
    6.4539    1.7133   23.5157 C   0  0  0  0  0  0  0  0  0  0  0  0
    6.5351    0.4450   24.2981 C   0  0  0  0  0  0  0  0  0  0  0  0
    7.5036   -0.0455   24.1743 H   0  0  0  0  0  0  0  0  0  0  0  0
    5.7523   -0.2527   23.9894 H   0  0  0  0  0  0  0  0  0  0  0  0
    6.3448    0.6550   25.3554 H   0  0  0  0  0  0  0  0  0  0  0  0
    5.4991    2.5968   23.6555 N   0  0  0  0  0  0  0  0  0  0  0  0
    5.8008    3.6224   22.7861 C   0  0  0  0  0  0  0  0  0  0  0  0
    5.1835    4.5113   22.7156 H   0  0  0  0  0  0  0  0  0  0  0  0
    6.9529    3.3579   22.1168 C   0  0  0  0  0  0  0  0  0  0  0  0
    7.4964    3.8981   21.3656 H   0  0  0  0  0  0  0  0  0  0  0  0
    5.4261    0.6493   20.1465 C   0  0  0  0  0  0  0  0  0  0  0  0
    5.0002    0.6315   21.1524 H   0  0  0  0  0  0  0  0  0  0  0  0
    4.7975    1.3233   19.0976 C   0  0  0  0  0  0  0  0  0  0  0  0
    3.8639    1.8512   19.2462 H   0  0  0  0  0  0  0  0  0  0  0  0
  1  2  1  0
  2  3  2  0
  3  4  1  0
  4  5  1  0
  4  6  2  0
  6  7  1  0
  7  8  1  0
  7  9  1  0
  7 10  1  0
 10 11  1  0
 11 12  1  0
 11 13  2  0
 13 14  1  0
 14 15  1  0
 14 16  1  0
 16 17  1  0
 17 18  1  0
 18 19  1  0
 19 20  1  0
 19 21  1  0
 19 22  1  0
 18 23  2  0
 23 24  1  0
 24 25  1  0
 24 26  2  0
 26 27  1  0
  6 28  1  0
 28 29  1  0
 28 30  2  0
 30 31  1  0
 30  2  1  0
 16 10  2  0
 26 17  1  0
M  END
>  <cnnaffinity>  (1) 
-4.9756

>  <filename>  (1) 
Cc1nccn1-c1[nH]ncc1Cc1cccnc1

$$$$
