
     RDKit          3D

 32 33  0  0  0  0  0  0  0  0999 V2000
    9.4515    3.9402   24.1102 H   0  0  0  0  0  0  0  0  0  0  0  0
    8.8576    3.3169   24.5595 O   0  0  0  0  0  0  0  0  0  0  0  0
    9.7367    2.3453   24.8409 C   0  0  0  0  0  0  0  0  0  0  0  0
   10.9164    2.5254   24.6458 O   0  0  0  0  0  0  0  0  0  0  0  0
    9.1236    1.0980   25.3582 C   0  0  0  0  0  0  0  0  0  0  0  0
    7.9042    0.4923   25.0877 C   0  0  0  0  0  0  0  0  0  0  0  0
    6.8406    1.0324   24.1659 C   0  0  0  0  0  0  0  0  0  0  0  0
    6.6375    2.0770   24.3974 H   0  0  0  0  0  0  0  0  0  0  0  0
    5.9086    0.4662   24.2550 H   0  0  0  0  0  0  0  0  0  0  0  0
    7.2823    1.0263   22.7175 C   0  0  0  0  0  0  0  0  0  0  0  0
    7.7357    1.9320   22.0849 O   0  0  0  0  0  0  0  0  0  0  0  0
    7.0030   -0.2414   22.2008 O   0  0  0  0  0  0  0  0  0  0  0  0
    7.5146   -0.5239   20.9220 N   0  0  0  0  0  0  0  0  0  0  0  0
    7.5832   -1.5403   20.8831 H   0  0  0  0  0  0  0  0  0  0  0  0
    6.6855    0.0112   19.8833 C   0  0  0  0  0  0  0  0  0  0  0  0
    7.1752    0.0294   18.5632 C   0  0  0  0  0  0  0  0  0  0  0  0
    8.1310   -0.4507   18.3518 H   0  0  0  0  0  0  0  0  0  0  0  0
    6.5577    0.6330   17.5370 N   0  0  0  0  0  0  0  0  0  0  0  0
    5.4000    1.2671   17.7934 C   0  0  0  0  0  0  0  0  0  0  0  0
    4.9379    1.8048   16.9655 H   0  0  0  0  0  0  0  0  0  0  0  0
    4.7983    1.2588   19.0545 C   0  0  0  0  0  0  0  0  0  0  0  0
    3.8729    1.7963   19.2249 H   0  0  0  0  0  0  0  0  0  0  0  0
    5.4316    0.5985   20.1106 C   0  0  0  0  0  0  0  0  0  0  0  0
    4.9860    0.5563   21.1008 H   0  0  0  0  0  0  0  0  0  0  0  0
    7.9650   -0.7521   25.7554 C   0  0  0  0  0  0  0  0  0  0  0  0
    6.9412   -1.8342   25.6798 C   0  0  0  0  0  0  0  0  0  0  0  0
    7.2954   -2.7440   26.1664 H   0  0  0  0  0  0  0  0  0  0  0  0
    6.7371   -2.0434   24.6227 H   0  0  0  0  0  0  0  0  0  0  0  0
    5.9945   -1.5180   26.1304 H   0  0  0  0  0  0  0  0  0  0  0  0
    9.1090   -0.8830   26.4122 N   0  0  0  0  0  0  0  0  0  0  0  0
    9.7973    0.2343   26.1675 N   0  0  0  0  0  0  0  0  0  0  0  0
   10.6917    0.3463   26.6267 H   0  0  0  0  0  0  0  0  0  0  0  0
  1  2  1  0
  2  3  1  0
  3  4  2  0
  3  5  1  0
  5  6  2  0
  6  7  1  0
  7  8  1  0
  7  9  1  0
  7 10  1  0
 10 11  2  0
 10 12  1  0
 12 13  1  0
 13 14  1  0
 13 15  1  0
 15 16  2  0
 16 17  1  0
 16 18  1  0
 18 19  2  0
 19 20  1  0
 19 21  1  0
 21 22  1  0
 21 23  2  0
 23 24  1  0
  6 25  1  0
 25 26  1  0
 26 27  1  0
 26 28  1  0
 26 29  1  0
 25 30  2  0
 30 31  1  0
 31 32  1  0
 31  5  1  0
 23 15  1  0
M  END
>  <cnnaffinity>  (1) 
-4.56944

>  <filename>  (1) 
Cc1n[nH]c(C(=O)O)c1CC(=O)ONc1cccnc1

$$$$
