
     RDKit          3D

 44 46  0  0  0  0  0  0  0  0999 V2000
    6.0276   -4.0579   21.5065 C   0  0  0  0  0  0  0  0  0  0  0  0
    5.3332   -3.8586   22.8193 C   0  0  0  0  0  0  0  0  0  0  0  0
    4.0371   -4.0420   22.8725 N   0  0  0  0  0  0  0  0  0  0  0  0
    3.6543   -3.6590   24.1380 O   0  0  0  0  0  0  0  0  0  0  0  0
    4.7273   -3.2614   24.8359 C   0  0  0  0  0  0  0  0  0  0  0  0
    4.4449   -2.6808   26.1841 C   0  0  0  0  0  0  0  0  0  0  0  0
    3.4120   -2.8691   26.4812 H   0  0  0  0  0  0  0  0  0  0  0  0
    5.1123   -3.0698   26.9571 H   0  0  0  0  0  0  0  0  0  0  0  0
    4.5798   -1.5941   26.1582 H   0  0  0  0  0  0  0  0  0  0  0  0
    5.8589   -3.4323   24.0929 C   0  0  0  0  0  0  0  0  0  0  0  0
    7.2941   -3.2433   24.5358 C   0  0  0  0  0  0  0  0  0  0  0  0
    7.8575   -1.8038   24.3375 C   0  0  0  0  0  0  0  0  0  0  0  0
    7.1919   -0.7673   25.2586 C   0  0  0  0  0  0  0  0  0  0  0  0
    7.7545    0.1739   25.2486 H   0  0  0  0  0  0  0  0  0  0  0  0
    6.1649   -0.5529   24.9391 H   0  0  0  0  0  0  0  0  0  0  0  0
    7.1676   -1.1320   26.2937 H   0  0  0  0  0  0  0  0  0  0  0  0
    7.8062   -1.3817   22.8894 C   0  0  0  0  0  0  0  0  0  0  0  0
    6.9040   -0.6340   22.2800 N   0  0  0  0  0  0  0  0  0  0  0  0
    7.3043   -0.6326   20.9852 C   0  0  0  0  0  0  0  0  0  0  0  0
    6.5930    0.0491   19.9155 C   0  0  0  0  0  0  0  0  0  0  0  0
    5.3723    0.7011   20.1298 C   0  0  0  0  0  0  0  0  0  0  0  0
    4.7805    1.3366   19.0433 C   0  0  0  0  0  0  0  0  0  0  0  0
    5.4255    1.2982   17.8003 C   0  0  0  0  0  0  0  0  0  0  0  0
    6.5878    0.6627   17.5868 N   0  0  0  0  0  0  0  0  0  0  0  0
    7.1542    0.0537   18.6304 C   0  0  0  0  0  0  0  0  0  0  0  0
    8.0986   -0.4562   18.4431 H   0  0  0  0  0  0  0  0  0  0  0  0
    4.9952    1.7947   16.9346 H   0  0  0  0  0  0  0  0  0  0  0  0
    3.8434    1.8707   19.1446 H   0  0  0  0  0  0  0  0  0  0  0  0
    4.9145    0.7072   21.1219 H   0  0  0  0  0  0  0  0  0  0  0  0
    8.4013   -1.3219   20.7574 N   0  0  0  0  0  0  0  0  0  0  0  0
    8.7174   -1.8125   21.9715 N   0  0  0  0  0  0  0  0  0  0  0  0
    9.9657   -2.5372   22.0406 C   0  0  0  0  0  0  0  0  0  0  0  0
   11.1856   -1.6845   22.3507 C   0  0  0  0  0  0  0  0  0  0  0  0
   11.4995   -0.8005   21.3995 F   0  0  0  0  0  0  0  0  0  0  0  0
   11.0229   -1.0002   23.5000 F   0  0  0  0  0  0  0  0  0  0  0  0
   12.2442   -2.4988   22.4974 F   0  0  0  0  0  0  0  0  0  0  0  0
    9.9207   -3.3422   22.7767 H   0  0  0  0  0  0  0  0  0  0  0  0
   10.1098   -2.9321   21.0397 H   0  0  0  0  0  0  0  0  0  0  0  0
    8.9231   -1.8357   24.6097 H   0  0  0  0  0  0  0  0  0  0  0  0
    7.3825   -3.4828   25.6073 H   0  0  0  0  0  0  0  0  0  0  0  0
    7.9561   -3.9570   24.0230 H   0  0  0  0  0  0  0  0  0  0  0  0
    7.1146   -4.0952   21.6305 H   0  0  0  0  0  0  0  0  0  0  0  0
    5.6809   -4.9546   20.9836 H   0  0  0  0  0  0  0  0  0  0  0  0
    5.7989   -3.2039   20.8588 H   0  0  0  0  0  0  0  0  0  0  0  0
  1  2  1  0
  2  3  2  0
  3  4  1  0
  4  5  1  0
  5  6  1  0
  6  7  1  0
  6  8  1  0
  6  9  1  0
  5 10  2  0
 10 11  1  0
 11 12  1  0
 12 13  1  0
 13 14  1  0
 13 15  1  0
 13 16  1  0
 12 17  1  0
 17 18  2  0
 18 19  1  0
 19 20  1  0
 20 21  2  0
 21 22  1  0
 22 23  2  0
 23 24  1  0
 24 25  2  0
 25 26  1  0
 23 27  1  0
 22 28  1  0
 21 29  1  0
 19 30  2  0
 30 31  1  0
 31 32  1  0
 32 33  1  0
 33 34  1  0
 33 35  1  0
 33 36  1  0
 32 37  1  0
 32 38  1  0
 12 39  1  0
 11 40  1  0
 11 41  1  0
  1 42  1  0
  1 43  1  0
  1 44  1  0
 10  2  1  0
 31 17  1  0
 25 20  1  0
M  END
>  <cnnaffinity>  (1) 
-6.2627

>  <filename>  (1) 
Cc1noc(C)c1CC(C)c1nc(-c2cccnc2)nn1CC(F)(F)F

$$$$
