
     RDKit          3D

 32 34  0  0  0  0  0  0  0  0999 V2000
    4.9747    1.7652   17.1063 H   0  0  0  0  0  0  0  0  0  0  0  0
    5.5301    1.2317   17.8756 C   0  0  0  0  0  0  0  0  0  0  0  0
    6.6708    0.6328   17.4901 N   0  0  0  0  0  0  0  0  0  0  0  0
    7.3874   -0.0059   18.4267 C   0  0  0  0  0  0  0  0  0  0  0  0
    8.2856   -0.5094   18.0670 H   0  0  0  0  0  0  0  0  0  0  0  0
    7.0436   -0.0755   19.8079 C   0  0  0  0  0  0  0  0  0  0  0  0
    7.8609   -0.7313   20.7410 N   0  0  0  0  0  0  0  0  0  0  0  0
    8.7731   -1.0079   20.3884 H   0  0  0  0  0  0  0  0  0  0  0  0
    7.8786   -0.4217   22.1897 C   0  0  0  0  0  0  0  0  0  0  0  0
    8.0765    1.0443   22.6132 C   0  0  0  0  0  0  0  0  0  0  0  0
    9.3287    1.6380   22.7201 N   0  0  0  0  0  0  0  0  0  0  0  0
    9.2394    2.9050   22.9863 C   0  0  0  0  0  0  0  0  0  0  0  0
   10.4438    3.7987   23.0831 C   0  0  0  0  0  0  0  0  0  0  0  0
   10.2193    4.8279   22.7902 H   0  0  0  0  0  0  0  0  0  0  0  0
   11.2241    3.3976   22.4316 H   0  0  0  0  0  0  0  0  0  0  0  0
   10.8467    3.8008   24.1033 H   0  0  0  0  0  0  0  0  0  0  0  0
    7.6027    3.4654   23.2247 S   0  0  0  0  0  0  0  0  0  0  0  0
    7.0387    1.8740   22.9053 C   0  0  0  0  0  0  0  0  0  0  0  0
    6.0015    1.5733   22.9461 H   0  0  0  0  0  0  0  0  0  0  0  0
    6.6946   -1.1511   22.9105 C   0  0  0  0  0  0  0  0  0  0  0  0
    6.1229   -0.5354   23.6107 H   0  0  0  0  0  0  0  0  0  0  0  0
    6.0383   -1.6290   22.1759 H   0  0  0  0  0  0  0  0  0  0  0  0
    7.6843   -2.1170   23.5999 C   0  0  0  0  0  0  0  0  0  0  0  0
    7.5661   -3.1725   23.3308 H   0  0  0  0  0  0  0  0  0  0  0  0
    7.7088   -2.0476   24.6926 H   0  0  0  0  0  0  0  0  0  0  0  0
    8.8520   -1.3950   22.8912 C   0  0  0  0  0  0  0  0  0  0  0  0
    9.4366   -1.9955   22.1951 H   0  0  0  0  0  0  0  0  0  0  0  0
    9.5390   -0.8776   23.5529 H   0  0  0  0  0  0  0  0  0  0  0  0
    5.8079    0.4937   20.1569 C   0  0  0  0  0  0  0  0  0  0  0  0
    5.4471    0.4038   21.1757 H   0  0  0  0  0  0  0  0  0  0  0  0
    5.0507    1.1644   19.1868 C   0  0  0  0  0  0  0  0  0  0  0  0
    4.1009    1.6229   19.4406 H   0  0  0  0  0  0  0  0  0  0  0  0
  1  2  1  0
  2  3  2  0
  3  4  1  0
  4  5  1  0
  4  6  2  0
  6  7  1  0
  7  8  1  0
  7  9  1  0
  9 10  1  0
 10 11  1  0
 11 12  2  0
 12 13  1  0
 13 14  1  0
 13 15  1  0
 13 16  1  0
 12 17  1  0
 17 18  1  0
 18 19  1  0
  9 20  1  0
 20 21  1  0
 20 22  1  0
 20 23  1  0
 23 24  1  0
 23 25  1  0
 23 26  1  0
 26 27  1  0
 26 28  1  0
  6 29  1  0
 29 30  1  0
 29 31  2  0
 31 32  1  0
 31  2  1  0
 26  9  1  0
 18 10  2  0
M  END
>  <cnnaffinity>  (1) 
-5.24639

>  <filename>  (1) 
Cc1nc(C2(Nc3cccnc3)CCC2)cs1

$$$$
