
     RDKit          3D

 24 25  0  0  0  0  0  0  0  0999 V2000
    4.8803    1.8774   17.0343 H   0  0  0  0  0  0  0  0  0  0  0  0
    5.3662    1.3208   17.8320 C   0  0  0  0  0  0  0  0  0  0  0  0
    6.5083    0.6946   17.5038 N   0  0  0  0  0  0  0  0  0  0  0  0
    7.1431    0.0337   18.4755 C   0  0  0  0  0  0  0  0  0  0  0  0
    8.0710   -0.4626   18.2118 H   0  0  0  0  0  0  0  0  0  0  0  0
    6.6784   -0.0611   19.8062 C   0  0  0  0  0  0  0  0  0  0  0  0
    7.3918   -0.7931   20.8015 N   0  0  0  0  0  0  0  0  0  0  0  0
    6.9376   -1.6009   21.2151 H   0  0  0  0  0  0  0  0  0  0  0  0
    8.6949   -0.6341   21.1603 C   0  0  0  0  0  0  0  0  0  0  0  0
    9.6069    0.6717   20.7072 S   0  0  0  0  0  0  0  0  0  0  0  0
    9.2423   -1.7503   22.0149 C   0  0  0  0  0  0  0  0  0  0  0  0
    8.4055   -2.7929   22.4168 N   0  0  0  0  0  0  0  0  0  0  0  0
    9.0308   -3.6458   23.1578 C   0  0  0  0  0  0  0  0  0  0  0  0
    8.3966   -4.9197   23.6279 C   0  0  0  0  0  0  0  0  0  0  0  0
    7.5011   -5.0863   23.0192 H   0  0  0  0  0  0  0  0  0  0  0  0
    9.0892   -5.7576   23.5147 H   0  0  0  0  0  0  0  0  0  0  0  0
    8.1031   -4.8500   24.6815 H   0  0  0  0  0  0  0  0  0  0  0  0
   10.7006   -3.2338   23.4608 S   0  0  0  0  0  0  0  0  0  0  0  0
   10.5290   -1.8599   22.4507 C   0  0  0  0  0  0  0  0  0  0  0  0
   11.3594   -1.1968   22.2237 H   0  0  0  0  0  0  0  0  0  0  0  0
    5.4840    0.5835   20.1360 C   0  0  0  0  0  0  0  0  0  0  0  0
    5.1199    0.5515   21.1663 H   0  0  0  0  0  0  0  0  0  0  0  0
    4.8191    1.2856   19.1209 C   0  0  0  0  0  0  0  0  0  0  0  0
    3.8943    1.8122   19.3200 H   0  0  0  0  0  0  0  0  0  0  0  0
  1  2  1  0
  2  3  2  0
  3  4  1  0
  4  5  1  0
  4  6  2  0
  6  7  1  0
  7  8  1  0
  7  9  1  0
  9 10  2  0
  9 11  1  0
 11 12  1  0
 12 13  2  0
 13 14  1  0
 14 15  1  0
 14 16  1  0
 14 17  1  0
 13 18  1  0
 18 19  1  0
 19 20  1  0
  6 21  1  0
 21 22  1  0
 21 23  2  0
 23 24  1  0
 23  2  1  0
 19 11  2  0
M  END
>  <cnnaffinity>  (1) 
-4.94488

>  <filename>  (1) 
Cc1nc(C(=S)Nc2cccnc2)cs1

$$$$
