
     RDKit          3D

 32 35  0  0  0  0  0  0  0  0999 V2000
    8.6225   -3.6161   22.1164 C   0  0  0  0  0  0  0  0  0  0  0  0
    8.1324   -2.2298   21.9043 C   0  0  0  0  0  0  0  0  0  0  0  0
    7.7730   -1.8252   20.7062 N   0  0  0  0  0  0  0  0  0  0  0  0
    7.3345   -0.5657   20.9265 N   0  0  0  0  0  0  0  0  0  0  0  0
    6.6345    0.0822   19.8883 C   0  0  0  0  0  0  0  0  0  0  0  0
    5.4048    0.7088   20.1115 C   0  0  0  0  0  0  0  0  0  0  0  0
    4.8016    1.3352   19.0203 C   0  0  0  0  0  0  0  0  0  0  0  0
    5.4354    1.2987   17.7720 C   0  0  0  0  0  0  0  0  0  0  0  0
    6.5826    0.6319   17.5440 N   0  0  0  0  0  0  0  0  0  0  0  0
    7.1525    0.0180   18.5821 C   0  0  0  0  0  0  0  0  0  0  0  0
    8.0530   -0.5665   18.4045 H   0  0  0  0  0  0  0  0  0  0  0  0
    5.0120    1.8265   16.9208 H   0  0  0  0  0  0  0  0  0  0  0  0
    3.8507    1.8436   19.1288 H   0  0  0  0  0  0  0  0  0  0  0  0
    4.9402    0.6818   21.1002 H   0  0  0  0  0  0  0  0  0  0  0  0
    7.5013   -0.2550   22.2517 C   0  0  0  0  0  0  0  0  0  0  0  0
    7.2222    1.0822   22.8462 C   0  0  0  0  0  0  0  0  0  0  0  0
    7.4249    2.3179   22.2054 C   0  0  0  0  0  0  0  0  0  0  0  0
    7.1239    3.5368   22.8559 C   0  0  0  0  0  0  0  0  0  0  0  0
    6.6292    3.6520   24.0885 N   0  0  0  0  0  0  0  0  0  0  0  0
    6.4369    2.4721   24.6844 C   0  0  0  0  0  0  0  0  0  0  0  0
    6.7144    1.1882   24.1680 C   0  0  0  0  0  0  0  0  0  0  0  0
    6.2959    0.3248   25.2221 C   0  0  0  0  0  0  0  0  0  0  0  0
    5.8229    0.9874   26.2543 N   0  0  0  0  0  0  0  0  0  0  0  0
    5.9089    2.2914   25.9121 N   0  0  0  0  0  0  0  0  0  0  0  0
    5.6625    3.0479   26.5310 H   0  0  0  0  0  0  0  0  0  0  0  0
    6.3365   -0.7524   25.2318 H   0  0  0  0  0  0  0  0  0  0  0  0
    7.2912    4.4777   22.3386 H   0  0  0  0  0  0  0  0  0  0  0  0
    7.7978    2.3751   21.1922 H   0  0  0  0  0  0  0  0  0  0  0  0
    7.9828   -1.3121   22.8883 N   0  0  0  0  0  0  0  0  0  0  0  0
    8.6710   -4.1220   21.1509 H   0  0  0  0  0  0  0  0  0  0  0  0
    7.9488   -4.1728   22.7707 H   0  0  0  0  0  0  0  0  0  0  0  0
    9.6046   -3.5843   22.5898 H   0  0  0  0  0  0  0  0  0  0  0  0
  1  2  1  0
  2  3  2  0
  3  4  1  0
  4  5  1  0
  5  6  2  0
  6  7  1  0
  7  8  2  0
  8  9  1  0
  9 10  2  0
 10 11  1  0
  8 12  1  0
  7 13  1  0
  6 14  1  0
  4 15  1  0
 15 16  1  0
 16 17  2  0
 17 18  1  0
 18 19  2  0
 19 20  1  0
 20 21  2  0
 21 22  1  0
 22 23  2  0
 23 24  1  0
 24 25  1  0
 22 26  1  0
 18 27  1  0
 17 28  1  0
 15 29  2  0
  1 30  1  0
  1 31  1  0
  1 32  1  0
 29  2  1  0
 10  5  1  0
 21 16  1  0
 24 20  1  0
M  END
>  <cnnaffinity>  (1) 
-5.04286

>  <filename>  (1) 
Cc1nc(-c2ccnc3[nH]ncc23)n(-c2cccnc2)n1

$$$$
