
     RDKit          3D

 41 42  0  0  0  0  0  0  0  0999 V2000
    7.2966    4.0402   22.5119 C   0  0  0  0  0  0  0  0  0  0  0  0
    8.4108    3.2735   23.1382 C   0  0  0  0  0  0  0  0  0  0  0  0
    8.9660    3.7080   24.2380 N   0  0  0  0  0  0  0  0  0  0  0  0
    9.9780    2.8166   24.5233 O   0  0  0  0  0  0  0  0  0  0  0  0
    9.9993    1.8397   23.6031 C   0  0  0  0  0  0  0  0  0  0  0  0
   11.0571    0.7735   23.7331 C   0  0  0  0  0  0  0  0  0  0  0  0
   12.4028    1.2237   23.1317 C   0  0  0  0  0  0  0  0  0  0  0  0
   12.2950    1.5115   22.0806 H   0  0  0  0  0  0  0  0  0  0  0  0
   12.8190    2.0832   23.6717 H   0  0  0  0  0  0  0  0  0  0  0  0
   13.1364    0.4111   23.1832 H   0  0  0  0  0  0  0  0  0  0  0  0
   11.2186    0.3498   25.1954 C   0  0  0  0  0  0  0  0  0  0  0  0
   12.0641   -0.3337   25.3190 H   0  0  0  0  0  0  0  0  0  0  0  0
   11.3798    1.2461   25.7962 H   0  0  0  0  0  0  0  0  0  0  0  0
   10.3149   -0.1428   25.5652 H   0  0  0  0  0  0  0  0  0  0  0  0
   10.7102   -0.1020   23.1587 H   0  0  0  0  0  0  0  0  0  0  0  0
    9.0289    2.0769   22.6716 C   0  0  0  0  0  0  0  0  0  0  0  0
    8.7654    1.2855   21.4440 C   0  0  0  0  0  0  0  0  0  0  0  0
    7.8766    0.1802   21.8727 N   0  0  0  0  0  4  0  0  0  0  0  0
    7.4409   -0.8144   20.8698 C   0  0  1  0  0  0  0  0  0  0  0  0
    6.6869   -1.9312   21.5672 C   0  0  0  0  0  0  0  0  0  0  0  0
    7.3124   -2.3932   22.3385 H   0  0  0  0  0  0  0  0  0  0  0  0
    6.3896   -2.7100   20.8610 H   0  0  0  0  0  0  0  0  0  0  0  0
    5.7691   -1.5566   22.0202 H   0  0  0  0  0  0  0  0  0  0  0  0
    6.6297   -0.0565   19.8396 C   0  0  0  0  0  0  0  0  0  0  0  0
    5.4290    0.6206   20.1034 C   0  0  0  0  0  0  0  0  0  0  0  0
    4.8165    1.3170   19.0547 C   0  0  0  0  0  0  0  0  0  0  0  0
    5.4352    1.3436   17.7986 C   0  0  0  0  0  0  0  0  0  0  0  0
    6.5985    0.7294   17.5405 N   0  0  0  0  0  0  0  0  0  0  0  0
    7.1654    0.0660   18.5554 C   0  0  0  0  0  0  0  0  0  0  0  0
    8.1219   -0.4088   18.3467 H   0  0  0  0  0  0  0  0  0  0  0  0
    4.9776    1.8797   16.9656 H   0  0  0  0  0  0  0  0  0  0  0  0
    3.8909    1.8656   19.1999 H   0  0  0  0  0  0  0  0  0  0  0  0
    4.9659    0.6238   21.0972 H   0  0  0  0  0  0  0  0  0  0  0  0
    8.3124   -1.2410   20.3563 H   0  0  0  0  0  0  0  0  0  0  0  0
    8.2895   -0.2515   22.7161 H   0  0  0  0  0  0  0  0  0  0  0  0
    6.9985    0.6565   22.1898 H   0  0  0  0  0  0  0  0  0  0  0  0
    8.2845    1.8829   20.6580 H   0  0  0  0  0  0  0  0  0  0  0  0
    9.6945    0.8991   20.9921 H   0  0  0  0  0  0  0  0  0  0  0  0
    7.6186    4.4854   21.5639 H   0  0  0  0  0  0  0  0  0  0  0  0
    6.9710    4.8422   23.1792 H   0  0  0  0  0  0  0  0  0  0  0  0
    6.4516    3.3776   22.3008 H   0  0  0  0  0  0  0  0  0  0  0  0
  1  2  1  0
  2  3  2  0
  3  4  1  0
  4  5  1  0
  5  6  1  0
  6  7  1  0
  7  8  1  0
  7  9  1  0
  7 10  1  0
  6 11  1  0
 11 12  1  0
 11 13  1  0
 11 14  1  0
  6 15  1  0
  5 16  2  0
 16 17  1  0
 17 18  1  0
 18 19  1  0
 19 20  1  0
 20 21  1  0
 20 22  1  0
 20 23  1  0
 19 24  1  0
 24 25  2  0
 25 26  1  0
 26 27  2  0
 27 28  1  0
 28 29  2  0
 29 30  1  0
 27 31  1  0
 26 32  1  0
 25 33  1  0
 19 34  1  6
 18 35  1  0
 18 36  1  0
 17 37  1  0
 17 38  1  0
  1 39  1  0
  1 40  1  0
  1 41  1  0
 16  2  1  0
 29 24  1  0
M  CHG  1  18   1
M  END
>  <cnnaffinity>  (1) 
-5.15249

>  <filename>  (1) 
Cc1noc(C(C)C)c1C[NH2+][C@@H](C)c1cccnc1

$$$$
