
     RDKit          3D

 30 32  0  0  0  0  0  0  0  0999 V2000
    9.1477   -3.4261   22.1800 C   0  0  0  0  0  0  0  0  0  0  0  0
    8.3957   -2.1974   21.9067 C   0  0  0  0  0  0  0  0  0  0  0  0
    7.9587   -1.8744   20.7048 N   0  0  0  0  0  0  0  0  0  0  0  0
    7.3598   -0.6799   20.9248 N   0  0  0  0  0  0  0  0  0  0  0  0
    6.6511   -0.0054   19.9031 C   0  0  0  0  0  0  0  0  0  0  0  0
    5.4410    0.6469   20.1697 C   0  0  0  0  0  0  0  0  0  0  0  0
    4.8136    1.3038   19.1083 C   0  0  0  0  0  0  0  0  0  0  0  0
    5.4071    1.2915   17.8416 C   0  0  0  0  0  0  0  0  0  0  0  0
    6.5728    0.6705   17.5892 N   0  0  0  0  0  0  0  0  0  0  0  0
    7.1738    0.0353   18.5974 C   0  0  0  0  0  0  0  0  0  0  0  0
    8.1224   -0.4474   18.3775 H   0  0  0  0  0  0  0  0  0  0  0  0
    4.9300    1.7834   16.9966 H   0  0  0  0  0  0  0  0  0  0  0  0
    3.8842    1.8360   19.2572 H   0  0  0  0  0  0  0  0  0  0  0  0
    5.0117    0.6367   21.1737 H   0  0  0  0  0  0  0  0  0  0  0  0
    7.5334   -0.3384   22.2412 C   0  0  0  0  0  0  0  0  0  0  0  0
    7.0985    0.9284   22.8491 C   0  0  0  0  0  0  0  0  0  0  0  0
    7.5405    2.1836   22.3805 C   0  0  0  0  0  0  0  0  0  0  0  0
    8.6779    2.3152   21.0851 Cl  0  0  0  0  0  0  0  0  0  0  0  0
    7.0729    3.3518   22.9940 C   0  0  0  0  0  0  0  0  0  0  0  0
    7.4757    4.5476   22.5560 F   0  0  0  0  0  0  0  0  0  0  0  0
    6.1958    3.2970   24.0714 C   0  0  0  0  0  0  0  0  0  0  0  0
    5.7736    2.0538   24.5502 C   0  0  0  0  0  0  0  0  0  0  0  0
    6.2237    0.8827   23.9460 C   0  0  0  0  0  0  0  0  0  0  0  0
    5.9135   -0.0907   24.3162 H   0  0  0  0  0  0  0  0  0  0  0  0
    5.1065    1.9972   25.4038 H   0  0  0  0  0  0  0  0  0  0  0  0
    5.8743    4.2332   24.5142 H   0  0  0  0  0  0  0  0  0  0  0  0
    8.1637   -1.2948   22.8826 N   0  0  0  0  0  0  0  0  0  0  0  0
   10.2048   -3.1813   22.0408 H   0  0  0  0  0  0  0  0  0  0  0  0
    8.7792   -4.1938   21.5037 H   0  0  0  0  0  0  0  0  0  0  0  0
    9.0383   -3.7628   23.2069 H   0  0  0  0  0  0  0  0  0  0  0  0
  1  2  1  0
  2  3  2  0
  3  4  1  0
  4  5  1  0
  5  6  2  0
  6  7  1  0
  7  8  2  0
  8  9  1  0
  9 10  2  0
 10 11  1  0
  8 12  1  0
  7 13  1  0
  6 14  1  0
  4 15  1  0
 15 16  1  0
 16 17  2  0
 17 18  1  0
 17 19  1  0
 19 20  1  0
 19 21  2  0
 21 22  1  0
 22 23  2  0
 23 24  1  0
 22 25  1  0
 21 26  1  0
 15 27  2  0
  1 28  1  0
  1 29  1  0
  1 30  1  0
 27  2  1  0
 10  5  1  0
 23 16  1  0
M  END
>  <cnnaffinity>  (1) 
-4.67912

>  <filename>  (1) 
Cc1nc(-c2cccc(F)c2Cl)n(-c2cccnc2)n1

$$$$
