
     RDKit          3D

 50 54  0  0  0  0  0  0  0  0999 V2000
   15.9128    5.3292   19.4861 C   0  0  0  0  0  0  0  0  0  0  0  0
   14.6041    4.7683   21.6081 C   0  0  0  0  0  0  0  0  0  0  0  0
   12.4624    4.0385   19.6786 N   0  0  0  0  0  0  0  0  0  0  0  0
   12.4544    3.5603   20.8417 C   0  0  0  0  0  0  0  0  0  0  0  0
   11.4491    2.5396   21.1459 C   0  0  0  0  0  0  0  0  0  0  0  0
   11.1605    2.1970   22.4299 C   0  0  0  0  0  0  0  0  0  0  0  0
    9.9551    1.4288   22.6162 N   0  0  0  0  0  0  0  0  0  0  0  0
    9.6238    0.4768   21.6955 N   0  0  0  0  0  0  0  0  0  0  0  0
    8.3440    0.2696   21.9184 C   0  0  0  0  0  0  0  0  0  0  0  0
    7.5383   -0.6567   21.0438 C   0  0  0  0  0  0  0  0  0  0  0  0
    6.8014    0.0186   19.8807 C   0  0  0  0  0  0  0  0  0  0  0  0
    5.6169    0.7346   20.1155 C   0  0  0  0  0  0  0  0  0  0  0  0
    4.9575    1.3333   19.0385 C   0  0  0  0  0  0  0  0  0  0  0  0
    5.5102    1.2140   17.7613 C   0  0  0  0  0  0  0  0  0  0  0  0
    6.6460    0.5439   17.5102 N   0  0  0  0  0  0  0  0  0  0  0  0
    7.2633   -0.0289   18.5519 C   0  0  0  0  0  0  0  0  0  0  0  0
    8.1904   -0.5557   18.3202 H   0  0  0  0  0  0  0  0  0  0  0  0
    5.0240    1.6733   16.9010 H   0  0  0  0  0  0  0  0  0  0  0  0
    4.0394    1.8968   19.1741 H   0  0  0  0  0  0  0  0  0  0  0  0
    5.2319    0.8235   21.1332 H   0  0  0  0  0  0  0  0  0  0  0  0
    6.8118   -1.1577   21.6919 H   0  0  0  0  0  0  0  0  0  0  0  0
    8.2202   -1.4266   20.6674 H   0  0  0  0  0  0  0  0  0  0  0  0
    7.8077    1.0308   22.9099 N   0  0  0  0  0  0  0  0  0  0  0  0
    8.8252    1.7736   23.3073 C   0  0  0  0  0  0  0  0  0  0  0  0
    8.7498    2.9392   24.2295 C   0  0  0  0  0  0  0  0  0  0  0  0
    7.6907    2.9222   25.3322 C   0  0  0  0  0  0  0  0  0  0  0  0
    7.6818    4.3906   25.7959 C   0  0  0  0  0  0  0  0  0  0  0  0
    7.9383    5.2278   24.5218 C   0  0  0  0  0  0  0  0  0  0  0  0
    8.4325    4.2370   23.4509 C   0  0  0  0  0  0  0  0  0  0  0  0
    9.4933    4.6752   22.6558 O   0  0  0  0  0  0  0  0  0  0  0  0
   10.3241    4.4688   23.1028 H   0  0  0  0  0  0  0  0  0  0  0  0
    7.6078    4.0412   22.7506 H   0  0  0  0  0  0  0  0  0  0  0  0
    7.0218    5.7109   24.1656 H   0  0  0  0  0  0  0  0  0  0  0  0
    8.6664    6.0301   24.6919 H   0  0  0  0  0  0  0  0  0  0  0  0
    6.7499    4.6708   26.2970 H   0  0  0  0  0  0  0  0  0  0  0  0
    8.4908    4.5520   26.5205 H   0  0  0  0  0  0  0  0  0  0  0  0
    7.9228    2.2212   26.1416 H   0  0  0  0  0  0  0  0  0  0  0  0
    6.7205    2.6354   24.9074 H   0  0  0  0  0  0  0  0  0  0  0  0
    9.7331    3.0737   24.6904 H   0  0  0  0  0  0  0  0  0  0  0  0
   11.9817    2.6474   23.5104 C   0  0  0  0  0  0  0  0  0  0  0  0
   13.0637    3.4908   23.2463 C   0  0  0  0  0  0  0  0  0  0  0  0
   13.3865    3.9698   21.9514 C   0  0  0  0  0  0  0  0  0  0  0  0
   14.7286    4.9368   20.3133 N   0  0  0  0  0  0  0  0  0  0  0  0
   13.8267    4.7221   19.7775 H   0  0  0  0  0  0  0  0  0  0  0  0
   13.7753    3.8485   23.9814 H   0  0  0  0  0  0  0  0  0  0  0  0
   11.8154    2.2919   24.5177 H   0  0  0  0  0  0  0  0  0  0  0  0
   10.9211    2.1220   20.3024 H   0  0  0  0  0  0  0  0  0  0  0  0
   15.9126    4.9703   18.4325 H   0  0  0  0  0  0  0  0  0  0  0  0
   16.8111    4.8531   19.7545 H   0  0  0  0  0  0  0  0  0  0  0  0
   16.1205    6.3979   19.3864 H   0  0  0  0  0  0  0  0  0  0  0  0
  1  2  1  0
  2  3  2  0
  3  4  1  0
  4  5  2  0
  5  6  1  0
  6  7  1  0
  7  8  1  0
  8  9  2  0
  9 10  1  0
 10 11  1  0
 11 12  2  0
 12 13  1  0
 13 14  2  0
 14 15  1  0
 15 16  2  0
 16 17  1  0
 14 18  1  0
 13 19  1  0
 12 20  1  0
 10 21  1  0
 10 22  1  0
  9 23  1  0
 23 24  2  0
 24 25  1  0
 25 26  1  0
 26 27  1  0
 27 28  1  0
 28 29  1  0
 29 30  1  0
 30 31  1  0
 29 32  1  0
 28 33  1  0
 28 34  1  0
 27 35  1  0
 27 36  1  0
 26 37  1  0
 26 38  1  0
 25 39  1  0
  6 40  2  0
 40 41  1  0
 41 42  2  0
 42 43  1  0
 43 44  1  0
 41 45  1  0
 40 46  1  0
  5 47  1  0
  1 48  1  0
  1 49  1  0
  1 50  1  0
 43  2  1  0
 42  4  1  0
 24  7  1  0
 29 25  1  0
 16 11  1  0
M  END
>  <cnnaffinity>  (1) 
-6.13113

>  <filename>  (1) 
Cc1nc2cc(-n3nc(Cc4cccnc4)nc3C3CCCC3O)ccc2[nH]1

$$$$
