
     RDKit          3D

 23 24  0  0  0  0  0  0  0  0999 V2000
    5.0865    1.6791   17.0620 H   0  0  0  0  0  0  0  0  0  0  0  0
    5.5394    1.1944   17.9258 C   0  0  0  0  0  0  0  0  0  0  0  0
    6.6979    0.5557   17.7106 N   0  0  0  0  0  0  0  0  0  0  0  0
    7.3006   -0.0363   18.7375 C   0  0  0  0  0  0  0  0  0  0  0  0
    8.2379   -0.5403   18.5006 H   0  0  0  0  0  0  0  0  0  0  0  0
    6.7406    0.0116   19.9994 C   0  0  0  0  0  0  0  0  0  0  0  0
    7.4823   -0.9077   21.2332 S   0  0  0  0  0  0  0  0  0  0  0  0
    7.3941   -0.1472   22.4490 O   0  0  0  0  0  0  0  0  0  0  0  0
    7.0913   -2.2821   21.0824 O   0  0  0  0  0  0  0  0  0  0  0  0
    9.0220   -0.7755   20.6652 O   0  0  0  0  0  0  0  0  0  0  0  0
    9.8780   -1.4347   21.4869 C   0  0  0  0  0  0  0  0  0  0  0  0
   11.1510   -1.4583   21.3523 N   0  0  0  0  0  0  0  0  0  0  0  0
   11.6320   -2.2281   22.4125 N   0  0  0  0  0  0  0  0  0  0  0  0
   10.6013   -2.6017   23.0890 C   0  0  0  0  0  0  0  0  0  0  0  0
   10.5417   -3.4395   24.3116 C   0  0  0  0  0  0  0  0  0  0  0  0
   11.4221   -3.2085   24.8966 H   0  0  0  0  0  0  0  0  0  0  0  0
   10.6005   -4.4955   24.0347 H   0  0  0  0  0  0  0  0  0  0  0  0
    9.6425   -3.2507   24.9072 H   0  0  0  0  0  0  0  0  0  0  0  0
    9.4432   -2.1509   22.5602 O   0  0  0  0  0  0  0  0  0  0  0  0
    5.5264    0.6523   20.2582 C   0  0  0  0  0  0  0  0  0  0  0  0
    5.0988    0.6716   21.2638 H   0  0  0  0  0  0  0  0  0  0  0  0
    4.9131    1.2559   19.1741 C   0  0  0  0  0  0  0  0  0  0  0  0
    3.9719    1.7787   19.2868 H   0  0  0  0  0  0  0  0  0  0  0  0
  1  2  1  0
  2  3  2  0
  3  4  1  0
  4  5  1  0
  4  6  2  0
  6  7  1  0
  7  8  2  0
  7  9  2  0
  7 10  1  0
 10 11  1  0
 11 12  2  0
 12 13  1  0
 13 14  2  0
 14 15  1  0
 15 16  1  0
 15 17  1  0
 15 18  1  0
 14 19  1  0
  6 20  1  0
 20 21  1  0
 20 22  2  0
 22 23  1  0
 22  2  1  0
 19 11  1  0
M  END
>  <cnnaffinity>  (1) 
-4.66465

>  <filename>  (1) 
Cc1nnc(OS(=O)(=O)c2cccnc2)o1

$$$$
