
     RDKit          3D

 36 38  0  0  0  0  0  0  0  0999 V2000
    8.3975   -3.7046   22.1992 C   0  0  0  0  0  0  0  0  0  0  0  0
    7.9626   -2.3054   21.9970 C   0  0  0  0  0  0  0  0  0  0  0  0
    7.6712   -1.8241   20.8103 N   0  0  0  0  0  0  0  0  0  0  0  0
    7.2607   -0.5579   21.0808 N   0  0  0  0  0  0  0  0  0  0  0  0
    6.6563    0.1763   20.0247 C   0  0  0  0  0  0  0  0  0  0  0  0
    5.5309    0.9838   20.2118 C   0  0  0  0  0  0  0  0  0  0  0  0
    4.9412    1.5504   19.0758 C   0  0  0  0  0  0  0  0  0  0  0  0
    5.5118    1.3266   17.8195 C   0  0  0  0  0  0  0  0  0  0  0  0
    6.6106    0.5715   17.6391 N   0  0  0  0  0  0  0  0  0  0  0  0
    7.1596    0.0080   18.7174 C   0  0  0  0  0  0  0  0  0  0  0  0
    8.0505   -0.5999   18.5650 H   0  0  0  0  0  0  0  0  0  0  0  0
    5.0741    1.7593   16.9218 H   0  0  0  0  0  0  0  0  0  0  0  0
    4.0546    2.1685   19.1609 H   0  0  0  0  0  0  0  0  0  0  0  0
    5.1406    1.1737   21.2135 H   0  0  0  0  0  0  0  0  0  0  0  0
    7.3950   -0.3405   22.4344 C   0  0  0  0  0  0  0  0  0  0  0  0
    7.2072    0.9409   23.1358 C   0  0  0  0  0  0  0  0  0  0  0  0
    7.5943    2.1595   22.5553 C   0  0  0  0  0  0  0  0  0  0  0  0
    7.3683    3.3659   23.2148 C   0  0  0  0  0  0  0  0  0  0  0  0
    7.5422    4.6697   22.4775 C   0  0  0  0  0  0  0  0  0  0  0  0
    6.2345    5.1343   21.8636 C   0  0  0  0  0  0  0  0  0  0  0  0
    6.4505    6.1584   21.0177 F   0  0  0  0  0  0  0  0  0  0  0  0
    5.3579    5.5519   22.7999 F   0  0  0  0  0  0  0  0  0  0  0  0
    5.6259    4.1459   21.1793 F   0  0  0  0  0  0  0  0  0  0  0  0
    8.2407    4.5627   21.6434 H   0  0  0  0  0  0  0  0  0  0  0  0
    7.9096    5.4614   23.1377 H   0  0  0  0  0  0  0  0  0  0  0  0
    6.8404    3.3588   24.5124 C   0  0  0  0  0  0  0  0  0  0  0  0
    6.4998    2.1466   25.1262 C   0  0  0  0  0  0  0  0  0  0  0  0
    6.6638    0.9472   24.4358 C   0  0  0  0  0  0  0  0  0  0  0  0
    6.3945   -0.0011   24.8984 H   0  0  0  0  0  0  0  0  0  0  0  0
    6.0849    2.1459   26.1318 H   0  0  0  0  0  0  0  0  0  0  0  0
    6.6786    4.3053   25.0214 H   0  0  0  0  0  0  0  0  0  0  0  0
    8.0741    2.1726   21.5776 H   0  0  0  0  0  0  0  0  0  0  0  0
    7.8107   -1.4417   23.0251 N   0  0  0  0  0  0  0  0  0  0  0  0
    8.1851   -4.2751   21.2973 H   0  0  0  0  0  0  0  0  0  0  0  0
    7.8690   -4.1232   23.0540 H   0  0  0  0  0  0  0  0  0  0  0  0
    9.4623   -3.7418   22.4292 H   0  0  0  0  0  0  0  0  0  0  0  0
  1  2  1  0
  2  3  2  0
  3  4  1  0
  4  5  1  0
  5  6  2  0
  6  7  1  0
  7  8  2  0
  8  9  1  0
  9 10  2  0
 10 11  1  0
  8 12  1  0
  7 13  1  0
  6 14  1  0
  4 15  1  0
 15 16  1  0
 16 17  2  0
 17 18  1  0
 18 19  1  0
 19 20  1  0
 20 21  1  0
 20 22  1  0
 20 23  1  0
 19 24  1  0
 19 25  1  0
 18 26  2  0
 26 27  1  0
 27 28  2  0
 28 29  1  0
 27 30  1  0
 26 31  1  0
 17 32  1  0
 15 33  2  0
  1 34  1  0
  1 35  1  0
  1 36  1  0
 33  2  1  0
 10  5  1  0
 28 16  1  0
M  END
>  <cnnaffinity>  (1) 
-5.25284

>  <filename>  (1) 
Cc1nc(-c2cccc(CC(F)(F)F)c2)n(-c2cccnc2)n1

$$$$
