
     RDKit          3D

 28 30  0  0  0  0  0  0  0  0999 V2000
    8.6075   -3.6517   22.2719 C   0  0  0  0  0  0  0  0  0  0  0  0
    8.1308   -2.2742   22.0226 C   0  0  0  0  0  0  0  0  0  0  0  0
    7.7527   -1.9349   20.8046 N   0  0  0  0  0  0  0  0  0  0  0  0
    7.3573   -0.6563   20.9546 N   0  0  0  0  0  0  0  0  0  0  0  0
    6.6476    0.0018   19.9147 C   0  0  0  0  0  0  0  0  0  0  0  0
    5.4269    0.6405   20.1639 C   0  0  0  0  0  0  0  0  0  0  0  0
    4.8050    1.2958   19.0984 C   0  0  0  0  0  0  0  0  0  0  0  0
    5.4155    1.2846   17.8418 C   0  0  0  0  0  0  0  0  0  0  0  0
    6.5767    0.6521   17.5966 N   0  0  0  0  0  0  0  0  0  0  0  0
    7.1694    0.0168   18.6096 C   0  0  0  0  0  0  0  0  0  0  0  0
    8.1142   -0.4744   18.3865 H   0  0  0  0  0  0  0  0  0  0  0  0
    4.9638    1.8011   16.9975 H   0  0  0  0  0  0  0  0  0  0  0  0
    3.8755    1.8359   19.2380 H   0  0  0  0  0  0  0  0  0  0  0  0
    5.0064    0.6542   21.1697 H   0  0  0  0  0  0  0  0  0  0  0  0
    7.5720   -0.2851   22.2495 C   0  0  0  0  0  0  0  0  0  0  0  0
    7.4081    1.0634   22.7166 C   0  0  0  0  0  0  0  0  0  0  0  0
    7.4284    2.2781   22.0609 C   0  0  0  0  0  0  0  0  0  0  0  0
    7.2439    3.2593   23.0517 C   0  0  0  0  0  0  0  0  0  0  0  0
    7.1958    4.9617   22.7621 Cl  0  0  0  0  0  0  0  0  0  0  0  0
    7.1228    2.6324   24.2704 C   0  0  0  0  0  0  0  0  0  0  0  0
    7.2319    1.2909   24.0492 N   0  0  0  0  0  0  0  0  0  0  0  0
    7.2500    0.5448   24.7331 H   0  0  0  0  0  0  0  0  0  0  0  0
    6.9848    3.0466   25.2553 H   0  0  0  0  0  0  0  0  0  0  0  0
    7.5464    2.4156   20.9935 H   0  0  0  0  0  0  0  0  0  0  0  0
    8.0278   -1.3046   22.9590 N   0  0  0  0  0  0  0  0  0  0  0  0
    9.4775   -3.6362   22.9280 H   0  0  0  0  0  0  0  0  0  0  0  0
    8.8430   -4.0601   21.2898 H   0  0  0  0  0  0  0  0  0  0  0  0
    7.8283   -4.2590   22.7362 H   0  0  0  0  0  0  0  0  0  0  0  0
  1  2  1  0
  2  3  2  0
  3  4  1  0
  4  5  1  0
  5  6  2  0
  6  7  1  0
  7  8  2  0
  8  9  1  0
  9 10  2  0
 10 11  1  0
  8 12  1  0
  7 13  1  0
  6 14  1  0
  4 15  1  0
 15 16  1  0
 16 17  2  0
 17 18  1  0
 18 19  1  0
 18 20  2  0
 20 21  1  0
 21 22  1  0
 20 23  1  0
 17 24  1  0
 15 25  2  0
  1 26  1  0
  1 27  1  0
  1 28  1  0
 25  2  1  0
 10  5  1  0
 21 16  1  0
M  END
>  <cnnaffinity>  (1) 
-4.98931

>  <filename>  (1) 
Cc1nc(-c2cc(Cl)c[nH]2)n(-c2cccnc2)n1

$$$$
