
     RDKit          3D

 46 49  0  0  0  0  0  0  0  0999 V2000
    9.3520    2.4665   25.8237 C   0  0  0  0  0  0  0  0  0  0  0  0
    8.5737    1.2007   25.8013 C   0  0  0  0  0  0  0  0  0  0  0  0
    8.7500    0.3076   24.8559 N   0  0  0  0  0  0  0  0  0  0  0  0
    7.8347   -0.6684   25.0996 C   0  0  0  0  0  0  0  0  0  0  0  0
    7.1419   -0.4223   26.2479 C   0  0  0  0  0  0  0  0  0  0  0  0
    6.1555   -1.3606   26.8678 C   0  0  0  0  0  0  0  0  0  0  0  0
    6.3080   -2.7655   26.2356 C   0  0  0  0  0  0  0  0  0  0  0  0
    6.4547   -2.7278   24.7012 C   0  0  0  0  0  0  0  0  0  0  0  0
    7.7042   -1.9020   24.2714 C   0  0  0  0  0  0  0  0  0  0  0  0
    7.7227   -1.5204   22.8176 C   0  0  0  0  0  0  0  0  0  0  0  0
    6.7925   -0.7963   22.2271 N   0  0  0  0  0  0  0  0  0  0  0  0
    7.2028   -0.7331   20.9390 C   0  0  0  0  0  0  0  0  0  0  0  0
    6.5161    0.0133   19.8924 C   0  0  0  0  0  0  0  0  0  0  0  0
    5.3159    0.7142   20.0935 C   0  0  0  0  0  0  0  0  0  0  0  0
    4.7641    1.3704   18.9949 C   0  0  0  0  0  0  0  0  0  0  0  0
    5.4366    1.3196   17.7670 C   0  0  0  0  0  0  0  0  0  0  0  0
    6.5907    0.6654   17.5726 N   0  0  0  0  0  0  0  0  0  0  0  0
    7.1138    0.0296   18.6223 C   0  0  0  0  0  0  0  0  0  0  0  0
    8.0558   -0.4917   18.4540 H   0  0  0  0  0  0  0  0  0  0  0  0
    5.0276    1.8204   16.8951 H   0  0  0  0  0  0  0  0  0  0  0  0
    3.8345    1.9247   19.0732 H   0  0  0  0  0  0  0  0  0  0  0  0
    4.8409    0.7526   21.0774 H   0  0  0  0  0  0  0  0  0  0  0  0
    8.3145   -1.3999   20.6966 N   0  0  0  0  0  0  0  0  0  0  0  0
    8.6587   -1.8915   21.9066 N   0  0  0  0  0  0  0  0  0  0  0  0
    9.9550   -2.5201   22.0637 C   0  0  0  0  0  0  0  0  0  0  0  0
   11.0302   -1.6943   22.7690 C   0  0  0  0  0  0  0  0  0  0  0  0
   11.5559   -0.4913   22.0292 C   0  0  0  0  0  0  0  0  0  0  0  0
   10.6824    0.5141   21.8860 F   0  0  0  0  0  0  0  0  0  0  0  0
   11.9661   -0.8566   20.7993 F   0  0  0  0  0  0  0  0  0  0  0  0
   12.6250    0.0091   22.6837 F   0  0  0  0  0  0  0  0  0  0  0  0
   10.6959   -1.3567   23.7532 H   0  0  0  0  0  0  0  0  0  0  0  0
   11.8980   -2.3492   22.8729 H   0  0  0  0  0  0  0  0  0  0  0  0
   10.2597   -2.7465   21.0418 H   0  0  0  0  0  0  0  0  0  0  0  0
    9.8321   -3.4631   22.6057 H   0  0  0  0  0  0  0  0  0  0  0  0
    8.5964   -2.5022   24.4960 H   0  0  0  0  0  0  0  0  0  0  0  0
    6.5456   -3.7433   24.3031 H   0  0  0  0  0  0  0  0  0  0  0  0
    5.5560   -2.2891   24.2521 H   0  0  0  0  0  0  0  0  0  0  0  0
    5.4509   -3.3882   26.5124 H   0  0  0  0  0  0  0  0  0  0  0  0
    7.1901   -3.2569   26.6660 H   0  0  0  0  0  0  0  0  0  0  0  0
    5.1298   -1.0004   26.7097 H   0  0  0  0  0  0  0  0  0  0  0  0
    6.2929   -1.4191   27.9545 H   0  0  0  0  0  0  0  0  0  0  0  0
    7.6114    0.8054   26.6825 N   0  0  0  0  0  0  0  0  0  0  0  0
    7.3865    1.2720   27.5451 H   0  0  0  0  0  0  0  0  0  0  0  0
   10.4048    2.1821   25.9008 H   0  0  0  0  0  0  0  0  0  0  0  0
    9.2031    2.9934   24.8739 H   0  0  0  0  0  0  0  0  0  0  0  0
    9.0831    3.1279   26.6469 H   0  0  0  0  0  0  0  0  0  0  0  0
  1  2  1  0
  2  3  2  0
  3  4  1  0
  4  5  2  0
  5  6  1  0
  6  7  1  0
  7  8  1  0
  8  9  1  0
  9 10  1  0
 10 11  2  0
 11 12  1  0
 12 13  1  0
 13 14  2  0
 14 15  1  0
 15 16  2  0
 16 17  1  0
 17 18  2  0
 18 19  1  0
 16 20  1  0
 15 21  1  0
 14 22  1  0
 12 23  2  0
 23 24  1  0
 24 25  1  0
 25 26  1  0
 26 27  1  0
 27 28  1  0
 27 29  1  0
 27 30  1  0
 26 31  1  0
 26 32  1  0
 25 33  1  0
 25 34  1  0
  9 35  1  0
  8 36  1  0
  8 37  1  0
  7 38  1  0
  7 39  1  0
  6 40  1  0
  6 41  1  0
  5 42  1  0
 42 43  1  0
  1 44  1  0
  1 45  1  0
  1 46  1  0
 42  2  1  0
  9  4  1  0
 24 10  1  0
 18 13  1  0
M  END
>  <cnnaffinity>  (1) 
-6.5536

>  <filename>  (1) 
Cc1nc2c([nH]1)CCCC2c1nc(-c2cccnc2)nn1CCC(F)(F)F

$$$$
