
     RDKit          3D

 43 45  0  0  0  0  0  0  0  0999 V2000
    7.0970    6.4967   24.3069 C   0  0  0  0  0  0  0  0  0  0  0  0
    7.8051    5.2082   24.5842 C   0  0  0  0  0  0  0  0  0  0  0  0
    8.1942    4.9950   25.8406 N   0  0  0  0  0  0  0  0  0  0  0  0
    8.9098    3.8968   26.0666 C   0  0  0  0  0  0  0  0  0  0  0  0
    9.3177    3.0194   25.1559 N   0  0  0  0  0  0  0  0  0  0  0  0
    8.8018    3.1541   23.9179 C   0  0  0  0  0  0  0  0  0  0  0  0
    8.9986    2.0185   22.9448 C   0  0  0  0  0  0  0  0  0  0  0  0
    7.9828    1.4455   22.3173 N   0  0  0  0  0  0  0  0  0  0  0  0
    8.5553    0.4442   21.6189 C   0  0  0  0  0  0  0  0  0  0  0  0
    7.7503   -0.5685   20.8566 C   0  0  0  0  0  0  0  0  0  0  0  0
    6.8748    0.0055   19.7483 C   0  0  0  0  0  0  0  0  0  0  0  0
    5.6641    0.6383   20.0651 C   0  0  0  0  0  0  0  0  0  0  0  0
    4.9410    1.2655   19.0475 C   0  0  0  0  0  0  0  0  0  0  0  0
    5.4503    1.2367   17.7485 C   0  0  0  0  0  0  0  0  0  0  0  0
    6.5843    0.6040   17.4116 N   0  0  0  0  0  0  0  0  0  0  0  0
    7.2681    0.0046   18.3963 C   0  0  0  0  0  0  0  0  0  0  0  0
    8.1974   -0.4806   18.0975 H   0  0  0  0  0  0  0  0  0  0  0  0
    4.9207    1.7361   16.9409 H   0  0  0  0  0  0  0  0  0  0  0  0
    4.0164    1.7925   19.2518 H   0  0  0  0  0  0  0  0  0  0  0  0
    5.3173    0.6746   21.0988 H   0  0  0  0  0  0  0  0  0  0  0  0
    8.4414   -1.3344   20.4924 H   0  0  0  0  0  0  0  0  0  0  0  0
    7.1239   -1.0522   21.6149 H   0  0  0  0  0  0  0  0  0  0  0  0
    9.8610    0.3887   21.7361 N   0  0  0  0  0  0  0  0  0  0  0  0
   10.1630    1.3857   22.6052 N   0  0  0  0  0  0  0  0  0  0  0  0
   11.5980    1.6805   22.7853 C   0  0  0  0  0  0  0  0  0  0  0  0
   12.0726    1.6464   24.2497 C   0  0  0  0  0  0  0  0  0  0  0  0
   11.6286    2.4556   24.8397 H   0  0  0  0  0  0  0  0  0  0  0  0
   13.1659    1.7123   24.3112 H   0  0  0  0  0  0  0  0  0  0  0  0
   11.7857    0.6919   24.7063 H   0  0  0  0  0  0  0  0  0  0  0  0
   11.9630    2.9637   22.0072 C   0  0  0  0  0  0  0  0  0  0  0  0
   11.7962    2.8245   20.6839 F   0  0  0  0  0  0  0  0  0  0  0  0
   13.2597    3.2594   22.2217 F   0  0  0  0  0  0  0  0  0  0  0  0
   11.2453    4.0284   22.4072 F   0  0  0  0  0  0  0  0  0  0  0  0
   12.1192    0.8869   22.2340 H   0  0  0  0  0  0  0  0  0  0  0  0
    8.0122    4.2613   23.5599 C   0  0  0  0  0  0  0  0  0  0  0  0
    7.3480    4.4265   22.2026 C   0  0  0  0  0  0  0  0  0  0  0  0
    7.8788    3.8638   21.4370 H   0  0  0  0  0  0  0  0  0  0  0  0
    6.3336    4.0163   22.2241 H   0  0  0  0  0  0  0  0  0  0  0  0
    7.2777    5.4696   21.8772 H   0  0  0  0  0  0  0  0  0  0  0  0
    9.1750    3.6945   27.0907 H   0  0  0  0  0  0  0  0  0  0  0  0
    7.5937    7.0289   23.4905 H   0  0  0  0  0  0  0  0  0  0  0  0
    7.0819    7.1308   25.1933 H   0  0  0  0  0  0  0  0  0  0  0  0
    6.0676    6.3074   23.9873 H   0  0  0  0  0  0  0  0  0  0  0  0
  1  2  1  0
  2  3  2  0
  3  4  1  0
  4  5  2  0
  5  6  1  0
  6  7  1  0
  7  8  2  0
  8  9  1  0
  9 10  1  0
 10 11  1  0
 11 12  2  0
 12 13  1  0
 13 14  2  0
 14 15  1  0
 15 16  2  0
 16 17  1  0
 14 18  1  0
 13 19  1  0
 12 20  1  0
 10 21  1  0
 10 22  1  0
  9 23  2  0
 23 24  1  0
 24 25  1  0
 25 26  1  0
 26 27  1  0
 26 28  1  0
 26 29  1  0
 25 30  1  0
 30 31  1  0
 30 32  1  0
 30 33  1  0
 25 34  1  0
  6 35  2  0
 35 36  1  0
 36 37  1  0
 36 38  1  0
 36 39  1  0
  4 40  1  0
  1 41  1  0
  1 42  1  0
  1 43  1  0
 35  2  1  0
 24  7  1  0
 16 11  1  0
M  END
>  <cnnaffinity>  (1) 
-5.63123

>  <filename>  (1) 
Cc1ncnc(-c2nc(Cc3cccnc3)nn2C(C)C(F)(F)F)c1C

$$$$
