
     RDKit          3D

 29 31  0  0  0  0  0  0  0  0999 V2000
    5.1139    1.7445   17.0525 H   0  0  0  0  0  0  0  0  0  0  0  0
    5.5067    1.2463   17.9392 C   0  0  0  0  0  0  0  0  0  0  0  0
    6.6618    0.5819   17.7779 N   0  0  0  0  0  0  0  0  0  0  0  0
    7.1794   -0.0362   18.8453 C   0  0  0  0  0  0  0  0  0  0  0  0
    8.1390   -0.5291   18.6955 H   0  0  0  0  0  0  0  0  0  0  0  0
    6.5648   -0.0490   20.1202 C   0  0  0  0  0  0  0  0  0  0  0  0
    7.1241   -0.8007   21.2109 N   0  0  0  0  0  0  0  0  0  0  0  0
    7.4238   -2.1426   21.2152 C   0  0  0  0  0  0  0  0  0  0  0  0
    7.2056   -2.7893   20.3792 H   0  0  0  0  0  0  0  0  0  0  0  0
    7.9003   -2.5228   22.3632 N   0  0  0  0  0  0  0  0  0  0  0  0
    7.8881   -1.4257   23.1872 N   0  0  0  0  0  0  0  0  0  0  0  0
    7.4201   -0.4092   22.5057 C   0  0  0  0  0  0  0  0  0  0  0  0
    7.2125    0.9039   23.0474 C   0  0  0  0  0  0  0  0  0  0  0  0
    6.5860    1.1858   24.2982 C   0  0  0  0  0  0  0  0  0  0  0  0
    6.1217    0.2189   25.3340 C   0  0  0  0  0  0  0  0  0  0  0  0
    5.6393    0.7505   26.1597 H   0  0  0  0  0  0  0  0  0  0  0  0
    6.9896   -0.3492   25.6850 H   0  0  0  0  0  0  0  0  0  0  0  0
    5.4306   -0.5067   24.8938 H   0  0  0  0  0  0  0  0  0  0  0  0
    6.4568    2.4730   24.4619 N   0  0  0  0  0  0  0  0  0  0  0  0
    7.0397    3.0616   23.3564 O   0  0  0  0  0  0  0  0  0  0  0  0
    7.5165    2.1312   22.5296 C   0  0  0  0  0  0  0  0  0  0  0  0
    8.2839    2.5717   21.3378 C   0  0  0  0  0  0  0  0  0  0  0  0
    7.7122    2.3397   20.4365 H   0  0  0  0  0  0  0  0  0  0  0  0
    9.2176    2.0072   21.2658 H   0  0  0  0  0  0  0  0  0  0  0  0
    8.4941    3.6455   21.3983 H   0  0  0  0  0  0  0  0  0  0  0  0
    5.3761    0.6724   20.2857 C   0  0  0  0  0  0  0  0  0  0  0  0
    4.8955    0.7178   21.2664 H   0  0  0  0  0  0  0  0  0  0  0  0
    4.8378    1.3172   19.1658 C   0  0  0  0  0  0  0  0  0  0  0  0
    3.9153    1.8834   19.2284 H   0  0  0  0  0  0  0  0  0  0  0  0
  1  2  1  0
  2  3  2  0
  3  4  1  0
  4  5  1  0
  4  6  2  0
  6  7  1  0
  7  8  1  0
  8  9  1  0
  8 10  2  0
 10 11  1  0
 11 12  2  0
 12 13  1  0
 13 14  1  0
 14 15  1  0
 15 16  1  0
 15 17  1  0
 15 18  1  0
 14 19  2  0
 19 20  1  0
 20 21  1  0
 21 22  1  0
 22 23  1  0
 22 24  1  0
 22 25  1  0
  6 26  1  0
 26 27  1  0
 26 28  2  0
 28 29  1  0
 28  2  1  0
 12  7  1  0
 21 13  2  0
M  END
>  <cnnaffinity>  (1) 
-4.87969

>  <filename>  (1) 
Cc1noc(C)c1-c1nncn1-c1cccnc1

$$$$
