
     RDKit          3D

 46 49  0  0  0  0  0  0  0  0999 V2000
    7.3998    1.8211   29.2530 C   0  0  0  0  0  0  0  0  0  0  0  0
    7.7505    2.1166   27.8161 C   0  0  0  0  0  0  0  0  0  0  0  0
    8.0176    3.3687   27.5089 N   0  0  0  0  0  0  0  0  0  0  0  0
    8.5016    3.6131   26.2413 C   0  0  0  0  0  0  0  0  0  0  0  0
    8.9959    4.9058   25.9622 C   0  0  0  0  0  0  0  0  0  0  0  0
    9.4799    5.1548   24.6976 C   0  0  0  0  0  0  0  0  0  0  0  0
   10.0023    6.3604   24.4203 F   0  0  0  0  0  0  0  0  0  0  0  0
    9.4838    4.1798   23.6815 C   0  0  0  0  0  0  0  0  0  0  0  0
    9.0260    2.8840   23.9249 C   0  0  0  0  0  0  0  0  0  0  0  0
    9.0083    1.8353   22.8841 C   0  0  0  0  0  0  0  0  0  0  0  0
    7.9403    1.1924   22.4453 N   0  0  0  0  0  0  0  0  0  0  0  0
    8.4424    0.3061   21.5560 C   0  0  0  0  0  0  0  0  0  0  0  0
    7.5719   -0.6813   20.8266 C   0  0  0  0  0  0  0  0  0  0  0  0
    6.7430   -0.0463   19.7141 C   0  0  0  0  0  0  0  0  0  0  0  0
    5.5576    0.6344   20.0268 C   0  0  0  0  0  0  0  0  0  0  0  0
    4.8757    1.3035   19.0116 C   0  0  0  0  0  0  0  0  0  0  0  0
    5.4068    1.2875   17.7203 C   0  0  0  0  0  0  0  0  0  0  0  0
    6.5340    0.6357   17.3939 N   0  0  0  0  0  0  0  0  0  0  0  0
    7.1729   -0.0108   18.3749 C   0  0  0  0  0  0  0  0  0  0  0  0
    8.1049   -0.5030   18.0903 H   0  0  0  0  0  0  0  0  0  0  0  0
    4.9110    1.8192   16.9129 H   0  0  0  0  0  0  0  0  0  0  0  0
    3.9642    1.8542   19.2078 H   0  0  0  0  0  0  0  0  0  0  0  0
    5.2120    0.6708   21.0622 H   0  0  0  0  0  0  0  0  0  0  0  0
    8.2170   -1.4864   20.4574 H   0  0  0  0  0  0  0  0  0  0  0  0
    6.9120   -1.1169   21.5861 H   0  0  0  0  0  0  0  0  0  0  0  0
    9.7474    0.3732   21.3977 N   0  0  0  0  0  0  0  0  0  0  0  0
   10.1187    1.3800   22.2297 N   0  0  0  0  0  0  0  0  0  0  0  0
   11.5469    1.6582   22.3853 C   0  0  0  0  0  0  0  0  0  0  0  0
   12.0856    2.8974   21.6748 C   0  0  0  0  0  0  0  0  0  0  0  0
   11.9297    2.8343   20.3097 F   0  0  0  0  0  0  0  0  0  0  0  0
   11.5903    3.7984   22.0420 H   0  0  0  0  0  0  0  0  0  0  0  0
   13.1529    3.0032   21.9022 H   0  0  0  0  0  0  0  0  0  0  0  0
   12.0512    0.7611   22.0154 H   0  0  0  0  0  0  0  0  0  0  0  0
   11.7761    1.7596   23.4524 H   0  0  0  0  0  0  0  0  0  0  0  0
    8.5626    2.5636   25.2412 C   0  0  0  0  0  0  0  0  0  0  0  0
    8.2402    1.2654   25.5809 N   0  0  0  0  0  0  0  0  0  0  0  0
    7.8520    1.0371   26.8141 C   0  0  0  0  0  0  0  0  0  0  0  0
    7.5123   -0.3897   27.1614 C   0  0  0  0  0  0  0  0  0  0  0  0
    7.5203   -0.9879   26.2475 H   0  0  0  0  0  0  0  0  0  0  0  0
    6.5284   -0.4701   27.6338 H   0  0  0  0  0  0  0  0  0  0  0  0
    8.2397   -0.8088   27.8642 H   0  0  0  0  0  0  0  0  0  0  0  0
    9.8624    4.4870   22.7096 H   0  0  0  0  0  0  0  0  0  0  0  0
    8.9969    5.6527   26.7474 H   0  0  0  0  0  0  0  0  0  0  0  0
    8.0684    1.0657   29.6855 H   0  0  0  0  0  0  0  0  0  0  0  0
    6.3862    1.4224   29.3359 H   0  0  0  0  0  0  0  0  0  0  0  0
    7.4639    2.7350   29.8474 H   0  0  0  0  0  0  0  0  0  0  0  0
  1  2  1  0
  2  3  2  0
  3  4  1  0
  4  5  2  0
  5  6  1  0
  6  7  1  0
  6  8  2  0
  8  9  1  0
  9 10  1  0
 10 11  2  0
 11 12  1  0
 12 13  1  0
 13 14  1  0
 14 15  2  0
 15 16  1  0
 16 17  2  0
 17 18  1  0
 18 19  2  0
 19 20  1  0
 17 21  1  0
 16 22  1  0
 15 23  1  0
 13 24  1  0
 13 25  1  0
 12 26  2  0
 26 27  1  0
 27 28  1  0
 28 29  1  0
 29 30  1  0
 29 31  1  0
 29 32  1  0
 28 33  1  0
 28 34  1  0
  9 35  2  0
 35 36  1  0
 36 37  2  0
 37 38  1  0
 38 39  1  0
 38 40  1  0
 38 41  1  0
  8 42  1  0
  5 43  1  0
  1 44  1  0
  1 45  1  0
  1 46  1  0
 37  2  1  0
 35  4  1  0
 27 10  1  0
 19 14  1  0
M  END
>  <cnnaffinity>  (1) 
-6.1405

>  <filename>  (1) 
Cc1nc2cc(F)cc(-c3nc(Cc4cccnc4)nn3CCF)c2nc1C

$$$$
