
     RDKit          3D

 36 39  0  0  0  0  0  0  0  0999 V2000
    8.6964   -3.4460   22.1733 C   0  0  0  0  0  0  0  0  0  0  0  0
    8.0556   -2.1312   21.9055 C   0  0  0  0  0  0  0  0  0  0  0  0
    7.5831   -1.8173   20.7184 N   0  0  0  0  0  0  0  0  0  0  0  0
    7.0894   -0.5691   20.9061 N   0  0  0  0  0  0  0  0  0  0  0  0
    6.4503    0.1186   19.8427 C   0  0  0  0  0  0  0  0  0  0  0  0
    5.2697    0.8628   20.0165 C   0  0  0  0  0  0  0  0  0  0  0  0
    4.7317    1.4977   18.8893 C   0  0  0  0  0  0  0  0  0  0  0  0
    5.3902    1.3878   17.6613 C   0  0  0  0  0  0  0  0  0  0  0  0
    6.5111    0.6629   17.4897 N   0  0  0  0  0  0  0  0  0  0  0  0
    7.0118    0.0318   18.5526 C   0  0  0  0  0  0  0  0  0  0  0  0
    7.9071   -0.5703   18.3945 H   0  0  0  0  0  0  0  0  0  0  0  0
    5.0122    1.8935   16.7748 H   0  0  0  0  0  0  0  0  0  0  0  0
    3.8258    2.0942   18.9554 H   0  0  0  0  0  0  0  0  0  0  0  0
    4.7686    0.9353   20.9832 H   0  0  0  0  0  0  0  0  0  0  0  0
    7.3488   -0.1827   22.1938 C   0  0  0  0  0  0  0  0  0  0  0  0
    7.0577    1.1887   22.6605 C   0  0  2  0  0  0  0  0  0  0  0  0
    7.6259    2.3828   21.9420 C   0  0  0  0  0  0  0  0  0  0  0  0
    8.1152    2.0256   23.3325 C   0  0  1  0  0  0  0  0  0  0  0  0
    7.8127    2.9009   24.5108 C   0  0  0  0  0  0  0  0  0  0  0  0
    6.5231    3.3538   24.8173 C   0  0  0  0  0  0  0  0  0  0  0  0
    6.3346    4.2717   25.8540 C   0  0  0  0  0  0  0  0  0  0  0  0
    7.3207    4.7309   26.6354 N   0  0  0  0  0  0  0  0  0  0  0  0
    8.5490    4.2680   26.3665 C   0  0  0  0  0  0  0  0  0  0  0  0
    8.8429    3.3776   25.3326 C   0  0  0  0  0  0  0  0  0  0  0  0
    9.8717    3.0637   25.1935 H   0  0  0  0  0  0  0  0  0  0  0  0
    9.3523    4.6249   27.0063 H   0  0  0  0  0  0  0  0  0  0  0  0
    5.3431    4.6806   26.0368 H   0  0  0  0  0  0  0  0  0  0  0  0
    5.6594    3.0141   24.2641 H   0  0  0  0  0  0  0  0  0  0  0  0
    9.0985    1.5575   23.3832 H   0  0  0  0  0  0  0  0  0  0  0  0
    8.2756    2.1853   21.0912 H   0  0  0  0  0  0  0  0  0  0  0  0
    6.9937    3.2608   21.8306 H   0  0  0  0  0  0  0  0  0  0  0  0
    6.0393    1.2869   23.0225 H   0  0  0  0  0  0  0  0  0  0  0  0
    7.9345   -1.1631   22.8518 N   0  0  0  0  0  0  0  0  0  0  0  0
    9.7333   -3.3096   22.4943 H   0  0  0  0  0  0  0  0  0  0  0  0
    8.1418   -3.9727   22.9535 H   0  0  0  0  0  0  0  0  0  0  0  0
    8.6707   -4.0401   21.2630 H   0  0  0  0  0  0  0  0  0  0  0  0
  1  2  1  0
  2  3  2  0
  3  4  1  0
  4  5  1  0
  5  6  2  0
  6  7  1  0
  7  8  2  0
  8  9  1  0
  9 10  2  0
 10 11  1  0
  8 12  1  0
  7 13  1  0
  6 14  1  0
  4 15  1  0
 15 16  1  0
 16 17  1  0
 17 18  1  0
 18 19  1  0
 19 20  2  0
 20 21  1  0
 21 22  2  0
 22 23  1  0
 23 24  2  0
 24 25  1  0
 23 26  1  0
 21 27  1  0
 20 28  1  0
 18 29  1  6
 17 30  1  0
 17 31  1  0
 16 32  1  1
 15 33  2  0
  1 34  1  0
  1 35  1  0
  1 36  1  0
 33  2  1  0
 10  5  1  0
 18 16  1  0
 24 19  1  0
M  END
>  <cnnaffinity>  (1) 
-4.97939

>  <filename>  (1) 
Cc1nc([C@@H]2C[C@H]2c2ccncc2)n(-c2cccnc2)n1

$$$$
