
     RDKit          3D

 33 35  0  0  0  0  0  0  0  0999 V2000
   10.9088   -1.3364   21.8136 C   0  0  0  0  0  0  0  0  0  0  0  0
    9.4290   -1.3416   21.8398 C   0  0  0  0  0  0  0  0  0  0  0  0
    8.8491   -1.9815   22.8539 N   0  0  0  0  0  0  0  0  0  0  0  0
    7.5245   -1.9928   22.9090 C   0  0  0  0  0  0  0  0  0  0  0  0
    6.6986   -2.7793   24.2537 S   0  0  0  0  0  0  0  0  0  0  0  0
    6.6396   -1.4189   25.3736 C   0  0  0  0  0  0  0  0  0  0  0  0
    5.5306   -0.5696   25.3980 C   0  0  0  0  0  0  0  0  0  0  0  0
    5.5337    0.5950   26.1600 C   0  0  0  0  0  0  0  0  0  0  0  0
    6.6178    0.8820   26.9925 C   0  0  0  0  0  0  0  0  0  0  0  0
    6.5706    2.4586   28.0807 Br  0  0  0  0  0  0  0  0  0  0  0  0
    7.7048   -0.0046   27.0385 C   0  0  0  0  0  0  0  0  0  0  0  0
    7.7253   -1.1499   26.2174 C   0  0  0  0  0  0  0  0  0  0  0  0
    8.5689   -1.8362   26.2292 H   0  0  0  0  0  0  0  0  0  0  0  0
    8.5352    0.2137   27.7067 H   0  0  0  0  0  0  0  0  0  0  0  0
    4.6862    1.2687   26.0990 H   0  0  0  0  0  0  0  0  0  0  0  0
    4.6365   -0.7943   24.8452 H   0  0  0  0  0  0  0  0  0  0  0  0
    6.7893   -1.3670   21.9309 C   0  0  0  0  0  0  0  0  0  0  0  0
    7.4437   -0.7074   20.9244 C   0  0  0  0  0  0  0  0  0  0  0  0
    6.6788   -0.0063   19.9198 C   0  0  0  0  0  0  0  0  0  0  0  0
    5.4483    0.6189   20.1800 C   0  0  0  0  0  0  0  0  0  0  0  0
    4.8335    1.2708   19.1176 C   0  0  0  0  0  0  0  0  0  0  0  0
    5.4288    1.2702   17.8549 C   0  0  0  0  0  0  0  0  0  0  0  0
    6.6002    0.6595   17.6119 N   0  0  0  0  0  0  0  0  0  0  0  0
    7.2150    0.0459   18.6346 C   0  0  0  0  0  0  0  0  0  0  0  0
    8.1661   -0.4411   18.4435 H   0  0  0  0  0  0  0  0  0  0  0  0
    4.9277    1.7920   17.0470 H   0  0  0  0  0  0  0  0  0  0  0  0
    3.9036    1.8050   19.2518 H   0  0  0  0  0  0  0  0  0  0  0  0
    4.9859    0.6325   21.1692 H   0  0  0  0  0  0  0  0  0  0  0  0
    8.7709   -0.7170   20.8624 N   0  0  0  0  0  0  0  0  0  0  0  0
    5.7163   -1.3896   21.9396 H   0  0  0  0  0  0  0  0  0  0  0  0
   11.2946   -1.3926   22.8379 H   0  0  0  0  0  0  0  0  0  0  0  0
   11.2477   -2.2051   21.2460 H   0  0  0  0  0  0  0  0  0  0  0  0
   11.2594   -0.4157   21.3375 H   0  0  0  0  0  0  0  0  0  0  0  0
  1  2  1  0
  2  3  2  0
  3  4  1  0
  4  5  1  0
  5  6  1  0
  6  7  2  0
  7  8  1  0
  8  9  2  0
  9 10  1  0
  9 11  1  0
 11 12  2  0
 12 13  1  0
 11 14  1  0
  8 15  1  0
  7 16  1  0
  4 17  2  0
 17 18  1  0
 18 19  1  0
 19 20  2  0
 20 21  1  0
 21 22  2  0
 22 23  1  0
 23 24  2  0
 24 25  1  0
 22 26  1  0
 21 27  1  0
 20 28  1  0
 18 29  2  0
 17 30  1  0
  1 31  1  0
  1 32  1  0
  1 33  1  0
 29  2  1  0
 12  6  1  0
 24 19  1  0
M  END
>  <cnnaffinity>  (1) 
-5.34487

>  <filename>  (1) 
Cc1nc(Sc2ccc(Br)cc2)cc(-c2cccnc2)n1

$$$$
