
     RDKit          3D

 27 29  0  0  0  0  0  0  0  0999 V2000
    4.9118    1.7819   16.9934 H   0  0  0  0  0  0  0  0  0  0  0  0
    5.3964    1.2964   17.8354 C   0  0  0  0  0  0  0  0  0  0  0  0
    6.5598    0.6767   17.5750 N   0  0  0  0  0  0  0  0  0  0  0  0
    7.1677    0.0584   18.5916 C   0  0  0  0  0  0  0  0  0  0  0  0
    8.1208   -0.4223   18.3885 H   0  0  0  0  0  0  0  0  0  0  0  0
    6.6391   -0.0021   19.8960 C   0  0  0  0  0  0  0  0  0  0  0  0
    7.3504   -0.6817   20.9115 N   0  0  0  0  0  0  0  0  0  0  0  0
    8.7570   -0.6556   21.1350 C   0  0  0  0  0  0  0  0  0  0  0  0
    9.5722   -0.0535   20.4576 O   0  0  0  0  0  0  0  0  0  0  0  0
    8.9162   -1.4919   22.3027 C   0  0  0  0  0  0  0  0  0  0  0  0
    9.8801   -1.6874   22.7284 H   0  0  0  0  0  0  0  0  0  0  0  0
    7.7018   -1.9265   22.7180 C   0  0  0  0  0  0  0  0  0  0  0  0
    7.3288   -2.7760   23.8470 C   0  0  0  0  0  0  0  0  0  0  0  0
    6.1486   -3.1606   24.1950 N   0  0  0  0  0  0  0  0  0  0  0  0
    6.3183   -3.9562   25.3126 N   0  0  0  0  0  0  0  0  0  0  0  0
    7.5852   -3.9894   25.5493 C   0  0  0  0  0  0  0  0  0  0  0  0
    8.2601   -4.6913   26.6589 C   0  0  0  0  0  0  0  0  0  0  0  0
    9.3058   -4.9077   26.4380 H   0  0  0  0  0  0  0  0  0  0  0  0
    8.2082   -4.0837   27.5670 H   0  0  0  0  0  0  0  0  0  0  0  0
    7.7215   -5.6185   26.8539 H   0  0  0  0  0  0  0  0  0  0  0  0
    8.3044   -3.2642   24.6633 O   0  0  0  0  0  0  0  0  0  0  0  0
    6.7345   -1.4223   21.8942 N   0  0  0  0  0  0  0  0  0  0  0  0
    5.7275   -1.5667   21.9166 H   0  0  0  0  0  0  0  0  0  0  0  0
    5.4275    0.6504   20.1599 C   0  0  0  0  0  0  0  0  0  0  0  0
    5.0127    0.6346   21.1706 H   0  0  0  0  0  0  0  0  0  0  0  0
    4.8017    1.3167   19.1042 C   0  0  0  0  0  0  0  0  0  0  0  0
    3.8682    1.8478   19.2618 H   0  0  0  0  0  0  0  0  0  0  0  0
  1  2  1  0
  2  3  2  0
  3  4  1  0
  4  5  1  0
  4  6  2  0
  6  7  1  0
  7  8  1  0
  8  9  2  0
  8 10  1  0
 10 11  1  0
 10 12  2  0
 12 13  1  0
 13 14  2  0
 14 15  1  0
 15 16  2  0
 16 17  1  0
 17 18  1  0
 17 19  1  0
 17 20  1  0
 16 21  1  0
 12 22  1  0
 22 23  1  0
  6 24  1  0
 24 25  1  0
 24 26  2  0
 26 27  1  0
 26  2  1  0
 22  7  1  0
 21 13  1  0
M  END
>  <cnnaffinity>  (1) 
-4.93536

>  <filename>  (1) 
Cc1nnc(-c2cc(=O)n(-c3cccnc3)[nH]2)o1

$$$$
