
     RDKit          3D

 38 40  0  0  0  0  0  0  0  0999 V2000
   10.8881   -1.3566   21.8438 C   0  0  0  0  0  0  0  0  0  0  0  0
    9.3938   -1.3694   21.9143 C   0  0  0  0  0  0  0  0  0  0  0  0
    8.8429   -2.0395   22.9249 N   0  0  0  0  0  0  0  0  0  0  0  0
    7.5160   -2.0428   22.9437 C   0  0  0  0  0  0  0  0  0  0  0  0
    6.9069   -2.7013   23.9452 N   0  0  0  0  0  0  0  0  0  0  0  0
    7.5977   -3.4088   25.0097 C   0  0  0  0  0  0  0  0  0  0  0  0
    6.6286   -4.0598   25.9846 C   0  0  0  0  0  0  0  0  0  0  0  0
    6.2806   -5.4152   25.8879 C   0  0  0  0  0  0  0  0  0  0  0  0
    5.4037   -6.0191   26.7989 C   0  0  0  0  0  0  0  0  0  0  0  0
    4.8554   -5.2689   27.8400 C   0  0  0  0  0  0  0  0  0  0  0  0
    5.1872   -3.9165   27.9649 C   0  0  0  0  0  0  0  0  0  0  0  0
    6.0611   -3.3243   27.0409 C   0  0  0  0  0  0  0  0  0  0  0  0
    6.4220   -2.0189   27.1569 O   0  0  0  0  0  0  0  0  0  0  0  0
    5.9451   -1.6552   27.9100 H   0  0  0  0  0  0  0  0  0  0  0  0
    4.7765   -3.3219   28.7787 H   0  0  0  0  0  0  0  0  0  0  0  0
    4.1716   -5.7362   28.5478 H   0  0  0  0  0  0  0  0  0  0  0  0
    5.1616   -7.0718   26.6925 H   0  0  0  0  0  0  0  0  0  0  0  0
    6.7258   -6.0098   25.0920 H   0  0  0  0  0  0  0  0  0  0  0  0
    8.2385   -4.1845   24.5631 H   0  0  0  0  0  0  0  0  0  0  0  0
    8.2691   -2.7162   25.5377 H   0  0  0  0  0  0  0  0  0  0  0  0
    5.9073   -2.6386   23.9321 H   0  0  0  0  0  0  0  0  0  0  0  0
    6.7387   -1.4121   21.9802 C   0  0  0  0  0  0  0  0  0  0  0  0
    7.4156   -0.7374   20.9953 C   0  0  0  0  0  0  0  0  0  0  0  0
    6.6767    0.0016   19.9378 C   0  0  0  0  0  0  0  0  0  0  0  0
    5.4501    0.6483   20.1755 C   0  0  0  0  0  0  0  0  0  0  0  0
    4.8190    1.3017   19.1182 C   0  0  0  0  0  0  0  0  0  0  0  0
    5.4201    1.2731   17.8556 C   0  0  0  0  0  0  0  0  0  0  0  0
    6.5821    0.6508   17.6086 N   0  0  0  0  0  0  0  0  0  0  0  0
    7.1947    0.0482   18.6350 C   0  0  0  0  0  0  0  0  0  0  0  0
    8.1411   -0.4298   18.3899 H   0  0  0  0  0  0  0  0  0  0  0  0
    4.9506    1.7696   17.0082 H   0  0  0  0  0  0  0  0  0  0  0  0
    3.8827    1.8340   19.2571 H   0  0  0  0  0  0  0  0  0  0  0  0
    4.9956    0.6590   21.1686 H   0  0  0  0  0  0  0  0  0  0  0  0
    8.7520   -0.7402   20.9308 N   0  0  0  0  0  0  0  0  0  0  0  0
    5.6685   -1.4816   21.9694 H   0  0  0  0  0  0  0  0  0  0  0  0
   11.2157   -0.4384   21.3481 H   0  0  0  0  0  0  0  0  0  0  0  0
   11.2180   -2.2091   21.2408 H   0  0  0  0  0  0  0  0  0  0  0  0
   11.3198   -1.4431   22.8459 H   0  0  0  0  0  0  0  0  0  0  0  0
  1  2  1  0
  2  3  2  0
  3  4  1  0
  4  5  1  0
  5  6  1  0
  6  7  1  0
  7  8  2  0
  8  9  1  0
  9 10  2  0
 10 11  1  0
 11 12  2  0
 12 13  1  0
 13 14  1  0
 11 15  1  0
 10 16  1  0
  9 17  1  0
  8 18  1  0
  6 19  1  0
  6 20  1  0
  5 21  1  0
  4 22  2  0
 22 23  1  0
 23 24  1  0
 24 25  2  0
 25 26  1  0
 26 27  2  0
 27 28  1  0
 28 29  2  0
 29 30  1  0
 27 31  1  0
 26 32  1  0
 25 33  1  0
 23 34  2  0
 22 35  1  0
  1 36  1  0
  1 37  1  0
  1 38  1  0
 34  2  1  0
 12  7  1  0
 29 24  1  0
M  END
>  <cnnaffinity>  (1) 
-5.2294

>  <filename>  (1) 
Cc1nc(NCc2ccccc2O)cc(-c2cccnc2)n1

$$$$
