
     RDKit          3D

 34 35  0  0  0  0  0  0  0  0999 V2000
    4.9280    1.7845   16.9936 H   0  0  0  0  0  0  0  0  0  0  0  0
    5.4051    1.2910   17.8376 C   0  0  0  0  0  0  0  0  0  0  0  0
    6.5645    0.6681   17.5847 N   0  0  0  0  0  0  0  0  0  0  0  0
    7.1579    0.0439   18.6105 C   0  0  0  0  0  0  0  0  0  0  0  0
    8.1062   -0.4312   18.3817 H   0  0  0  0  0  0  0  0  0  0  0  0
    6.6451   -0.0125   19.9226 C   0  0  0  0  0  0  0  0  0  0  0  0
    7.4839   -0.6818   21.0029 C   0  0  1  0  0  0  0  0  0  0  0  0
    8.0572   -1.8773   20.3982 N   0  0  0  0  0  0  0  0  0  0  0  0
    8.6480   -2.3408   21.0758 H   0  0  0  0  0  0  0  0  0  0  0  0
    7.3005   -2.5301   20.2070 H   0  0  0  0  0  0  0  0  0  0  0  0
    8.6513    0.2281   21.3825 C   0  0  0  0  0  0  0  0  0  0  0  0
    9.2143    0.5027   20.4864 H   0  0  0  0  0  0  0  0  0  0  0  0
    8.2800    1.1487   21.8400 H   0  0  0  0  0  0  0  0  0  0  0  0
    9.3331   -0.2679   22.0820 H   0  0  0  0  0  0  0  0  0  0  0  0
    6.6248   -1.0320   22.2633 C   0  0  0  0  0  0  0  0  0  0  0  0
    5.7428   -1.5622   21.8841 H   0  0  0  0  0  0  0  0  0  0  0  0
    6.2702   -0.0940   22.7044 H   0  0  0  0  0  0  0  0  0  0  0  0
    7.2783   -1.8609   23.3283 C   0  0  0  0  0  0  0  0  0  0  0  0
    8.0694   -1.4393   24.4351 C   0  0  0  0  0  0  0  0  0  0  0  0
    8.3615   -0.0331   24.8322 C   0  0  0  0  0  0  0  0  0  0  0  0
    8.4268    0.0674   25.9156 H   0  0  0  0  0  0  0  0  0  0  0  0
    7.5846    0.6391   24.4638 H   0  0  0  0  0  0  0  0  0  0  0  0
    9.3081    0.3067   24.4016 H   0  0  0  0  0  0  0  0  0  0  0  0
    8.5501   -2.4559   25.1038 N   0  0  0  0  0  0  0  0  0  0  0  0
    8.0925   -3.5860   24.4438 O   0  0  0  0  0  0  0  0  0  0  0  0
    7.3385   -3.2169   23.4003 C   0  0  0  0  0  0  0  0  0  0  0  0
    6.7519   -4.2808   22.5383 C   0  0  0  0  0  0  0  0  0  0  0  0
    5.8388   -3.9100   22.0651 H   0  0  0  0  0  0  0  0  0  0  0  0
    7.4276   -4.5720   21.7250 H   0  0  0  0  0  0  0  0  0  0  0  0
    6.5141   -5.1845   23.1024 H   0  0  0  0  0  0  0  0  0  0  0  0
    5.4325    0.6472   20.1579 C   0  0  0  0  0  0  0  0  0  0  0  0
    4.9847    0.6459   21.1513 H   0  0  0  0  0  0  0  0  0  0  0  0
    4.8093    1.3099   19.1005 C   0  0  0  0  0  0  0  0  0  0  0  0
    3.8801    1.8399   19.2553 H   0  0  0  0  0  0  0  0  0  0  0  0
  1  2  1  0
  2  3  2  0
  3  4  1  0
  4  5  1  0
  4  6  2  0
  6  7  1  0
  7  8  1  6
  8  9  1  0
  8 10  1  0
  7 11  1  0
 11 12  1  0
 11 13  1  0
 11 14  1  0
  7 15  1  0
 15 16  1  0
 15 17  1  0
 15 18  1  0
 18 19  1  0
 19 20  1  0
 20 21  1  0
 20 22  1  0
 20 23  1  0
 19 24  2  0
 24 25  1  0
 25 26  1  0
 26 27  1  0
 27 28  1  0
 27 29  1  0
 27 30  1  0
  6 31  1  0
 31 32  1  0
 31 33  2  0
 33 34  1  0
 33  2  1  0
 26 18  2  0
M  END
>  <cnnaffinity>  (1) 
-4.53319

>  <filename>  (1) 
Cc1noc(C)c1C[C@@](C)(N)c1cccnc1

$$$$
