
     RDKit          3D

 31 33  0  0  0  0  0  0  0  0999 V2000
    4.9216    1.8002   17.0338 H   0  0  0  0  0  0  0  0  0  0  0  0
    5.4025    1.2773   17.8555 C   0  0  0  0  0  0  0  0  0  0  0  0
    6.5563    0.6578   17.5558 N   0  0  0  0  0  0  0  0  0  0  0  0
    7.2103    0.0527   18.5513 C   0  0  0  0  0  0  0  0  0  0  0  0
    8.1566   -0.4287   18.3154 H   0  0  0  0  0  0  0  0  0  0  0  0
    6.7270    0.0061   19.8788 C   0  0  0  0  0  0  0  0  0  0  0  0
    7.4400   -0.6548   20.9411 N   0  0  0  0  0  0  0  0  0  0  0  0
    8.8045   -0.5927   21.1627 C   0  0  0  0  0  0  0  0  0  0  0  0
    9.6031    0.0183   20.5042 O   0  0  0  0  0  0  0  0  0  0  0  0
    9.0638   -1.5008   22.3687 C   0  0  0  0  0  0  0  0  0  0  0  0
   10.1275   -1.7968   22.8462 O   0  0  0  0  0  0  0  0  0  0  0  0
    7.8092   -1.9720   22.7557 N   0  0  0  0  0  0  0  0  0  0  0  0
    7.5627   -2.8063   23.8973 C   0  0  0  0  0  0  0  0  0  0  0  0
    6.8302   -4.0424   23.9675 C   0  0  0  0  0  0  0  0  0  0  0  0
    6.0426   -4.7226   22.8957 C   0  0  0  0  0  0  0  0  0  0  0  0
    6.4938   -4.5694   21.9145 H   0  0  0  0  0  0  0  0  0  0  0  0
    5.9566   -5.7898   23.0928 H   0  0  0  0  0  0  0  0  0  0  0  0
    5.0393   -4.2948   22.8493 H   0  0  0  0  0  0  0  0  0  0  0  0
    6.9268   -4.5619   25.1612 N   0  0  0  0  0  0  0  0  0  0  0  0
    7.6946   -3.6945   25.9054 O   0  0  0  0  0  0  0  0  0  0  0  0
    8.0687   -2.6490   25.1622 C   0  0  0  0  0  0  0  0  0  0  0  0
    8.9594   -1.6229   25.7744 C   0  0  0  0  0  0  0  0  0  0  0  0
    8.9110   -1.6228   26.8655 H   0  0  0  0  0  0  0  0  0  0  0  0
    9.9857   -1.8241   25.4534 H   0  0  0  0  0  0  0  0  0  0  0  0
    8.7054   -0.6267   25.3993 H   0  0  0  0  0  0  0  0  0  0  0  0
    6.8794   -1.6293   21.7622 C   0  0  0  0  0  0  0  0  0  0  0  0
    5.8008   -2.1272   21.5891 O   0  0  0  0  0  0  0  0  0  0  0  0
    5.4986    0.6066   20.1658 C   0  0  0  0  0  0  0  0  0  0  0  0
    5.0869    0.5280   21.1712 H   0  0  0  0  0  0  0  0  0  0  0  0
    4.8318    1.2784   19.1330 C   0  0  0  0  0  0  0  0  0  0  0  0
    3.8975    1.8083   19.3008 H   0  0  0  0  0  0  0  0  0  0  0  0
  1  2  1  0
  2  3  2  0
  3  4  1  0
  4  5  1  0
  4  6  2  0
  6  7  1  0
  7  8  1  0
  8  9  2  0
  8 10  1  0
 10 11  2  0
 10 12  1  0
 12 13  1  0
 13 14  1  0
 14 15  1  0
 15 16  1  0
 15 17  1  0
 15 18  1  0
 14 19  2  0
 19 20  1  0
 20 21  1  0
 21 22  1  0
 22 23  1  0
 22 24  1  0
 22 25  1  0
 12 26  1  0
 26 27  2  0
  6 28  1  0
 28 29  1  0
 28 30  2  0
 30 31  1  0
 30  2  1  0
 26  7  1  0
 21 13  2  0
M  END
>  <cnnaffinity>  (1) 
-5.12308

>  <filename>  (1) 
Cc1noc(C)c1N1C(=O)C(=O)N(c2cccnc2)C1=O

$$$$
