
     RDKit          3D

 50 54  0  0  0  0  0  0  0  0999 V2000
    7.0623    5.5847   29.3635 C   0  0  0  0  0  0  0  0  0  0  0  0
    7.5077    4.9917   28.0761 C   0  0  0  0  0  0  0  0  0  0  0  0
    7.1951    3.8247   27.5981 N   0  0  0  0  0  0  0  0  0  0  0  0
    7.7796    3.7796   26.3353 C   0  0  0  0  0  0  0  0  0  0  0  0
    7.7638    2.7671   25.3630 C   0  0  0  0  0  0  0  0  0  0  0  0
    8.4184    3.0107   24.1512 C   0  0  0  0  0  0  0  0  0  0  0  0
    8.5745    1.9725   23.1796 N   0  0  0  0  0  0  0  0  0  0  0  0
    7.5585    1.1240   22.8748 N   0  0  0  0  0  0  0  0  0  0  0  0
    8.0438    0.4221   21.8727 C   0  0  0  0  0  0  0  0  0  0  0  0
    7.2575   -0.5958   21.0981 C   0  0  0  0  0  0  0  0  0  0  0  0
    6.5633    0.0016   19.8760 C   0  0  0  0  0  0  0  0  0  0  0  0
    5.3805    0.7338   20.0408 C   0  0  0  0  0  0  0  0  0  0  0  0
    4.8100    1.3620   18.9320 C   0  0  0  0  0  0  0  0  0  0  0  0
    5.4475    1.2456   17.6940 C   0  0  0  0  0  0  0  0  0  0  0  0
    6.5692    0.5341   17.5053 N   0  0  0  0  0  0  0  0  0  0  0  0
    7.1060   -0.0610   18.5791 C   0  0  0  0  0  0  0  0  0  0  0  0
    8.0341   -0.6066   18.4015 H   0  0  0  0  0  0  0  0  0  0  0  0
    5.0417    1.7415   16.8136 H   0  0  0  0  0  0  0  0  0  0  0  0
    3.9097    1.9596   19.0187 H   0  0  0  0  0  0  0  0  0  0  0  0
    4.9310    0.8202   21.0318 H   0  0  0  0  0  0  0  0  0  0  0  0
    6.5214   -1.0430   21.7761 H   0  0  0  0  0  0  0  0  0  0  0  0
    7.9580   -1.3844   20.8057 H   0  0  0  0  0  0  0  0  0  0  0  0
    9.3207    0.7275   21.5260 N   0  0  0  0  0  0  0  0  0  0  0  0
    9.6443    1.6906   22.3745 C   0  0  0  0  0  0  0  0  0  0  0  0
   10.9812    2.4037   22.4413 C   0  0  0  0  0  0  0  0  0  0  0  0
   12.1230    1.7220   21.6707 C   0  0  0  0  0  0  0  0  0  0  0  0
   12.6725    0.4773   22.3802 C   0  0  0  0  0  0  0  0  0  0  0  0
   13.0173    0.8384   23.8298 C   0  0  0  0  0  0  0  0  0  0  0  0
   11.8322    1.5426   24.4909 C   0  0  0  0  0  0  0  0  0  0  0  0
   11.4231    2.6925   23.7619 O   0  0  0  0  0  0  0  0  0  0  0  0
   12.0944    1.9413   25.4615 H   0  0  0  0  0  0  0  0  0  0  0  0
   10.9942    0.8371   24.6263 H   0  0  0  0  0  0  0  0  0  0  0  0
   13.2949   -0.0456   24.4132 H   0  0  0  0  0  0  0  0  0  0  0  0
   13.8897    1.5077   23.8354 H   0  0  0  0  0  0  0  0  0  0  0  0
   11.9295   -0.3331   22.3281 H   0  0  0  0  0  0  0  0  0  0  0  0
   13.5737    0.1141   21.8686 H   0  0  0  0  0  0  0  0  0  0  0  0
   11.7981    1.5135   20.6502 H   0  0  0  0  0  0  0  0  0  0  0  0
   12.9041    2.4878   21.6316 H   0  0  0  0  0  0  0  0  0  0  0  0
   10.8251    3.3865   21.9915 H   0  0  0  0  0  0  0  0  0  0  0  0
    8.9581    4.2981   23.8696 C   0  0  0  0  0  0  0  0  0  0  0  0
    9.0274    5.2800   24.8484 C   0  0  0  0  0  0  0  0  0  0  0  0
    8.4574    4.9926   26.0847 C   0  0  0  0  0  0  0  0  0  0  0  0
    8.3025    5.7297   27.2380 N   0  0  0  0  0  0  0  0  0  0  0  0
    8.4818    6.7118   27.3374 H   0  0  0  0  0  0  0  0  0  0  0  0
    9.5070    6.2354   24.6576 H   0  0  0  0  0  0  0  0  0  0  0  0
    9.3029    4.5296   22.8676 H   0  0  0  0  0  0  0  0  0  0  0  0
    7.2702    1.8246   25.5833 H   0  0  0  0  0  0  0  0  0  0  0  0
    6.4070    6.4377   29.1551 H   0  0  0  0  0  0  0  0  0  0  0  0
    6.5154    4.8459   29.9495 H   0  0  0  0  0  0  0  0  0  0  0  0
    7.9234    5.9481   29.9314 H   0  0  0  0  0  0  0  0  0  0  0  0
  1  2  1  0
  2  3  2  0
  3  4  1  0
  4  5  2  0
  5  6  1  0
  6  7  1  0
  7  8  1  0
  8  9  2  0
  9 10  1  0
 10 11  1  0
 11 12  2  0
 12 13  1  0
 13 14  2  0
 14 15  1  0
 15 16  2  0
 16 17  1  0
 14 18  1  0
 13 19  1  0
 12 20  1  0
 10 21  1  0
 10 22  1  0
  9 23  1  0
 23 24  2  0
 24 25  1  0
 25 26  1  0
 26 27  1  0
 27 28  1  0
 28 29  1  0
 29 30  1  0
 29 31  1  0
 29 32  1  0
 28 33  1  0
 28 34  1  0
 27 35  1  0
 27 36  1  0
 26 37  1  0
 26 38  1  0
 25 39  1  0
  6 40  2  0
 40 41  1  0
 41 42  2  0
 42 43  1  0
 43 44  1  0
 41 45  1  0
 40 46  1  0
  5 47  1  0
  1 48  1  0
  1 49  1  0
  1 50  1  0
 43  2  1  0
 42  4  1  0
 24  7  1  0
 30 25  1  0
 16 11  1  0
M  END
>  <cnnaffinity>  (1) 
-5.62228

>  <filename>  (1) 
Cc1nc2cc(-n3nc(Cc4cccnc4)nc3C3CCCCO3)ccc2[nH]1

$$$$
