
     RDKit          3D

 43 47  0  0  0  0  0  0  0  0999 V2000
    6.3500    3.5848   23.9135 C   0  0  0  0  0  0  0  0  0  0  0  0
    7.7725    3.6458   24.3311 C   0  0  0  0  0  0  0  0  0  0  0  0
    8.8876    2.9624   23.9367 C   0  0  0  0  0  0  0  0  0  0  0  0
    8.8564    1.9056   22.9391 C   0  0  0  0  0  0  0  0  0  0  0  0
    7.7949    1.1772   22.6203 N   0  0  0  0  0  0  0  0  0  0  0  0
    8.2731    0.2974   21.7073 C   0  0  0  0  0  0  0  0  0  0  0  0
    7.4109   -0.6897   20.9653 C   0  0  0  0  0  0  0  0  0  0  0  0
    6.6480   -0.0443   19.8089 C   0  0  0  0  0  0  0  0  0  0  0  0
    5.4550    0.6460   20.0634 C   0  0  0  0  0  0  0  0  0  0  0  0
    4.8195    1.3132   19.0136 C   0  0  0  0  0  0  0  0  0  0  0  0
    5.4062    1.2770   17.7459 C   0  0  0  0  0  0  0  0  0  0  0  0
    6.5424    0.6163   17.4737 N   0  0  0  0  0  0  0  0  0  0  0  0
    7.1388   -0.0195   18.4908 C   0  0  0  0  0  0  0  0  0  0  0  0
    8.0640   -0.5440   18.2462 H   0  0  0  0  0  0  0  0  0  0  0  0
    4.9537    1.8116   16.9128 H   0  0  0  0  0  0  0  0  0  0  0  0
    3.9036    1.8740   19.1683 H   0  0  0  0  0  0  0  0  0  0  0  0
    5.0456    0.6635   21.0757 H   0  0  0  0  0  0  0  0  0  0  0  0
    8.0680   -1.4926   20.6118 H   0  0  0  0  0  0  0  0  0  0  0  0
    6.7026   -1.1304   21.6782 H   0  0  0  0  0  0  0  0  0  0  0  0
    9.5624    0.4146   21.4404 N   0  0  0  0  0  0  0  0  0  0  0  0
    9.9335    1.4793   22.2057 N   0  0  0  0  0  0  0  0  0  0  0  0
   11.2390    2.0378   22.1811 C   0  0  0  0  0  0  0  0  0  0  0  0
   11.4719    3.4184   22.1964 C   0  0  0  0  0  0  0  0  0  0  0  0
   12.7646    3.9431   22.4141 C   0  0  0  0  0  0  0  0  0  0  0  0
   13.8577    3.1125   22.6388 C   0  0  0  0  0  0  0  0  0  0  0  0
   13.6424    1.7177   22.6070 C   0  0  0  0  0  0  0  0  0  0  0  0
   12.3683    1.2059   22.2920 C   0  0  0  0  0  0  0  0  0  0  0  0
   12.5558   -0.1548   22.2152 N   0  0  0  0  0  0  0  0  0  0  0  0
   13.8734   -0.3966   22.4698 C   0  0  0  0  0  0  0  0  0  0  0  0
   14.5544    0.6827   22.7316 N   0  0  0  0  0  0  0  0  0  0  0  0
   14.2928   -1.3950   22.4491 H   0  0  0  0  0  0  0  0  0  0  0  0
   11.8667   -0.8074   21.8851 H   0  0  0  0  0  0  0  0  0  0  0  0
   14.8579    3.5212   22.7232 H   0  0  0  0  0  0  0  0  0  0  0  0
   12.8993    5.0199   22.4329 H   0  0  0  0  0  0  0  0  0  0  0  0
   10.6407    4.1141   22.1617 H   0  0  0  0  0  0  0  0  0  0  0  0
    9.9785    3.4837   24.7250 C   0  0  0  0  0  0  0  0  0  0  0  0
    9.4490    4.4391   25.5106 C   0  0  0  0  0  0  0  0  0  0  0  0
    8.1147    4.5466   25.2821 O   0  0  0  0  0  0  0  0  0  0  0  0
    9.8696    5.1228   26.2361 H   0  0  0  0  0  0  0  0  0  0  0  0
   11.0139    3.1881   24.6690 H   0  0  0  0  0  0  0  0  0  0  0  0
    5.9249    2.6126   24.1773 H   0  0  0  0  0  0  0  0  0  0  0  0
    6.2996    3.6401   22.8238 H   0  0  0  0  0  0  0  0  0  0  0  0
    5.7610    4.3900   24.3559 H   0  0  0  0  0  0  0  0  0  0  0  0
  1  2  1  0
  2  3  2  0
  3  4  1  0
  4  5  2  0
  5  6  1  0
  6  7  1  0
  7  8  1  0
  8  9  2  0
  9 10  1  0
 10 11  2  0
 11 12  1  0
 12 13  2  0
 13 14  1  0
 11 15  1  0
 10 16  1  0
  9 17  1  0
  7 18  1  0
  7 19  1  0
  6 20  2  0
 20 21  1  0
 21 22  1  0
 22 23  2  0
 23 24  1  0
 24 25  2  0
 25 26  1  0
 26 27  2  0
 27 28  1  0
 28 29  1  0
 29 30  2  0
 29 31  1  0
 28 32  1  0
 25 33  1  0
 24 34  1  0
 23 35  1  0
  3 36  1  0
 36 37  2  0
 37 38  1  0
 37 39  1  0
 36 40  1  0
  1 41  1  0
  1 42  1  0
  1 43  1  0
 38  2  1  0
 21  4  1  0
 27 22  1  0
 13  8  1  0
 30 26  1  0
M  END
>  <cnnaffinity>  (1) 
-6.62411

>  <filename>  (1) 
Cc1occc1-c1nc(Cc2cccnc2)nn1-c1cccc2nc[nH]c12

$$$$
