
     RDKit          3D

 33 35  0  0  0  0  0  0  0  0999 V2000
   11.5789   -1.7842   21.6900 C   0  0  0  0  0  0  0  0  0  0  0  0
   10.4478   -1.7180   22.6335 C   0  0  0  0  0  0  0  0  0  0  0  0
    9.2427   -1.1058   22.4658 C   0  0  0  0  0  0  0  0  0  0  0  0
    8.8168   -0.5374   21.1963 C   0  0  0  0  0  0  0  0  0  0  0  0
    9.6109   -0.1113   20.3730 O   0  0  0  0  0  0  0  0  0  0  0  0
    7.4652   -0.5798   20.9779 N   0  0  0  0  0  0  0  0  0  0  0  0
    6.7430    0.0007   19.9101 C   0  0  0  0  0  0  0  0  0  0  0  0
    5.5082    0.5919   20.1885 C   0  0  0  0  0  0  0  0  0  0  0  0
    4.8393    1.2434   19.1475 C   0  0  0  0  0  0  0  0  0  0  0  0
    5.4073    1.2542   17.8688 C   0  0  0  0  0  0  0  0  0  0  0  0
    6.5626    0.6363   17.5704 N   0  0  0  0  0  0  0  0  0  0  0  0
    7.2136    0.0330   18.5734 C   0  0  0  0  0  0  0  0  0  0  0  0
    8.1540   -0.4524   18.3321 H   0  0  0  0  0  0  0  0  0  0  0  0
    4.9206    1.7877   17.0569 H   0  0  0  0  0  0  0  0  0  0  0  0
    3.9037    1.7574   19.3230 H   0  0  0  0  0  0  0  0  0  0  0  0
    5.1219    0.5582   21.2101 H   0  0  0  0  0  0  0  0  0  0  0  0
    6.9456   -0.8493   21.7952 H   0  0  0  0  0  0  0  0  0  0  0  0
    8.5893   -1.2992   23.7184 C   0  0  0  0  0  0  0  0  0  0  0  0
    7.3393   -0.7104   24.1900 C   0  0  0  0  0  0  0  0  0  0  0  0
    6.9290    0.5708   23.8037 C   0  0  0  0  0  0  0  0  0  0  0  0
    5.7459    1.0679   24.3420 C   0  0  0  0  0  0  0  0  0  0  0  0
    5.0306    0.2840   25.2545 C   0  0  0  0  0  0  0  0  0  0  0  0
    5.4366   -0.9266   25.6534 N   0  0  0  0  0  0  0  0  0  0  0  0
    6.5718   -1.4026   25.1368 C   0  0  0  0  0  0  0  0  0  0  0  0
    6.9011   -2.3753   25.4962 H   0  0  0  0  0  0  0  0  0  0  0  0
    4.0953    0.6477   25.6823 H   0  0  0  0  0  0  0  0  0  0  0  0
    5.3848    2.0509   24.0781 H   0  0  0  0  0  0  0  0  0  0  0  0
    7.5461    1.1920   23.1509 H   0  0  0  0  0  0  0  0  0  0  0  0
    9.3168   -2.0384   24.5128 N   0  0  0  0  0  0  0  0  0  0  0  0
   10.4790   -2.3079   23.8228 O   0  0  0  0  0  0  0  0  0  0  0  0
   11.8058   -0.7634   21.3767 H   0  0  0  0  0  0  0  0  0  0  0  0
   11.1784   -2.2364   20.7877 H   0  0  0  0  0  0  0  0  0  0  0  0
   12.4567   -2.3230   22.0516 H   0  0  0  0  0  0  0  0  0  0  0  0
  1  2  1  0
  2  3  2  0
  3  4  1  0
  4  5  2  0
  4  6  1  0
  6  7  1  0
  7  8  2  0
  8  9  1  0
  9 10  2  0
 10 11  1  0
 11 12  2  0
 12 13  1  0
 10 14  1  0
  9 15  1  0
  8 16  1  0
  6 17  1  0
  3 18  1  0
 18 19  1  0
 19 20  2  0
 20 21  1  0
 21 22  2  0
 22 23  1  0
 23 24  2  0
 24 25  1  0
 22 26  1  0
 21 27  1  0
 20 28  1  0
 18 29  2  0
 29 30  1  0
  1 31  1  0
  1 32  1  0
  1 33  1  0
 30  2  1  0
 12  7  1  0
 24 19  1  0
M  END
>  <cnnaffinity>  (1) 
-5.52835

>  <filename>  (1) 
Cc1onc(-c2cccnc2)c1C(=O)Nc1cccnc1

$$$$
