
     RDKit          3D

 47 51  0  0  0  0  0  0  0  0999 V2000
   12.2290    3.9347   20.2461 C   0  0  0  0  0  0  0  0  0  0  0  0
   11.8803    3.5232   21.6760 C   0  0  0  0  0  0  0  0  0  0  0  0
   13.0217    3.8321   22.4457 O   0  0  0  0  0  0  0  0  0  0  0  0
   12.9578    3.0916   23.6332 C   0  0  0  0  0  0  0  0  0  0  0  0
   12.3551    1.7292   23.2820 C   0  0  0  0  0  0  0  0  0  0  0  0
   11.6110    2.0125   21.9506 C   0  0  0  0  0  0  0  0  0  0  0  0
   10.2007    1.6211   21.9429 N   0  0  0  0  0  0  0  0  0  0  0  0
    9.8334    0.5537   21.1819 N   0  0  0  0  0  0  0  0  0  0  0  0
    8.5452    0.4432   21.4239 C   0  0  0  0  0  0  0  0  0  0  0  0
    7.6680   -0.5962   20.7952 C   0  0  0  0  0  0  0  0  0  0  0  0
    6.7832   -0.0427   19.6865 C   0  0  0  0  0  0  0  0  0  0  0  0
    5.5978    0.6326   20.0075 C   0  0  0  0  0  0  0  0  0  0  0  0
    4.8931    1.2860   18.9933 C   0  0  0  0  0  0  0  0  0  0  0  0
    5.4073    1.2433   17.6936 C   0  0  0  0  0  0  0  0  0  0  0  0
    6.5222    0.5762   17.3568 N   0  0  0  0  0  0  0  0  0  0  0  0
    7.1831   -0.0469   18.3401 C   0  0  0  0  0  0  0  0  0  0  0  0
    8.1007   -0.5630   18.0533 H   0  0  0  0  0  0  0  0  0  0  0  0
    4.9084    1.7713   16.8831 H   0  0  0  0  0  0  0  0  0  0  0  0
    3.9848    1.8443   19.1992 H   0  0  0  0  0  0  0  0  0  0  0  0
    5.2679    0.6753   21.0481 H   0  0  0  0  0  0  0  0  0  0  0  0
    8.3088   -1.4091   20.4424 H   0  0  0  0  0  0  0  0  0  0  0  0
    7.0469   -0.9802   21.6098 H   0  0  0  0  0  0  0  0  0  0  0  0
    8.0555    1.3411   22.3058 N   0  0  0  0  0  0  0  0  0  0  0  0
    9.1068    2.0705   22.6259 C   0  0  0  0  0  0  0  0  0  0  0  0
    8.9698    3.1530   23.6368 C   0  0  0  0  0  0  0  0  0  0  0  0
    8.4769    4.4092   23.2685 C   0  0  0  0  0  0  0  0  0  0  0  0
    8.0386    4.7872   21.6392 Cl  0  0  0  0  0  0  0  0  0  0  0  0
    8.2724    5.4140   24.2352 C   0  0  0  0  0  0  0  0  0  0  0  0
    8.5141    5.1222   25.5904 C   0  0  0  0  0  0  0  0  0  0  0  0
    8.9226    3.8351   26.0103 C   0  0  0  0  0  0  0  0  0  0  0  0
    9.1631    2.8856   25.0296 C   0  0  0  0  0  0  0  0  0  0  0  0
    9.4710    1.8907   25.3513 H   0  0  0  0  0  0  0  0  0  0  0  0
    9.0060    3.6030   27.0594 H   0  0  0  0  0  0  0  0  0  0  0  0
    8.2377    6.2744   26.2639 N   0  0  0  0  0  0  0  0  0  0  0  0
    7.8421    7.2748   25.4399 N   0  0  0  0  0  0  0  0  0  0  0  0
    7.8518    6.7771   24.2202 C   0  0  0  0  0  0  0  0  0  0  0  0
    7.5634    7.3865   23.3711 H   0  0  0  0  0  0  0  0  0  0  0  0
    8.3427    6.4578   27.2504 H   0  0  0  0  0  0  0  0  0  0  0  0
   12.0638    1.4339   21.1432 H   0  0  0  0  0  0  0  0  0  0  0  0
   13.1281    0.9696   23.1184 H   0  0  0  0  0  0  0  0  0  0  0  0
   11.7065    1.3698   24.0894 H   0  0  0  0  0  0  0  0  0  0  0  0
   13.9799    3.0018   23.9877 H   0  0  0  0  0  0  0  0  0  0  0  0
   12.3433    3.6199   24.3847 H   0  0  0  0  0  0  0  0  0  0  0  0
   11.0185    4.0918   22.0696 H   0  0  0  0  0  0  0  0  0  0  0  0
   12.1660    5.0225   20.1408 H   0  0  0  0  0  0  0  0  0  0  0  0
   11.5670    3.4659   19.5133 H   0  0  0  0  0  0  0  0  0  0  0  0
   13.2546    3.6858   20.0065 H   0  0  0  0  0  0  0  0  0  0  0  0
  1  2  1  0
  2  3  1  0
  3  4  1  0
  4  5  1  0
  5  6  1  0
  6  7  1  0
  7  8  1  0
  8  9  2  0
  9 10  1  0
 10 11  1  0
 11 12  2  0
 12 13  1  0
 13 14  2  0
 14 15  1  0
 15 16  2  0
 16 17  1  0
 14 18  1  0
 13 19  1  0
 12 20  1  0
 10 21  1  0
 10 22  1  0
  9 23  1  0
 23 24  2  0
 24 25  1  0
 25 26  2  0
 26 27  1  0
 26 28  1  0
 28 29  2  0
 29 30  1  0
 30 31  2  0
 31 32  1  0
 30 33  1  0
 29 34  1  0
 34 35  1  0
 35 36  2  0
 36 37  1  0
 34 38  1  0
  6 39  1  0
  5 40  1  0
  5 41  1  0
  4 42  1  0
  4 43  1  0
  2 44  1  0
  1 45  1  0
  1 46  1  0
  1 47  1  0
  6  2  1  0
 24  7  1  0
 31 25  1  0
 16 11  1  0
 36 28  1  0
M  END
>  <cnnaffinity>  (1) 
-5.92892

>  <filename>  (1) 
CC1OCCC1n1nc(Cc2cccnc2)nc1-c1ccc2[nH]ncc2c1Cl

$$$$
