
     RDKit          3D

 39 40  0  0  0  0  0  0  0  0999 V2000
    7.6961    2.3105   30.6953 C   0  0  0  0  0  0  0  0  0  0  0  0
    7.5741    1.6336   29.3574 C   0  0  0  0  0  0  0  0  0  0  0  0
    6.6366    1.8822   28.4433 C   0  0  0  0  0  0  0  0  0  0  0  0
    6.7328    1.3957   27.0129 C   0  0  0  0  0  0  0  0  0  0  0  0
    7.0745   -0.1069   26.8817 C   0  0  0  0  0  0  0  0  0  0  0  0
    7.2271   -0.5414   25.4736 N   0  0  0  0  0  4  0  0  0  0  0  0
    8.4621   -0.0969   24.7256 C   0  0  0  0  0  0  0  0  0  0  0  0
    8.2353   -0.6264   23.3367 C   0  0  0  0  0  0  0  0  0  0  0  0
    8.5885   -1.9547   23.0712 C   0  0  0  0  0  0  0  0  0  0  0  0
    8.2694   -2.6070   21.9498 N   0  0  0  0  0  0  0  0  0  0  0  0
    7.5990   -1.9220   21.0177 C   0  0  0  0  0  0  0  0  0  0  0  0
    7.2532   -0.5607   21.1131 C   0  0  0  0  0  0  0  0  0  0  0  0
    6.5823    0.1532   19.9738 C   0  0  0  0  0  0  0  0  0  0  0  0
    5.3515    0.8094   20.1403 C   0  0  0  0  0  0  0  0  0  0  0  0
    4.7397    1.4014   19.0312 C   0  0  0  0  0  0  0  0  0  0  0  0
    5.3941    1.3506   17.7970 C   0  0  0  0  0  0  0  0  0  0  0  0
    6.5789    0.7476   17.6082 N   0  0  0  0  0  0  0  0  0  0  0  0
    7.1420    0.1672   18.6750 C   0  0  0  0  0  0  0  0  0  0  0  0
    8.0987   -0.3236   18.4919 H   0  0  0  0  0  0  0  0  0  0  0  0
    4.9476    1.8072   16.9169 H   0  0  0  0  0  0  0  0  0  0  0  0
    3.7828    1.9087   19.1112 H   0  0  0  0  0  0  0  0  0  0  0  0
    4.8821    0.8417   21.1248 H   0  0  0  0  0  0  0  0  0  0  0  0
    7.5459    0.0715   22.3321 C   0  0  0  0  0  0  0  0  0  0  0  0
    7.2207    1.1021   22.4784 H   0  0  0  0  0  0  0  0  0  0  0  0
    7.2860   -2.4872   20.1473 H   0  0  0  0  0  0  0  0  0  0  0  0
    9.1604   -2.5289   23.7991 H   0  0  0  0  0  0  0  0  0  0  0  0
    8.5571    0.9932   24.7485 H   0  0  0  0  0  0  0  0  0  0  0  0
    9.3579   -0.5340   25.1843 H   0  0  0  0  0  0  0  0  0  0  0  0
    7.2095   -1.5777   25.3824 H   0  0  0  0  0  0  0  0  0  0  0  0
    6.4190   -0.2102   24.8859 H   0  0  0  0  0  0  0  0  0  0  0  0
    6.2806   -0.6870   27.3555 H   0  0  0  0  0  0  0  0  0  0  0  0
    7.9975   -0.3170   27.4382 H   0  0  0  0  0  0  0  0  0  0  0  0
    7.5253    1.9794   26.5173 H   0  0  0  0  0  0  0  0  0  0  0  0
    5.7959    1.6146   26.4859 H   0  0  0  0  0  0  0  0  0  0  0  0
    5.7875    2.5172   28.7100 H   0  0  0  0  0  0  0  0  0  0  0  0
    8.3530    0.9116   29.1140 H   0  0  0  0  0  0  0  0  0  0  0  0
    8.7479    2.3520   30.9964 H   0  0  0  0  0  0  0  0  0  0  0  0
    7.1571    1.7886   31.4966 H   0  0  0  0  0  0  0  0  0  0  0  0
    7.3016    3.3332   30.6597 H   0  0  0  0  0  0  0  0  0  0  0  0
  1  2  1  0
  2  3  2  3
  3  4  1  0
  4  5  1  0
  5  6  1  0
  6  7  1  0
  7  8  1  0
  8  9  2  0
  9 10  1  0
 10 11  2  0
 11 12  1  0
 12 13  1  0
 13 14  2  0
 14 15  1  0
 15 16  2  0
 16 17  1  0
 17 18  2  0
 18 19  1  0
 16 20  1  0
 15 21  1  0
 14 22  1  0
 12 23  2  0
 23 24  1  0
 11 25  1  0
  9 26  1  0
  7 27  1  0
  7 28  1  0
  6 29  1  0
  6 30  1  0
  5 31  1  0
  5 32  1  0
  4 33  1  0
  4 34  1  0
  3 35  1  0
  2 36  1  0
  1 37  1  0
  1 38  1  0
  1 39  1  0
 23  8  1  0
 18 13  1  0
M  CHG  1   6   1
M  END
>  <cnnaffinity>  (1) 
-4.94708

>  <filename>  (1) 
CC=CCC[NH2+]Cc1cncc(-c2cccnc2)c1

$$$$
