
     RDKit          3D

 29 30  0  0  0  0  0  0  0  0999 V2000
    9.4276   -0.7958   20.2398 H   0  0  0  0  0  0  0  0  0  0  0  0
    8.7171   -1.0425   21.0198 C   0  0  0  0  0  0  0  0  0  0  0  0
    9.1376   -1.7055   22.1417 N   0  0  0  0  0  0  0  0  0  0  0  0
    8.1497   -1.8886   22.9683 C   0  0  0  0  0  0  0  0  0  0  0  0
    8.2602   -2.5849   24.3137 C   0  0  1  0  0  0  0  0  0  0  0  0
    9.3139   -2.8830   24.3967 H   0  0  0  0  0  0  0  0  0  0  0  0
    7.9518   -1.6272   25.4727 C   0  0  0  0  0  0  0  0  0  0  0  0
    8.5776   -0.7323   25.4109 H   0  0  0  0  0  0  0  0  0  0  0  0
    6.9019   -1.3201   25.4497 H   0  0  0  0  0  0  0  0  0  0  0  0
    8.1464   -2.1166   26.4328 H   0  0  0  0  0  0  0  0  0  0  0  0
    7.3931   -3.8601   24.3910 C   0  0  0  0  0  0  0  0  0  0  0  0
    6.3364   -3.5892   24.2637 H   0  0  0  0  0  0  0  0  0  0  0  0
    7.4857   -4.2904   25.3980 H   0  0  0  0  0  0  0  0  0  0  0  0
    7.7847   -4.9098   23.3620 C   0  0  0  0  0  0  0  0  0  0  0  0
    7.6390   -4.5389   22.3430 H   0  0  0  0  0  0  0  0  0  0  0  0
    7.1806   -5.8113   23.4885 H   0  0  0  0  0  0  0  0  0  0  0  0
    8.8383   -5.1860   23.4766 H   0  0  0  0  0  0  0  0  0  0  0  0
    6.6217   -1.2393   22.4164 S   0  0  0  0  0  0  0  0  0  0  0  0
    7.3981   -0.7055   20.9662 C   0  0  0  0  0  0  0  0  0  0  0  0
    6.6650    0.0046   19.9106 C   0  0  0  0  0  0  0  0  0  0  0  0
    7.1741    0.0670   18.5956 C   0  0  0  0  0  0  0  0  0  0  0  0
    8.1192   -0.4315   18.3746 H   0  0  0  0  0  0  0  0  0  0  0  0
    6.5689    0.6815   17.5738 N   0  0  0  0  0  0  0  0  0  0  0  0
    5.4016    1.2922   17.8418 C   0  0  0  0  0  0  0  0  0  0  0  0
    4.9079    1.7736   17.0028 H   0  0  0  0  0  0  0  0  0  0  0  0
    4.8038    1.3123   19.1094 C   0  0  0  0  0  0  0  0  0  0  0  0
    3.8688    1.8470   19.2667 H   0  0  0  0  0  0  0  0  0  0  0  0
    5.4397    0.6520   20.1595 C   0  0  0  0  0  0  0  0  0  0  0  0
    5.0117    0.6270   21.1609 H   0  0  0  0  0  0  0  0  0  0  0  0
  1  2  1  0
  2  3  1  0
  3  4  2  0
  4  5  1  0
  5  6  1  1
  5  7  1  0
  7  8  1  0
  7  9  1  0
  7 10  1  0
  5 11  1  0
 11 12  1  0
 11 13  1  0
 11 14  1  0
 14 15  1  0
 14 16  1  0
 14 17  1  0
  4 18  1  0
 18 19  1  0
 19 20  1  0
 20 21  2  0
 21 22  1  0
 21 23  1  0
 23 24  2  0
 24 25  1  0
 24 26  1  0
 26 27  1  0
 26 28  2  0
 28 29  1  0
 19  2  2  0
 28 20  1  0
M  END
>  <cnnaffinity>  (1) 
-4.80118

>  <filename>  (1) 
CC[C@H](C)c1ncc(-c2cccnc2)s1

$$$$
