
     RDKit          3D

 37 39  0  0  0  0  0  0  0  0999 V2000
    4.9336    1.8406   16.9525 H   0  0  0  0  0  0  0  0  0  0  0  0
    5.3947    1.3168   17.7874 C   0  0  0  0  0  0  0  0  0  0  0  0
    6.5502    0.6903   17.5303 N   0  0  0  0  0  0  0  0  0  0  0  0
    7.1464    0.0512   18.5480 C   0  0  0  0  0  0  0  0  0  0  0  0
    8.0964   -0.4232   18.3005 H   0  0  0  0  0  0  0  0  0  0  0  0
    6.6397   -0.0223   19.8624 C   0  0  0  0  0  0  0  0  0  0  0  0
    7.3643   -0.8078   20.9537 C   0  0  1  0  0  0  0  0  0  0  0  0
    6.9947   -1.8458   20.9217 H   0  0  0  0  0  0  0  0  0  0  0  0
    8.9226   -0.9090   20.8143 C   0  0  0  0  0  0  0  0  0  0  0  0
    9.3557    0.0264   20.4472 H   0  0  0  0  0  0  0  0  0  0  0  0
    9.2220   -1.7117   20.1354 H   0  0  0  0  0  0  0  0  0  0  0  0
    9.3529   -1.1185   22.2404 C   0  0  0  0  0  0  0  0  0  0  0  0
   10.4255   -1.5921   22.8491 N   0  0  0  0  0  0  0  0  0  0  0  0
   10.0571   -1.5817   24.1532 N   0  0  0  0  0  0  0  0  0  0  0  0
   10.6375   -2.0675   24.8172 H   0  0  0  0  0  0  0  0  0  0  0  0
    8.7842   -1.1261   24.3763 C   0  0  0  0  0  0  0  0  0  0  0  0
    8.0044   -1.2277   25.6657 C   0  0  1  0  0  0  0  0  0  0  0  0
    8.7090   -1.4069   26.4934 H   0  0  0  0  0  0  0  0  0  0  0  0
    7.2471    0.0829   25.9589 C   0  0  0  0  0  0  0  0  0  0  0  0
    6.7425    0.0483   26.9314 H   0  0  0  0  0  0  0  0  0  0  0  0
    7.9191    0.9472   25.9652 H   0  0  0  0  0  0  0  0  0  0  0  0
    6.4731    0.2685   25.2045 H   0  0  0  0  0  0  0  0  0  0  0  0
    7.0138   -2.4244   25.6012 C   0  0  0  0  0  0  0  0  0  0  0  0
    6.4007   -2.4160   26.5113 H   0  0  0  0  0  0  0  0  0  0  0  0
    6.3213   -2.2454   24.7653 H   0  0  0  0  0  0  0  0  0  0  0  0
    7.6685   -3.7991   25.4387 C   0  0  0  0  0  0  0  0  0  0  0  0
    6.9354   -4.6062   25.5415 H   0  0  0  0  0  0  0  0  0  0  0  0
    8.4421   -3.9636   26.1986 H   0  0  0  0  0  0  0  0  0  0  0  0
    8.1351   -3.9193   24.4549 H   0  0  0  0  0  0  0  0  0  0  0  0
    8.3372   -0.7790   23.1295 C   0  0  0  0  0  0  0  0  0  0  0  0
    7.1130   -0.3210   22.4156 C   0  0  0  0  0  0  0  0  0  0  0  0
    7.0301    0.7727   22.4623 H   0  0  0  0  0  0  0  0  0  0  0  0
    6.1900   -0.7533   22.8171 H   0  0  0  0  0  0  0  0  0  0  0  0
    5.4195    0.6427   20.0920 C   0  0  0  0  0  0  0  0  0  0  0  0
    4.9640    0.6587   21.0823 H   0  0  0  0  0  0  0  0  0  0  0  0
    4.7883    1.3213   19.0452 C   0  0  0  0  0  0  0  0  0  0  0  0
    3.8581    1.8619   19.2000 H   0  0  0  0  0  0  0  0  0  0  0  0
  1  2  1  0
  2  3  2  0
  3  4  1  0
  4  5  1  0
  4  6  2  0
  6  7  1  0
  7  8  1  1
  7  9  1  0
  9 10  1  0
  9 11  1  0
  9 12  1  0
 12 13  2  0
 13 14  1  0
 14 15  1  0
 14 16  1  0
 16 17  1  0
 17 18  1  1
 17 19  1  0
 19 20  1  0
 19 21  1  0
 19 22  1  0
 17 23  1  0
 23 24  1  0
 23 25  1  0
 23 26  1  0
 26 27  1  0
 26 28  1  0
 26 29  1  0
 16 30  2  0
 30 31  1  0
 31 32  1  0
 31 33  1  0
  6 34  1  0
 34 35  1  0
 34 36  2  0
 36 37  1  0
 36  2  1  0
 31  7  1  0
 30 12  1  0
M  END
>  <cnnaffinity>  (1) 
-5.02944

>  <filename>  (1) 
CC[C@H](C)c1[nH]nc2c1C[C@@H](c1cccnc1)C2

$$$$
