
     RDKit          3D

 30 31  0  0  0  0  0  0  0  0999 V2000
    4.9155    1.8337   16.9583 H   0  0  0  0  0  0  0  0  0  0  0  0
    5.3806    1.3306   17.8001 C   0  0  0  0  0  0  0  0  0  0  0  0
    6.5491    0.7168   17.5529 N   0  0  0  0  0  0  0  0  0  0  0  0
    7.1479    0.1000   18.5802 C   0  0  0  0  0  0  0  0  0  0  0  0
    8.0993   -0.3764   18.3368 H   0  0  0  0  0  0  0  0  0  0  0  0
    6.6328    0.0435   19.9007 C   0  0  0  0  0  0  0  0  0  0  0  0
    7.3107   -0.7372   20.9745 C   0  0  0  0  0  0  0  0  0  0  0  0
    7.6445   -2.0735   21.0512 C   0  0  0  0  0  0  0  0  0  0  0  0
    7.4079   -2.8479   20.3431 H   0  0  0  0  0  0  0  0  0  0  0  0
    8.3077   -2.3639   22.2095 N   0  0  0  0  0  0  0  0  0  0  0  0
    8.3711   -1.2249   22.8543 C   0  0  0  0  0  0  0  0  0  0  0  0
    8.8056   -1.0951   23.8382 H   0  0  0  0  0  0  0  0  0  0  0  0
    7.7681   -0.2035   22.1756 N   0  0  0  0  0  0  0  0  0  0  0  0
    7.6166    1.1615   22.7075 C   0  0  1  0  0  0  0  0  0  0  0  0
    7.0813    1.7266   21.9400 H   0  0  0  0  0  0  0  0  0  0  0  0
    6.7621    1.1703   23.9794 C   0  0  0  0  0  0  0  0  0  0  0  0
    6.5777    2.1947   24.3215 H   0  0  0  0  0  0  0  0  0  0  0  0
    5.7909    0.7026   23.7919 H   0  0  0  0  0  0  0  0  0  0  0  0
    7.2364    0.6302   24.8051 H   0  0  0  0  0  0  0  0  0  0  0  0
    8.9953    1.8186   22.9022 C   0  0  0  0  0  0  0  0  0  0  0  0
    8.8482    2.8191   23.3328 H   0  0  0  0  0  0  0  0  0  0  0  0
    9.5659    1.2485   23.6467 H   0  0  0  0  0  0  0  0  0  0  0  0
    9.7898    1.9114   21.6005 C   0  0  0  0  0  0  0  0  0  0  0  0
   10.7574    2.4001   21.7494 H   0  0  0  0  0  0  0  0  0  0  0  0
    9.2317    2.4816   20.8493 H   0  0  0  0  0  0  0  0  0  0  0  0
    9.9740    0.9099   21.1946 H   0  0  0  0  0  0  0  0  0  0  0  0
    5.4037    0.6977   20.1151 C   0  0  0  0  0  0  0  0  0  0  0  0
    4.9437    0.6802   21.1026 H   0  0  0  0  0  0  0  0  0  0  0  0
    4.7671    1.3438   19.0549 C   0  0  0  0  0  0  0  0  0  0  0  0
    3.8222    1.8638   19.1882 H   0  0  0  0  0  0  0  0  0  0  0  0
  1  2  1  0
  2  3  2  0
  3  4  1  0
  4  5  1  0
  4  6  2  0
  6  7  1  0
  7  8  2  0
  8  9  1  0
  8 10  1  0
 10 11  2  0
 11 12  1  0
 11 13  1  0
 13 14  1  0
 14 15  1  6
 14 16  1  0
 16 17  1  0
 16 18  1  0
 16 19  1  0
 14 20  1  0
 20 21  1  0
 20 22  1  0
 20 23  1  0
 23 24  1  0
 23 25  1  0
 23 26  1  0
  6 27  1  0
 27 28  1  0
 27 29  2  0
 29 30  1  0
 29  2  1  0
 13  7  1  0
M  END
>  <cnnaffinity>  (1) 
-4.68404

>  <filename>  (1) 
CC[C@H](C)n1cncc1-c1cccnc1

$$$$
