
     RDKit          3D

 30 31  0  0  0  0  0  0  0  0999 V2000
    4.9220    1.7789   16.9982 H   0  0  0  0  0  0  0  0  0  0  0  0
    5.4067    1.2912   17.8405 C   0  0  0  0  0  0  0  0  0  0  0  0
    6.5715    0.6761   17.5852 N   0  0  0  0  0  0  0  0  0  0  0  0
    7.1674    0.0423   18.5992 C   0  0  0  0  0  0  0  0  0  0  0  0
    8.1167   -0.4361   18.3778 H   0  0  0  0  0  0  0  0  0  0  0  0
    6.6457   -0.0063   19.8984 C   0  0  0  0  0  0  0  0  0  0  0  0
    7.3762   -0.7185   20.9434 C   0  0  0  0  0  0  0  0  0  0  0  0
    7.8961   -1.9743   20.7842 N   0  0  0  0  0  0  0  0  0  0  0  0
    8.4346   -2.2890   21.9309 C   0  0  0  0  0  0  0  0  0  0  0  0
    8.9272   -3.2315   22.1536 H   0  0  0  0  0  0  0  0  0  0  0  0
    8.3167   -1.2760   22.8275 N   0  0  0  0  0  0  0  0  0  0  0  0
    8.6888   -1.2722   23.7582 H   0  0  0  0  0  0  0  0  0  0  0  0
    7.6535   -0.2404   22.2061 C   0  0  0  0  0  0  0  0  0  0  0  0
    7.4470    1.1006   22.8400 C   0  0  1  0  0  0  0  0  0  0  0  0
    6.9533    1.7316   22.0920 H   0  0  0  0  0  0  0  0  0  0  0  0
    6.5270    0.9995   24.0591 C   0  0  0  0  0  0  0  0  0  0  0  0
    5.5849    0.5110   23.7884 H   0  0  0  0  0  0  0  0  0  0  0  0
    6.3033    1.9927   24.4618 H   0  0  0  0  0  0  0  0  0  0  0  0
    6.9974    0.4026   24.8475 H   0  0  0  0  0  0  0  0  0  0  0  0
    8.7826    1.7899   23.1754 C   0  0  0  0  0  0  0  0  0  0  0  0
    9.3272    1.1654   23.8926 H   0  0  0  0  0  0  0  0  0  0  0  0
    8.5672    2.7354   23.6859 H   0  0  0  0  0  0  0  0  0  0  0  0
    9.6498    2.0466   21.9467 C   0  0  0  0  0  0  0  0  0  0  0  0
    9.1128    2.6514   21.2067 H   0  0  0  0  0  0  0  0  0  0  0  0
    9.9397    1.1107   21.4533 H   0  0  0  0  0  0  0  0  0  0  0  0
   10.5636    2.5836   22.2170 H   0  0  0  0  0  0  0  0  0  0  0  0
    5.4333    0.6548   20.1549 C   0  0  0  0  0  0  0  0  0  0  0  0
    4.9910    0.6354   21.1565 H   0  0  0  0  0  0  0  0  0  0  0  0
    4.8008    1.3095   19.1033 C   0  0  0  0  0  0  0  0  0  0  0  0
    3.8702    1.8452   19.2596 H   0  0  0  0  0  0  0  0  0  0  0  0
  1  2  1  0
  2  3  2  0
  3  4  1  0
  4  5  1  0
  4  6  2  0
  6  7  1  0
  7  8  1  0
  8  9  2  0
  9 10  1  0
  9 11  1  0
 11 12  1  0
 11 13  1  0
 13 14  1  0
 14 15  1  6
 14 16  1  0
 16 17  1  0
 16 18  1  0
 16 19  1  0
 14 20  1  0
 20 21  1  0
 20 22  1  0
 20 23  1  0
 23 24  1  0
 23 25  1  0
 23 26  1  0
  6 27  1  0
 27 28  1  0
 27 29  2  0
 29 30  1  0
 29  2  1  0
 13  7  2  0
M  END
>  <cnnaffinity>  (1) 
-4.89712

>  <filename>  (1) 
CC[C@H](C)c1[nH]cnc1-c1cccnc1

$$$$
