
     RDKit          3D

 33 34  0  0  0  0  0  0  0  0999 V2000
    4.9141    1.7869   16.9878 H   0  0  0  0  0  0  0  0  0  0  0  0
    5.3964    1.2991   17.8283 C   0  0  0  0  0  0  0  0  0  0  0  0
    6.5584    0.6814   17.5611 N   0  0  0  0  0  0  0  0  0  0  0  0
    7.1648    0.0757   18.5871 C   0  0  0  0  0  0  0  0  0  0  0  0
    8.1076   -0.4222   18.3664 H   0  0  0  0  0  0  0  0  0  0  0  0
    6.6473    0.0120   19.8939 C   0  0  0  0  0  0  0  0  0  0  0  0
    7.3666   -0.7096   20.9729 C   0  0  0  0  0  0  0  0  0  0  0  0
    8.7774   -0.5471   21.1289 C   0  0  0  0  0  0  0  0  0  0  0  0
    9.3077    0.1276   20.4470 H   0  0  0  0  0  0  0  0  0  0  0  0
    9.4194   -1.1984   22.1332 C   0  0  0  0  0  0  0  0  0  0  0  0
   10.4828   -1.1192   22.3090 H   0  0  0  0  0  0  0  0  0  0  0  0
    8.7280   -2.0821   23.0653 C   0  0  0  0  0  0  0  0  0  0  0  0
    9.3129   -2.6739   23.9644 O   0  0  0  0  0  0  0  0  0  0  0  0
    7.3343   -2.2118   22.8523 N   0  0  0  0  0  0  0  0  0  0  0  0
    6.5438   -3.0838   23.7595 C   0  0  1  0  0  0  0  0  0  0  0  0
    5.5062   -3.0244   23.3976 H   0  0  0  0  0  0  0  0  0  0  0  0
    6.9921   -4.5407   23.6461 C   0  0  0  0  0  0  0  0  0  0  0  0
    7.1125   -4.8142   22.5942 H   0  0  0  0  0  0  0  0  0  0  0  0
    6.2446   -5.2105   24.0836 H   0  0  0  0  0  0  0  0  0  0  0  0
    7.9494   -4.6996   24.1495 H   0  0  0  0  0  0  0  0  0  0  0  0
    6.5541   -2.5514   25.2000 C   0  0  0  0  0  0  0  0  0  0  0  0
    7.5434   -2.7202   25.6362 H   0  0  0  0  0  0  0  0  0  0  0  0
    6.4208   -1.4655   25.1588 H   0  0  0  0  0  0  0  0  0  0  0  0
    5.4659   -3.1669   26.0776 C   0  0  0  0  0  0  0  0  0  0  0  0
    5.6052   -4.2467   26.2014 H   0  0  0  0  0  0  0  0  0  0  0  0
    5.4699   -2.7211   27.0775 H   0  0  0  0  0  0  0  0  0  0  0  0
    4.4698   -3.0067   25.6482 H   0  0  0  0  0  0  0  0  0  0  0  0
    6.6994   -1.5324   21.8409 C   0  0  0  0  0  0  0  0  0  0  0  0
    5.6244   -1.6881   21.7372 H   0  0  0  0  0  0  0  0  0  0  0  0
    5.4251    0.6503   20.1472 C   0  0  0  0  0  0  0  0  0  0  0  0
    5.0098    0.6345   21.1602 H   0  0  0  0  0  0  0  0  0  0  0  0
    4.7998    1.3195   19.0957 C   0  0  0  0  0  0  0  0  0  0  0  0
    3.8672    1.8492   19.2523 H   0  0  0  0  0  0  0  0  0  0  0  0
  1  2  1  0
  2  3  2  0
  3  4  1  0
  4  5  1  0
  4  6  2  0
  6  7  1  0
  7  8  1  0
  8  9  1  0
  8 10  2  0
 10 11  1  0
 10 12  1  0
 12 13  2  0
 12 14  1  0
 14 15  1  0
 15 16  1  6
 15 17  1  0
 17 18  1  0
 17 19  1  0
 17 20  1  0
 15 21  1  0
 21 22  1  0
 21 23  1  0
 21 24  1  0
 24 25  1  0
 24 26  1  0
 24 27  1  0
 14 28  1  0
 28 29  1  0
  6 30  1  0
 30 31  1  0
 30 32  2  0
 32 33  1  0
 32  2  1  0
 28  7  2  0
M  END
>  <cnnaffinity>  (1) 
-5.02218

>  <filename>  (1) 
CC[C@H](C)n1cc(-c2cccnc2)ccc1=O

$$$$
