
     RDKit          3D

 42 45  0  0  0  0  0  0  0  0999 V2000
    7.0780   -4.5165   23.5836 C   0  0  0  0  0  0  0  0  0  0  0  0
    7.9866   -4.6187   22.3619 C   0  0  0  0  0  0  0  0  0  0  0  0
    8.9345   -3.4109   22.1580 C   0  0  0  0  0  0  0  0  0  0  0  0
   10.0233   -3.4492   23.0836 O   0  0  0  0  0  0  0  0  0  0  0  0
    9.7728   -3.0084   23.9116 H   0  0  0  0  0  0  0  0  0  0  0  0
    8.2158   -2.0871   21.9917 C   0  0  0  0  0  0  0  0  0  0  0  0
    7.8297   -1.7286   20.7812 N   0  0  0  0  0  0  0  0  0  0  0  0
    7.2752   -0.5125   20.9758 N   0  0  0  0  0  0  0  0  0  0  0  0
    6.5767    0.0920   19.9025 C   0  0  0  0  0  0  0  0  0  0  0  0
    5.3700    0.7631   20.1088 C   0  0  0  0  0  0  0  0  0  0  0  0
    4.7812    1.3658   18.9947 C   0  0  0  0  0  0  0  0  0  0  0  0
    5.4181    1.2955   17.7500 C   0  0  0  0  0  0  0  0  0  0  0  0
    6.5529    0.6020   17.5441 N   0  0  0  0  0  0  0  0  0  0  0  0
    7.0970   -0.0111   18.5974 C   0  0  0  0  0  0  0  0  0  0  0  0
    7.9921   -0.6012   18.4151 H   0  0  0  0  0  0  0  0  0  0  0  0
    4.9985    1.8024   16.8820 H   0  0  0  0  0  0  0  0  0  0  0  0
    3.8302    1.8770   19.0816 H   0  0  0  0  0  0  0  0  0  0  0  0
    4.9233    0.8172   21.1066 H   0  0  0  0  0  0  0  0  0  0  0  0
    7.3747   -0.1814   22.2999 C   0  0  0  0  0  0  0  0  0  0  0  0
    7.0651    1.1521   22.8591 C   0  0  0  0  0  0  0  0  0  0  0  0
    7.5166    2.3189   22.2541 C   0  0  0  0  0  0  0  0  0  0  0  0
    7.2349    3.5915   22.8083 C   0  0  0  0  0  0  0  0  0  0  0  0
    6.5027    3.7057   23.9701 C   0  0  0  0  0  0  0  0  0  0  0  0
    6.0291    2.5393   24.6324 C   0  0  0  0  0  0  0  0  0  0  0  0
    5.2885    2.5681   25.8486 C   0  0  0  0  0  0  0  0  0  0  0  0
    4.8578    1.4000   26.4250 C   0  0  0  0  0  0  0  0  0  0  0  0
    5.0953    0.1696   25.9120 N   0  0  0  0  0  0  0  0  0  0  0  0
    5.7933    0.1201   24.7950 C   0  0  0  0  0  0  0  0  0  0  0  0
    6.3053    1.2524   24.0772 C   0  0  0  0  0  0  0  0  0  0  0  0
    6.0147   -0.8579   24.3867 H   0  0  0  0  0  0  0  0  0  0  0  0
    4.2826    1.4071   27.3482 H   0  0  0  0  0  0  0  0  0  0  0  0
    5.0612    3.5117   26.3264 H   0  0  0  0  0  0  0  0  0  0  0  0
    6.2841    4.6818   24.3941 H   0  0  0  0  0  0  0  0  0  0  0  0
    7.6061    4.4816   22.3085 H   0  0  0  0  0  0  0  0  0  0  0  0
    8.1053    2.2742   21.3436 H   0  0  0  0  0  0  0  0  0  0  0  0
    7.9233   -1.1993   22.9648 N   0  0  0  0  0  0  0  0  0  0  0  0
    9.3454   -3.5048   21.1540 H   0  0  0  0  0  0  0  0  0  0  0  0
    8.6236   -5.5106   22.4470 H   0  0  0  0  0  0  0  0  0  0  0  0
    7.3857   -4.7346   21.4473 H   0  0  0  0  0  0  0  0  0  0  0  0
    6.4144   -5.3853   23.6447 H   0  0  0  0  0  0  0  0  0  0  0  0
    7.6745   -4.4668   24.5029 H   0  0  0  0  0  0  0  0  0  0  0  0
    6.4589   -3.6133   23.5410 H   0  0  0  0  0  0  0  0  0  0  0  0
  1  2  1  0
  2  3  1  0
  3  4  1  0
  4  5  1  0
  3  6  1  0
  6  7  2  0
  7  8  1  0
  8  9  1  0
  9 10  2  0
 10 11  1  0
 11 12  2  0
 12 13  1  0
 13 14  2  0
 14 15  1  0
 12 16  1  0
 11 17  1  0
 10 18  1  0
  8 19  1  0
 19 20  1  0
 20 21  2  0
 21 22  1  0
 22 23  2  0
 23 24  1  0
 24 25  2  0
 25 26  1  0
 26 27  2  0
 27 28  1  0
 28 29  2  0
 28 30  1  0
 26 31  1  0
 25 32  1  0
 23 33  1  0
 22 34  1  0
 21 35  1  0
 19 36  2  0
  3 37  1  0
  2 38  1  0
  2 39  1  0
  1 40  1  0
  1 41  1  0
  1 42  1  0
 36  6  1  0
 14  9  1  0
 29 20  1  0
 29 24  1  0
M  END
>  <cnnaffinity>  (1) 
-5.9101

>  <filename>  (1) 
CCC(O)c1nc(-c2cccc3ccncc23)n(-c2cccnc2)n1

$$$$
