
     RDKit          3D

 44 46  0  0  0  0  0  0  0  0999 V2000
    4.9596   -1.1550   26.2356 C   0  0  0  0  0  0  0  0  0  0  0  0
    5.6998   -1.6306   24.9862 C   0  0  0  0  0  0  0  0  0  0  0  0
    7.1149   -2.1911   25.2003 C   0  0  0  0  0  0  0  0  0  0  0  0
    8.1087   -1.1015   25.6372 C   0  0  0  0  0  0  0  0  0  0  0  0
    8.1226   -0.2573   24.9313 H   0  0  0  0  0  0  0  0  0  0  0  0
    7.8388   -0.6990   26.6213 H   0  0  0  0  0  0  0  0  0  0  0  0
    9.1298   -1.5008   25.6943 H   0  0  0  0  0  0  0  0  0  0  0  0
    7.5722   -2.9324   23.9078 C   0  0  0  0  0  0  0  0  0  0  0  0
    7.7371   -2.0263   22.7274 C   0  0  0  0  0  0  0  0  0  0  0  0
    8.8918   -1.4275   22.5297 N   0  0  0  0  0  0  0  0  0  0  0  0
    8.6533   -0.5980   21.4840 N   0  0  0  0  0  0  0  0  0  0  0  0
    9.5800    0.5177   21.3106 C   0  0  0  0  0  0  0  0  0  0  0  0
    9.1339    1.7429   22.0693 C   0  0  0  0  0  0  0  0  0  0  0  0
    8.2927    2.6894   21.4909 C   0  0  0  0  0  0  0  0  0  0  0  0
    7.8999    3.8034   22.2386 C   0  0  0  0  0  0  0  0  0  0  0  0
    8.2781    3.9996   23.5082 N   0  0  0  0  0  0  0  0  0  0  0  0
    9.0555    3.0701   24.0766 C   0  0  0  0  0  0  0  0  0  0  0  0
    9.4981    1.9268   23.4047 C   0  0  0  0  0  0  0  0  0  0  0  0
   10.1114    1.1833   23.8988 H   0  0  0  0  0  0  0  0  0  0  0  0
    9.3484    3.2549   25.1104 H   0  0  0  0  0  0  0  0  0  0  0  0
    7.2768    4.5932   21.8165 H   0  0  0  0  0  0  0  0  0  0  0  0
    7.9354    2.5345   20.4829 H   0  0  0  0  0  0  0  0  0  0  0  0
    9.6888    0.7221   20.2462 H   0  0  0  0  0  0  0  0  0  0  0  0
   10.5374    0.1733   21.7105 H   0  0  0  0  0  0  0  0  0  0  0  0
    7.3550   -0.7394   21.1062 C   0  0  0  0  0  0  0  0  0  0  0  0
    6.7127   -0.0021   20.0072 C   0  0  0  0  0  0  0  0  0  0  0  0
    5.4860    0.6565   20.1816 C   0  0  0  0  0  0  0  0  0  0  0  0
    4.9150    1.3075   19.0887 C   0  0  0  0  0  0  0  0  0  0  0  0
    5.5770    1.2667   17.8573 C   0  0  0  0  0  0  0  0  0  0  0  0
    6.7396    0.6201   17.6730 N   0  0  0  0  0  0  0  0  0  0  0  0
    7.2874    0.0093   18.7302 C   0  0  0  0  0  0  0  0  0  0  0  0
    8.2201   -0.5231   18.5324 H   0  0  0  0  0  0  0  0  0  0  0  0
    5.1483    1.7553   16.9804 H   0  0  0  0  0  0  0  0  0  0  0  0
    3.9738    1.8411   19.1725 H   0  0  0  0  0  0  0  0  0  0  0  0
    5.0018    0.6553   21.1598 H   0  0  0  0  0  0  0  0  0  0  0  0
    6.7600   -1.6496   21.8622 N   0  0  0  0  0  0  0  0  0  0  0  0
    6.8478   -3.7143   23.6533 H   0  0  0  0  0  0  0  0  0  0  0  0
    8.5517   -3.3946   24.0689 H   0  0  0  0  0  0  0  0  0  0  0  0
    7.0792   -2.9530   25.9975 H   0  0  0  0  0  0  0  0  0  0  0  0
    5.7800   -0.7961   24.2735 H   0  0  0  0  0  0  0  0  0  0  0  0
    5.1049   -2.4070   24.4805 H   0  0  0  0  0  0  0  0  0  0  0  0
    4.8386   -1.9622   26.9693 H   0  0  0  0  0  0  0  0  0  0  0  0
    3.9603   -0.8009   25.9585 H   0  0  0  0  0  0  0  0  0  0  0  0
    5.4818   -0.3228   26.7238 H   0  0  0  0  0  0  0  0  0  0  0  0
  1  2  1  0
  2  3  1  0
  3  4  1  0
  4  5  1  0
  4  6  1  0
  4  7  1  0
  3  8  1  0
  8  9  1  0
  9 10  2  0
 10 11  1  0
 11 12  1  0
 12 13  1  0
 13 14  2  0
 14 15  1  0
 15 16  2  0
 16 17  1  0
 17 18  2  0
 18 19  1  0
 17 20  1  0
 15 21  1  0
 14 22  1  0
 12 23  1  0
 12 24  1  0
 11 25  1  0
 25 26  1  0
 26 27  2  0
 27 28  1  0
 28 29  2  0
 29 30  1  0
 30 31  2  0
 31 32  1  0
 29 33  1  0
 28 34  1  0
 27 35  1  0
 25 36  2  0
  8 37  1  0
  8 38  1  0
  3 39  1  0
  2 40  1  0
  2 41  1  0
  1 42  1  0
  1 43  1  0
  1 44  1  0
 36  9  1  0
 18 13  1  0
 31 26  1  0
M  END
>  <cnnaffinity>  (1) 
-5.79422

>  <filename>  (1) 
CCC(C)Cc1nc(-c2cccnc2)n(Cc2ccncc2)n1

$$$$
