
     RDKit          3D

 37 38  0  0  0  0  0  0  0  0999 V2000
    9.0033    1.1522   21.4328 C   0  0  0  0  0  0  0  0  0  0  0  0
    7.9583    0.1607   21.9536 C   0  0  0  0  0  0  0  0  0  0  0  0
    7.3499   -0.7769   20.8886 C   0  0  0  0  0  0  0  0  0  0  0  0
    6.4940   -1.7241   21.5867 N   0  0  0  0  0  0  0  0  0  0  0  0
    5.8911   -2.8038   21.0395 C   0  0  0  0  0  0  0  0  0  0  0  0
    5.9891   -3.1312   19.8683 O   0  0  0  0  0  0  0  0  0  0  0  0
    5.0965   -3.6569   22.0475 C   0  0  0  0  0  0  0  0  0  0  0  0
    5.9486   -4.3156   23.1274 C   0  0  0  0  0  0  0  0  0  0  0  0
    5.8026   -4.0891   24.5044 C   0  0  0  0  0  0  0  0  0  0  0  0
    6.5311   -4.6713   25.4638 N   0  0  0  0  0  0  0  0  0  0  0  0
    7.4613   -5.5546   25.0749 C   0  0  0  0  0  0  0  0  0  0  0  0
    7.6992   -5.8792   23.7471 C   0  0  0  0  0  0  0  0  0  0  0  0
    6.9606   -5.2262   22.7649 C   0  0  0  0  0  0  0  0  0  0  0  0
    7.2454   -5.5508   21.4913 O   0  0  0  0  0  0  0  0  0  0  0  0
    6.8323   -4.9362   20.8615 H   0  0  0  0  0  0  0  0  0  0  0  0
    8.4170   -6.6287   23.4350 H   0  0  0  0  0  0  0  0  0  0  0  0
    8.0451   -6.0227   25.8658 H   0  0  0  0  0  0  0  0  0  0  0  0
    5.0391   -3.3924   24.8488 H   0  0  0  0  0  0  0  0  0  0  0  0
    4.6157   -4.4241   21.4365 H   0  0  0  0  0  0  0  0  0  0  0  0
    4.2800   -3.0662   22.4784 H   0  0  0  0  0  0  0  0  0  0  0  0
    6.3842   -1.6036   22.5767 H   0  0  0  0  0  0  0  0  0  0  0  0
    6.5874   -0.0530   19.7922 C   0  0  0  0  0  0  0  0  0  0  0  0
    5.3956    0.6459   20.0277 C   0  0  0  0  0  0  0  0  0  0  0  0
    4.8155    1.3586   18.9758 C   0  0  0  0  0  0  0  0  0  0  0  0
    5.4444    1.3426   17.7250 C   0  0  0  0  0  0  0  0  0  0  0  0
    6.5708    0.6635   17.4705 N   0  0  0  0  0  0  0  0  0  0  0  0
    7.1063   -0.0228   18.4909 C   0  0  0  0  0  0  0  0  0  0  0  0
    8.0071   -0.5926   18.2545 H   0  0  0  0  0  0  0  0  0  0  0  0
    5.0213    1.8932   16.8865 H   0  0  0  0  0  0  0  0  0  0  0  0
    3.8963    1.9175   19.1097 H   0  0  0  0  0  0  0  0  0  0  0  0
    4.9262    0.6193   21.0142 H   0  0  0  0  0  0  0  0  0  0  0  0
    8.1803   -1.3106   20.4007 H   0  0  0  0  0  0  0  0  0  0  0  0
    7.1399    0.6998   22.4510 H   0  0  0  0  0  0  0  0  0  0  0  0
    8.4244   -0.4722   22.7220 H   0  0  0  0  0  0  0  0  0  0  0  0
    9.3568    1.8054   22.2384 H   0  0  0  0  0  0  0  0  0  0  0  0
    8.6089    1.7935   20.6364 H   0  0  0  0  0  0  0  0  0  0  0  0
    9.8778    0.6273   21.0323 H   0  0  0  0  0  0  0  0  0  0  0  0
  1  2  1  0
  2  3  1  0
  3  4  1  0
  4  5  1  0
  5  6  2  0
  5  7  1  0
  7  8  1  0
  8  9  2  0
  9 10  1  0
 10 11  2  0
 11 12  1  0
 12 13  2  0
 13 14  1  0
 14 15  1  0
 12 16  1  0
 11 17  1  0
  9 18  1  0
  7 19  1  0
  7 20  1  0
  4 21  1  0
  3 22  1  0
 22 23  2  0
 23 24  1  0
 24 25  2  0
 25 26  1  0
 26 27  2  0
 27 28  1  0
 25 29  1  0
 24 30  1  0
 23 31  1  0
  3 32  1  0
  2 33  1  0
  2 34  1  0
  1 35  1  0
  1 36  1  0
  1 37  1  0
 13  8  1  0
 27 22  1  0
M  END
>  <cnnaffinity>  (1) 
-4.71659

>  <filename>  (1) 
CCC(NC(=O)Cc1cnccc1O)c1cccnc1

$$$$
