
     RDKit          3D

 45 48  0  0  0  0  0  0  0  0999 V2000
    8.4051   -5.8979   23.1714 C   0  0  0  0  0  0  0  0  0  0  0  0
    7.8991   -4.4662   22.9886 C   0  0  0  0  0  0  0  0  0  0  0  0
    8.8798   -3.5402   22.2331 C   0  0  0  0  0  0  0  0  0  0  0  0
   10.1538   -3.4620   22.8794 O   0  0  0  0  0  0  0  0  0  0  0  0
   10.6299   -4.2848   22.6853 H   0  0  0  0  0  0  0  0  0  0  0  0
    8.2896   -2.1694   21.9969 C   0  0  0  0  0  0  0  0  0  0  0  0
    7.8867   -1.8228   20.7860 N   0  0  0  0  0  0  0  0  0  0  0  0
    7.3194   -0.6111   20.9765 N   0  0  0  0  0  0  0  0  0  0  0  0
    6.6164    0.0194   19.9141 C   0  0  0  0  0  0  0  0  0  0  0  0
    5.3925    0.6600   20.1361 C   0  0  0  0  0  0  0  0  0  0  0  0
    4.7827    1.3080   19.0607 C   0  0  0  0  0  0  0  0  0  0  0  0
    5.4128    1.2865   17.8135 C   0  0  0  0  0  0  0  0  0  0  0  0
    6.5656    0.6315   17.5852 N   0  0  0  0  0  0  0  0  0  0  0  0
    7.1474    0.0026   18.6101 C   0  0  0  0  0  0  0  0  0  0  0  0
    8.0847   -0.5111   18.3983 H   0  0  0  0  0  0  0  0  0  0  0  0
    4.9845    1.8212   16.9689 H   0  0  0  0  0  0  0  0  0  0  0  0
    3.8523    1.8503   19.1904 H   0  0  0  0  0  0  0  0  0  0  0  0
    4.9661    0.6773   21.1385 H   0  0  0  0  0  0  0  0  0  0  0  0
    7.4386   -0.2833   22.3114 C   0  0  0  0  0  0  0  0  0  0  0  0
    7.1734    1.0354   22.8457 C   0  0  0  0  0  0  0  0  0  0  0  0
    7.4825    2.2039   22.1527 C   0  0  0  0  0  0  0  0  0  0  0  0
    7.2054    3.4691   22.7081 C   0  0  0  0  0  0  0  0  0  0  0  0
    6.6184    3.5753   23.9572 C   0  0  0  0  0  0  0  0  0  0  0  0
    6.3020    2.3991   24.7000 C   0  0  0  0  0  0  0  0  0  0  0  0
    5.6878    2.4098   25.9925 C   0  0  0  0  0  0  0  0  0  0  0  0
    5.4142    1.2194   26.6178 C   0  0  0  0  0  0  0  0  0  0  0  0
    5.7377   -0.0141   25.9666 C   0  0  0  0  0  0  0  0  0  0  0  0
    5.4450   -1.3186   26.6621 C   0  0  0  0  0  0  0  0  0  0  0  0
    5.8334   -2.1636   26.0891 H   0  0  0  0  0  0  0  0  0  0  0  0
    4.3666   -1.4483   26.7924 H   0  0  0  0  0  0  0  0  0  0  0  0
    5.9024   -1.3297   27.6556 H   0  0  0  0  0  0  0  0  0  0  0  0
    6.2894   -0.0655   24.7866 N   0  0  0  0  0  0  0  0  0  0  0  0
    6.5942    1.1017   24.1416 C   0  0  0  0  0  0  0  0  0  0  0  0
    4.9628    1.1620   27.6020 H   0  0  0  0  0  0  0  0  0  0  0  0
    5.4463    3.3678   26.4537 H   0  0  0  0  0  0  0  0  0  0  0  0
    6.3733    4.5523   24.3776 H   0  0  0  0  0  0  0  0  0  0  0  0
    7.4502    4.3568   22.1244 H   0  0  0  0  0  0  0  0  0  0  0  0
    7.9356    2.1357   21.1635 H   0  0  0  0  0  0  0  0  0  0  0  0
    8.0160   -1.2760   22.9632 N   0  0  0  0  0  0  0  0  0  0  0  0
    8.9609   -3.9112   21.2066 H   0  0  0  0  0  0  0  0  0  0  0  0
    7.6808   -4.0120   23.9624 H   0  0  0  0  0  0  0  0  0  0  0  0
    6.9489   -4.4798   22.4340 H   0  0  0  0  0  0  0  0  0  0  0  0
    7.6161   -6.5295   23.5859 H   0  0  0  0  0  0  0  0  0  0  0  0
    8.7195   -6.3492   22.2226 H   0  0  0  0  0  0  0  0  0  0  0  0
    9.2550   -5.9390   23.8628 H   0  0  0  0  0  0  0  0  0  0  0  0
  1  2  1  0
  2  3  1  0
  3  4  1  0
  4  5  1  0
  3  6  1  0
  6  7  2  0
  7  8  1  0
  8  9  1  0
  9 10  2  0
 10 11  1  0
 11 12  2  0
 12 13  1  0
 13 14  2  0
 14 15  1  0
 12 16  1  0
 11 17  1  0
 10 18  1  0
  8 19  1  0
 19 20  1  0
 20 21  2  0
 21 22  1  0
 22 23  2  0
 23 24  1  0
 24 25  2  0
 25 26  1  0
 26 27  2  0
 27 28  1  0
 28 29  1  0
 28 30  1  0
 28 31  1  0
 27 32  1  0
 32 33  2  0
 26 34  1  0
 25 35  1  0
 23 36  1  0
 22 37  1  0
 21 38  1  0
 19 39  2  0
  3 40  1  0
  2 41  1  0
  2 42  1  0
  1 43  1  0
  1 44  1  0
  1 45  1  0
 39  6  1  0
 14  9  1  0
 33 20  1  0
 33 24  1  0
M  END
>  <cnnaffinity>  (1) 
-6.11005

>  <filename>  (1) 
CCC(O)c1nc(-c2cccc3ccc(C)nc23)n(-c2cccnc2)n1

$$$$
