
     RDKit          3D

 49 51  0  0  0  0  0  0  0  0999 V2000
    6.7159    2.3080   25.9795 C   0  0  0  0  0  0  0  0  0  0  0  0
    7.5122    1.1604   26.6258 C   0  0  0  0  0  0  0  0  0  0  0  0
    8.0684    0.1530   25.6295 C   0  0  0  0  0  0  0  0  0  0  0  0
    9.2104    0.2670   25.2053 O   0  0  0  0  0  0  0  0  0  0  0  0
    7.2492   -0.8903   25.2391 N   0  0  0  0  0  0  0  0  0  0  0  0
    5.7755   -0.8075   25.2906 C   0  0  0  0  0  0  0  0  0  0  0  0
    5.1374   -2.1919   25.4050 C   0  0  0  0  0  0  0  0  0  0  0  0
    5.6836   -3.1834   24.3731 C   0  0  0  0  0  0  0  0  0  0  0  0
    7.2097   -3.2274   24.4797 C   0  0  0  0  0  0  0  0  0  0  0  0
    7.8034   -1.8270   24.2354 C   0  0  0  0  0  0  0  0  0  0  0  0
    7.6457   -1.3578   22.7906 C   0  0  0  0  0  0  0  0  0  0  0  0
    6.6985   -0.6351   22.2047 N   0  0  0  0  0  0  0  0  0  0  0  0
    7.0415   -0.6499   20.8964 C   0  0  0  0  0  0  0  0  0  0  0  0
    6.3668    0.0829   19.8312 C   0  0  0  0  0  0  0  0  0  0  0  0
    5.1786    0.8051   19.9994 C   0  0  0  0  0  0  0  0  0  0  0  0
    4.6626    1.4711   18.8858 C   0  0  0  0  0  0  0  0  0  0  0  0
    5.3543    1.4019   17.6693 C   0  0  0  0  0  0  0  0  0  0  0  0
    6.4998    0.7264   17.5085 N   0  0  0  0  0  0  0  0  0  0  0  0
    6.9905    0.0908   18.5738 C   0  0  0  0  0  0  0  0  0  0  0  0
    7.9337   -0.4325   18.4312 H   0  0  0  0  0  0  0  0  0  0  0  0
    4.9772    1.9070   16.7813 H   0  0  0  0  0  0  0  0  0  0  0  0
    3.7505    2.0529   18.9441 H   0  0  0  0  0  0  0  0  0  0  0  0
    4.6891    0.8600   20.9748 H   0  0  0  0  0  0  0  0  0  0  0  0
    8.1379   -1.3360   20.6404 N   0  0  0  0  0  0  0  0  0  0  0  0
    8.5202   -1.7945   21.8492 N   0  0  0  0  0  0  0  0  0  0  0  0
    9.8967   -2.2451   21.9468 C   0  0  0  0  0  0  0  0  0  0  0  0
   10.8507   -1.0563   22.1707 C   0  0  0  0  0  0  0  0  0  0  0  0
   12.2829   -1.4471   21.9100 C   0  0  0  0  0  0  0  0  0  0  0  0
   12.5497   -2.6169   22.5091 F   0  0  0  0  0  0  0  0  0  0  0  0
   12.5453   -1.6122   20.6018 F   0  0  0  0  0  0  0  0  0  0  0  0
   13.1542   -0.5300   22.3613 F   0  0  0  0  0  0  0  0  0  0  0  0
   10.7753   -0.6917   23.2033 H   0  0  0  0  0  0  0  0  0  0  0  0
   10.5884   -0.2449   21.4839 H   0  0  0  0  0  0  0  0  0  0  0  0
   10.0010   -3.0125   22.7218 H   0  0  0  0  0  0  0  0  0  0  0  0
   10.0825   -2.7188   20.9855 H   0  0  0  0  0  0  0  0  0  0  0  0
    8.8801   -1.8767   24.4306 H   0  0  0  0  0  0  0  0  0  0  0  0
    7.6489   -3.9524   23.7842 H   0  0  0  0  0  0  0  0  0  0  0  0
    7.5029   -3.5350   25.4911 H   0  0  0  0  0  0  0  0  0  0  0  0
    5.2531   -4.1770   24.5389 H   0  0  0  0  0  0  0  0  0  0  0  0
    5.4006   -2.8749   23.3561 H   0  0  0  0  0  0  0  0  0  0  0  0
    5.3346   -2.5774   26.4137 H   0  0  0  0  0  0  0  0  0  0  0  0
    4.0485   -2.0871   25.3207 H   0  0  0  0  0  0  0  0  0  0  0  0
    5.4642   -0.2217   26.1595 H   0  0  0  0  0  0  0  0  0  0  0  0
    5.4208   -0.2804   24.3946 H   0  0  0  0  0  0  0  0  0  0  0  0
    8.3859    1.5648   27.1422 H   0  0  0  0  0  0  0  0  0  0  0  0
    6.9043    0.6431   27.3758 H   0  0  0  0  0  0  0  0  0  0  0  0
    5.8458    1.9557   25.4106 H   0  0  0  0  0  0  0  0  0  0  0  0
    7.3447    2.8851   25.2916 H   0  0  0  0  0  0  0  0  0  0  0  0
    6.3512    2.9922   26.7532 H   0  0  0  0  0  0  0  0  0  0  0  0
  1  2  1  0
  2  3  1  0
  3  4  2  0
  3  5  1  0
  5  6  1  0
  6  7  1  0
  7  8  1  0
  8  9  1  0
  9 10  1  0
 10 11  1  0
 11 12  2  0
 12 13  1  0
 13 14  1  0
 14 15  2  0
 15 16  1  0
 16 17  2  0
 17 18  1  0
 18 19  2  0
 19 20  1  0
 17 21  1  0
 16 22  1  0
 15 23  1  0
 13 24  2  0
 24 25  1  0
 25 26  1  0
 26 27  1  0
 27 28  1  0
 28 29  1  0
 28 30  1  0
 28 31  1  0
 27 32  1  0
 27 33  1  0
 26 34  1  0
 26 35  1  0
 10 36  1  0
  9 37  1  0
  9 38  1  0
  8 39  1  0
  8 40  1  0
  7 41  1  0
  7 42  1  0
  6 43  1  0
  6 44  1  0
  2 45  1  0
  2 46  1  0
  1 47  1  0
  1 48  1  0
  1 49  1  0
 10  5  1  0
 25 11  1  0
 19 14  1  0
M  END
>  <cnnaffinity>  (1) 
-6.19546

>  <filename>  (1) 
CCC(=O)N1CCCCC1c1nc(-c2cccnc2)nn1CCC(F)(F)F

$$$$
