
     RDKit          3D

 46 49  0  0  0  0  0  0  0  0999 V2000
    5.8156   -6.1038   22.0894 C   0  0  0  0  0  0  0  0  0  0  0  0
    6.6889   -4.8988   21.7565 C   0  0  0  0  0  0  0  0  0  0  0  0
    7.7995   -4.6318   22.7818 C   0  0  0  0  0  0  0  0  0  0  0  0
    7.2606   -4.1947   24.1475 C   0  0  0  0  0  0  0  0  0  0  0  0
    8.0782   -3.9001   24.8155 H   0  0  0  0  0  0  0  0  0  0  0  0
    6.6232   -3.3079   24.0367 H   0  0  0  0  0  0  0  0  0  0  0  0
    6.6841   -4.9880   24.6394 H   0  0  0  0  0  0  0  0  0  0  0  0
    8.7940   -3.5991   22.2186 C   0  0  0  0  0  0  0  0  0  0  0  0
    8.2451   -2.2459   21.9716 C   0  0  0  0  0  0  0  0  0  0  0  0
    7.8010   -1.9088   20.7739 N   0  0  0  0  0  0  0  0  0  0  0  0
    7.3499   -0.6525   20.9426 N   0  0  0  0  0  0  0  0  0  0  0  0
    6.6373   -0.0058   19.8986 C   0  0  0  0  0  0  0  0  0  0  0  0
    5.4138    0.6186   20.1530 C   0  0  0  0  0  0  0  0  0  0  0  0
    4.8005    1.2930   19.0975 C   0  0  0  0  0  0  0  0  0  0  0  0
    5.4060    1.2896   17.8375 C   0  0  0  0  0  0  0  0  0  0  0  0
    6.5739    0.6684   17.5893 N   0  0  0  0  0  0  0  0  0  0  0  0
    7.1727    0.0331   18.6003 C   0  0  0  0  0  0  0  0  0  0  0  0
    8.1249   -0.4441   18.3768 H   0  0  0  0  0  0  0  0  0  0  0  0
    4.9323    1.7857   16.9937 H   0  0  0  0  0  0  0  0  0  0  0  0
    3.8800    1.8397   19.2568 H   0  0  0  0  0  0  0  0  0  0  0  0
    4.9990    0.6381   21.1635 H   0  0  0  0  0  0  0  0  0  0  0  0
    7.5967   -0.2746   22.2395 C   0  0  0  0  0  0  0  0  0  0  0  0
    7.3293    1.0595   22.7685 C   0  0  0  0  0  0  0  0  0  0  0  0
    7.4121    2.1095   21.9351 N   0  0  0  0  0  0  0  0  0  0  0  0
    7.1963    3.3473   22.4257 C   0  0  0  0  0  0  0  0  0  0  0  0
    6.8913    3.5897   23.7497 C   0  0  0  0  0  0  0  0  0  0  0  0
    6.7917    2.5010   24.6595 C   0  0  0  0  0  0  0  0  0  0  0  0
    6.4827    2.6742   26.0379 C   0  0  0  0  0  0  0  0  0  0  0  0
    6.4003    1.5595   26.8415 C   0  0  0  0  0  0  0  0  0  0  0  0
    6.6186    0.2778   26.2669 C   0  0  0  0  0  0  0  0  0  0  0  0
    6.8993    0.0729   25.0001 N   0  0  0  0  0  0  0  0  0  0  0  0
    7.0125    1.1621   24.1797 C   0  0  0  0  0  0  0  0  0  0  0  0
    6.5595   -0.6130   26.8912 H   0  0  0  0  0  0  0  0  0  0  0  0
    6.1701    1.6324   27.8978 H   0  0  0  0  0  0  0  0  0  0  0  0
    6.3195    3.6838   26.4159 H   0  0  0  0  0  0  0  0  0  0  0  0
    6.7275    4.6016   24.0979 H   0  0  0  0  0  0  0  0  0  0  0  0
    7.2716    4.1582   21.7062 H   0  0  0  0  0  0  0  0  0  0  0  0
    8.1657   -1.2825   22.8932 N   0  0  0  0  0  0  0  0  0  0  0  0
    9.0700   -3.8768   21.2087 H   0  0  0  0  0  0  0  0  0  0  0  0
    9.6592   -3.5083   22.8844 H   0  0  0  0  0  0  0  0  0  0  0  0
    8.3610   -5.5697   22.9169 H   0  0  0  0  0  0  0  0  0  0  0  0
    6.0732   -3.9964   21.6541 H   0  0  0  0  0  0  0  0  0  0  0  0
    7.1473   -5.0385   20.7679 H   0  0  0  0  0  0  0  0  0  0  0  0
    6.4247   -7.0034   22.2335 H   0  0  0  0  0  0  0  0  0  0  0  0
    5.0994   -6.3105   21.2895 H   0  0  0  0  0  0  0  0  0  0  0  0
    5.2484   -5.9431   23.0114 H   0  0  0  0  0  0  0  0  0  0  0  0
  1  2  1  0
  2  3  1  0
  3  4  1  0
  4  5  1  0
  4  6  1  0
  4  7  1  0
  3  8  1  0
  8  9  1  0
  9 10  2  0
 10 11  1  0
 11 12  1  0
 12 13  2  0
 13 14  1  0
 14 15  2  0
 15 16  1  0
 16 17  2  0
 17 18  1  0
 15 19  1  0
 14 20  1  0
 13 21  1  0
 11 22  1  0
 22 23  1  0
 23 24  2  0
 24 25  1  0
 25 26  2  0
 26 27  1  0
 27 28  2  0
 28 29  1  0
 29 30  2  0
 30 31  1  0
 31 32  2  0
 30 33  1  0
 29 34  1  0
 28 35  1  0
 26 36  1  0
 25 37  1  0
 22 38  2  0
  8 39  1  0
  8 40  1  0
  3 41  1  0
  2 42  1  0
  2 43  1  0
  1 44  1  0
  1 45  1  0
  1 46  1  0
 38  9  1  0
 17 12  1  0
 32 23  1  0
 32 27  1  0
M  END
>  <cnnaffinity>  (1) 
-6.18798

>  <filename>  (1) 
CCC(C)Cc1nc(-c2nccc3cccnc23)n(-c2cccnc2)n1

$$$$
