
     RDKit          3D

 38 40  0  0  0  0  0  0  0  0999 V2000
    6.3966   -3.0108   20.6181 C   0  0  0  0  0  0  0  0  0  0  0  0
    6.5974   -1.8555   21.5978 C   0  0  0  0  0  0  0  0  0  0  0  0
    7.4066   -0.6947   21.0336 C   0  0  0  0  0  0  0  0  0  0  0  0
    7.6206    0.1633   22.1758 O   0  0  0  0  0  0  0  0  0  0  0  0
    8.4912    1.1733   22.0358 C   0  0  0  0  0  0  0  0  0  0  0  0
    9.1365    1.3627   21.0284 O   0  0  0  0  0  0  0  0  0  0  0  0
    8.6341    1.9575   23.2766 C   0  0  0  0  0  0  0  0  0  0  0  0
    9.9151    2.3853   23.5277 C   0  0  0  0  0  0  0  0  0  0  0  0
   10.2814    3.0736   24.6357 N   0  0  0  0  0  0  0  0  0  0  0  0
    9.3371    3.3522   25.5116 C   0  0  0  0  0  0  0  0  0  0  0  0
    7.9703    2.9878   25.3746 C   0  0  0  0  0  0  0  0  0  0  0  0
    6.9929    3.3272   26.3566 C   0  0  0  0  0  0  0  0  0  0  0  0
    5.6678    3.0376   26.1441 C   0  0  0  0  0  0  0  0  0  0  0  0
    5.2641    2.3913   24.9447 C   0  0  0  0  0  0  0  0  0  0  0  0
    6.1957    2.0243   23.9959 C   0  0  0  0  0  0  0  0  0  0  0  0
    7.5842    2.2932   24.1915 C   0  0  0  0  0  0  0  0  0  0  0  0
    5.8834    1.5308   23.0858 H   0  0  0  0  0  0  0  0  0  0  0  0
    4.2086    2.1900   24.7811 H   0  0  0  0  0  0  0  0  0  0  0  0
    4.9217    3.3037   26.8888 H   0  0  0  0  0  0  0  0  0  0  0  0
    7.3108    3.8234   27.2699 H   0  0  0  0  0  0  0  0  0  0  0  0
    9.6086    3.9325   26.3943 H   0  0  0  0  0  0  0  0  0  0  0  0
   10.7082    2.1646   22.8163 H   0  0  0  0  0  0  0  0  0  0  0  0
    6.6731    0.0559   19.9285 C   0  0  0  0  0  0  0  0  0  0  0  0
    5.4427    0.7034   20.1484 C   0  0  0  0  0  0  0  0  0  0  0  0
    4.8069    1.3380   19.0810 C   0  0  0  0  0  0  0  0  0  0  0  0
    5.4162    1.2969   17.8211 C   0  0  0  0  0  0  0  0  0  0  0  0
    6.5791    0.6768   17.5816 N   0  0  0  0  0  0  0  0  0  0  0  0
    7.1836    0.0880   18.6259 C   0  0  0  0  0  0  0  0  0  0  0  0
    8.1384   -0.3944   18.4099 H   0  0  0  0  0  0  0  0  0  0  0  0
    4.9429    1.7750   16.9658 H   0  0  0  0  0  0  0  0  0  0  0  0
    3.8547    1.8449   19.2051 H   0  0  0  0  0  0  0  0  0  0  0  0
    4.9809    0.7075   21.1394 H   0  0  0  0  0  0  0  0  0  0  0  0
    8.3745   -1.0545   20.6541 H   0  0  0  0  0  0  0  0  0  0  0  0
    5.6403   -1.4300   21.8983 H   0  0  0  0  0  0  0  0  0  0  0  0
    7.0826   -2.1995   22.5226 H   0  0  0  0  0  0  0  0  0  0  0  0
    6.1182   -2.6550   19.6141 H   0  0  0  0  0  0  0  0  0  0  0  0
    5.6232   -3.6940   20.9846 H   0  0  0  0  0  0  0  0  0  0  0  0
    7.3216   -3.5819   20.5363 H   0  0  0  0  0  0  0  0  0  0  0  0
  1  2  1  0
  2  3  1  0
  3  4  1  0
  4  5  1  0
  5  6  2  0
  5  7  1  0
  7  8  2  0
  8  9  1  0
  9 10  2  0
 10 11  1  0
 11 12  2  0
 12 13  1  0
 13 14  2  0
 14 15  1  0
 15 16  2  0
 15 17  1  0
 14 18  1  0
 13 19  1  0
 12 20  1  0
 10 21  1  0
  8 22  1  0
  3 23  1  0
 23 24  2  0
 24 25  1  0
 25 26  2  0
 26 27  1  0
 27 28  2  0
 28 29  1  0
 26 30  1  0
 25 31  1  0
 24 32  1  0
  3 33  1  0
  2 34  1  0
  2 35  1  0
  1 36  1  0
  1 37  1  0
  1 38  1  0
 16  7  1  0
 28 23  1  0
 16 11  1  0
M  END
>  <cnnaffinity>  (1) 
-4.94755

>  <filename>  (1) 
CCC(OC(=O)c1cncc2ccccc12)c1cccnc1

$$$$
