
     RDKit          3D

 52 55  0  0  0  0  0  0  0  0999 V2000
    9.4213    5.8255   22.5255 C   0  0  0  0  0  0  0  0  0  0  0  0
    8.2735    4.8092   22.3848 C   0  0  0  0  0  0  0  0  0  0  0  0
    7.8565    3.9713   23.6099 C   0  0  0  0  0  0  0  0  0  0  0  0
    6.5662    3.4400   23.4020 O   0  0  0  0  0  0  0  0  0  0  0  0
    6.6924    2.5988   22.9199 H   0  0  0  0  0  0  0  0  0  0  0  0
    8.7939    2.8223   24.0733 C   0  0  0  0  0  0  0  0  0  0  0  0
   10.0495    3.2930   24.7945 C   0  0  0  0  0  0  0  0  0  0  0  0
    9.7157    3.8115   25.6997 H   0  0  0  0  0  0  0  0  0  0  0  0
   10.6732    2.4382   25.0823 H   0  0  0  0  0  0  0  0  0  0  0  0
   10.6740    3.9952   24.2389 H   0  0  0  0  0  0  0  0  0  0  0  0
    8.9409    1.7619   23.0131 C   0  0  0  0  0  0  0  0  0  0  0  0
    7.8736    1.1899   22.4829 N   0  0  0  0  0  0  0  0  0  0  0  0
    8.3763    0.1976   21.7070 C   0  0  0  0  0  0  0  0  0  0  0  0
    7.4850   -0.6957   20.8807 C   0  0  0  0  0  0  0  0  0  0  0  0
    6.7458   -0.0204   19.7214 C   0  0  0  0  0  0  0  0  0  0  0  0
    5.6079    0.7664   19.9583 C   0  0  0  0  0  0  0  0  0  0  0  0
    4.9759    1.3956   18.8815 C   0  0  0  0  0  0  0  0  0  0  0  0
    5.4986    1.2141   17.5994 C   0  0  0  0  0  0  0  0  0  0  0  0
    6.5803    0.4631   17.3432 N   0  0  0  0  0  0  0  0  0  0  0  0
    7.1735   -0.1330   18.3854 C   0  0  0  0  0  0  0  0  0  0  0  0
    8.0572   -0.7273   18.1509 H   0  0  0  0  0  0  0  0  0  0  0  0
    5.0329    1.6887   16.7370 H   0  0  0  0  0  0  0  0  0  0  0  0
    4.1067    2.0317   19.0205 H   0  0  0  0  0  0  0  0  0  0  0  0
    5.2344    0.8927   20.9769 H   0  0  0  0  0  0  0  0  0  0  0  0
    6.7451   -1.1035   21.5774 H   0  0  0  0  0  0  0  0  0  0  0  0
    8.0875   -1.5388   20.5266 H   0  0  0  0  0  0  0  0  0  0  0  0
    9.6885    0.1109   21.7212 N   0  0  0  0  0  0  0  0  0  0  0  0
   10.0679    1.1467   22.5337 N   0  0  0  0  0  0  0  0  0  0  0  0
   11.3889    1.7234   22.4398 C   0  0  0  0  0  0  0  0  0  0  0  0
   11.4176    3.0903   22.0782 C   0  0  0  0  0  0  0  0  0  0  0  0
   12.5894    3.8180   22.0286 C   0  0  0  0  0  0  0  0  0  0  0  0
   13.7521    3.1218   22.3398 C   0  0  0  0  0  0  0  0  0  0  0  0
   15.0528    3.5164   22.2273 N   0  0  0  0  0  0  0  0  0  0  0  0
   15.8771    2.3791   22.2849 C   0  0  0  0  0  0  0  0  0  0  0  0
   17.3831    2.6421   22.7936 C   0  0  0  0  0  0  0  0  0  0  0  0
   17.9511    1.7813   23.1116 H   0  0  0  0  0  0  0  0  0  0  0  0
   18.0221    3.0664   22.0068 H   0  0  0  0  0  0  0  0  0  0  0  0
   17.4525    3.3954   23.5842 H   0  0  0  0  0  0  0  0  0  0  0  0
   15.1332    1.3130   22.5146 N   0  0  0  0  0  0  0  0  0  0  0  0
   13.7975    1.7299   22.5633 C   0  0  0  0  0  0  0  0  0  0  0  0
   12.5733    1.0176   22.6646 C   0  0  0  0  0  0  0  0  0  0  0  0
   12.5536   -0.0446   22.8745 H   0  0  0  0  0  0  0  0  0  0  0  0
   15.3129    4.3752   21.7720 H   0  0  0  0  0  0  0  0  0  0  0  0
   12.6357    4.8477   21.6929 H   0  0  0  0  0  0  0  0  0  0  0  0
   10.4698    3.5577   21.8681 H   0  0  0  0  0  0  0  0  0  0  0  0
    8.1862    2.3053   24.8324 H   0  0  0  0  0  0  0  0  0  0  0  0
    7.7528    4.6620   24.4571 H   0  0  0  0  0  0  0  0  0  0  0  0
    8.4366    4.1354   21.5333 H   0  0  0  0  0  0  0  0  0  0  0  0
    7.3700    5.3717   22.1276 H   0  0  0  0  0  0  0  0  0  0  0  0
    9.4077    6.5314   21.6838 H   0  0  0  0  0  0  0  0  0  0  0  0
   10.4154    5.3732   22.5305 H   0  0  0  0  0  0  0  0  0  0  0  0
    9.3346    6.4098   23.4481 H   0  0  0  0  0  0  0  0  0  0  0  0
  1  2  1  0
  2  3  1  0
  3  4  1  0
  4  5  1  0
  3  6  1  0
  6  7  1  0
  7  8  1  0
  7  9  1  0
  7 10  1  0
  6 11  1  0
 11 12  2  0
 12 13  1  0
 13 14  1  0
 14 15  1  0
 15 16  2  0
 16 17  1  0
 17 18  2  0
 18 19  1  0
 19 20  2  0
 20 21  1  0
 18 22  1  0
 17 23  1  0
 16 24  1  0
 14 25  1  0
 14 26  1  0
 13 27  2  0
 27 28  1  0
 28 29  1  0
 29 30  2  0
 30 31  1  0
 31 32  2  0
 32 33  1  0
 33 34  1  0
 34 35  1  0
 35 36  1  0
 35 37  1  0
 35 38  1  0
 34 39  2  0
 39 40  1  0
 40 41  2  0
 41 42  1  0
 33 43  1  0
 31 44  1  0
 30 45  1  0
  6 46  1  0
  3 47  1  0
  2 48  1  0
  2 49  1  0
  1 50  1  0
  1 51  1  0
  1 52  1  0
 28 11  1  0
 41 29  1  0
 20 15  1  0
 40 32  1  0
M  END
>  <cnnaffinity>  (1) 
-5.58451

>  <filename>  (1) 
CCC(O)C(C)c1nc(Cc2cccnc2)nn1-c1ccc2[nH]c(C)nc2c1

$$$$
