
     RDKit          3D

 46 47  0  0  0  0  0  0  0  0999 V2000
   10.9009    0.1196   23.9288 C   0  0  0  0  0  0  0  0  0  0  0  0
    9.8558    1.1669   24.3257 C   0  0  0  0  0  0  0  0  0  0  0  0
    9.2020    1.9621   23.1786 C   0  0  0  0  0  0  0  0  0  0  0  0
   10.1019    3.0442   22.5511 C   0  0  0  0  0  0  0  0  0  0  0  0
   10.3112    4.2799   23.4202 C   0  0  0  0  0  0  0  0  0  0  0  0
    9.1773    5.0553   23.7246 C   0  0  0  0  0  0  0  0  0  0  0  0
    9.2480    6.1288   24.6170 C   0  0  0  0  0  0  0  0  0  0  0  0
   10.4679    6.4431   25.2228 C   0  0  0  0  0  0  0  0  0  0  0  0
   11.6182    5.7226   24.8938 C   0  0  0  0  0  0  0  0  0  0  0  0
   11.5579    4.6824   23.9478 C   0  0  0  0  0  0  0  0  0  0  0  0
   12.8201    4.0153   23.4333 C   0  0  0  0  0  0  0  0  0  0  0  0
   12.9129    4.0801   22.0869 F   0  0  0  0  0  0  0  0  0  0  0  0
   12.8436    2.7000   23.7533 F   0  0  0  0  0  0  0  0  0  0  0  0
   13.9514    4.5596   23.9171 F   0  0  0  0  0  0  0  0  0  0  0  0
   12.5633    5.9705   25.3739 H   0  0  0  0  0  0  0  0  0  0  0  0
   10.5217    7.2534   25.9459 H   0  0  0  0  0  0  0  0  0  0  0  0
    8.3524    6.7048   24.8438 H   0  0  0  0  0  0  0  0  0  0  0  0
    8.2204    4.7925   23.2728 H   0  0  0  0  0  0  0  0  0  0  0  0
   11.0400    2.5929   22.2173 H   0  0  0  0  0  0  0  0  0  0  0  0
    9.5715    3.3595   21.6493 H   0  0  0  0  0  0  0  0  0  0  0  0
    8.7244    1.1032   22.1052 N   0  0  0  0  0  0  0  0  0  0  0  0
    7.6663    0.2604   22.2339 C   0  0  0  0  0  0  0  0  0  0  0  0
    6.9648    0.2612   23.2334 O   0  0  0  0  0  0  0  0  0  0  0  0
    7.4541   -0.6735   21.0051 C   0  0  0  0  0  0  0  0  0  0  0  0
    6.6975   -1.9462   21.4247 C   0  0  0  0  0  0  0  0  0  0  0  0
    6.5562   -2.6123   20.5693 H   0  0  0  0  0  0  0  0  0  0  0  0
    7.2306   -2.4894   22.2113 H   0  0  0  0  0  0  0  0  0  0  0  0
    5.7115   -1.6911   21.8254 H   0  0  0  0  0  0  0  0  0  0  0  0
    6.7220    0.0451   19.8545 C   0  0  0  0  0  0  0  0  0  0  0  0
    5.5062    0.6915   20.1179 C   0  0  0  0  0  0  0  0  0  0  0  0
    4.8312    1.3196   19.0689 C   0  0  0  0  0  0  0  0  0  0  0  0
    5.3981    1.2986   17.7904 C   0  0  0  0  0  0  0  0  0  0  0  0
    6.5455    0.6665   17.5029 N   0  0  0  0  0  0  0  0  0  0  0  0
    7.1759    0.0537   18.5164 C   0  0  0  0  0  0  0  0  0  0  0  0
    8.1073   -0.4458   18.2494 H   0  0  0  0  0  0  0  0  0  0  0  0
    4.9126    1.8129   16.9632 H   0  0  0  0  0  0  0  0  0  0  0  0
    3.8882    1.8275   19.2278 H   0  0  0  0  0  0  0  0  0  0  0  0
    5.1126    0.7120   21.1393 H   0  0  0  0  0  0  0  0  0  0  0  0
    8.4641   -0.9607   20.6672 H   0  0  0  0  0  0  0  0  0  0  0  0
    9.2967    1.0170   21.2825 H   0  0  0  0  0  0  0  0  0  0  0  0
    8.3109    2.4388   23.6102 H   0  0  0  0  0  0  0  0  0  0  0  0
   10.2954    1.8997   25.0149 H   0  0  0  0  0  0  0  0  0  0  0  0
    9.0428    0.6752   24.8704 H   0  0  0  0  0  0  0  0  0  0  0  0
   11.3730   -0.3017   24.8238 H   0  0  0  0  0  0  0  0  0  0  0  0
   11.6887    0.5505   23.3016 H   0  0  0  0  0  0  0  0  0  0  0  0
   10.4414   -0.7095   23.3780 H   0  0  0  0  0  0  0  0  0  0  0  0
  1  2  1  0
  2  3  1  0
  3  4  1  0
  4  5  1  0
  5  6  2  0
  6  7  1  0
  7  8  2  0
  8  9  1  0
  9 10  2  0
 10 11  1  0
 11 12  1  0
 11 13  1  0
 11 14  1  0
  9 15  1  0
  8 16  1  0
  7 17  1  0
  6 18  1  0
  4 19  1  0
  4 20  1  0
  3 21  1  0
 21 22  1  0
 22 23  2  0
 22 24  1  0
 24 25  1  0
 25 26  1  0
 25 27  1  0
 25 28  1  0
 24 29  1  0
 29 30  2  0
 30 31  1  0
 31 32  2  0
 32 33  1  0
 33 34  2  0
 34 35  1  0
 32 36  1  0
 31 37  1  0
 30 38  1  0
 24 39  1  0
 21 40  1  0
  3 41  1  0
  2 42  1  0
  2 43  1  0
  1 44  1  0
  1 45  1  0
  1 46  1  0
 10  5  1  0
 34 29  1  0
M  END
>  <cnnaffinity>  (1) 
-5.3881

>  <filename>  (1) 
CCC(Cc1ccccc1C(F)(F)F)NC(=O)C(C)c1cccnc1

$$$$
