
     RDKit          3D

 36 38  0  0  0  0  0  0  0  0999 V2000
   11.4609   -0.8215   21.8128 C   0  0  0  0  0  0  0  0  0  0  0  0
   10.6143   -2.0706   22.0501 C   0  0  0  0  0  0  0  0  0  0  0  0
    9.4773   -1.8000   23.0494 C   0  0  0  0  0  0  0  0  0  0  0  0
    9.0093   -3.0072   23.6637 O   0  0  0  0  0  0  0  0  0  0  0  0
    8.4855   -4.0359   22.9208 C   0  0  0  0  0  0  0  0  0  0  0  0
    7.6524   -3.8803   21.7990 C   0  0  0  0  0  0  0  0  0  0  0  0
    6.9860   -5.0019   21.2937 C   0  0  0  0  0  0  0  0  0  0  0  0
    7.2710   -6.2820   21.7698 C   0  0  0  0  0  0  0  0  0  0  0  0
    8.2128   -6.4343   22.7892 C   0  0  0  0  0  0  0  0  0  0  0  0
    8.7740   -5.3204   23.4114 C   0  0  0  0  0  0  0  0  0  0  0  0
    9.4315   -5.3839   24.2759 H   0  0  0  0  0  0  0  0  0  0  0  0
    8.4966   -7.4332   23.0918 H   0  0  0  0  0  0  0  0  0  0  0  0
    6.7633   -7.1594   21.3830 H   0  0  0  0  0  0  0  0  0  0  0  0
    6.2593   -4.8766   20.4983 H   0  0  0  0  0  0  0  0  0  0  0  0
    7.5329   -2.9184   21.3049 H   0  0  0  0  0  0  0  0  0  0  0  0
    8.3519   -0.9504   22.4536 C   0  0  0  0  0  0  0  0  0  0  0  0
    8.1488   -0.6348   21.2079 N   0  0  0  0  0  0  0  0  0  0  0  0
    6.9122   -0.0392   21.2544 C   0  0  0  0  0  0  0  0  0  0  0  0
    6.2969    0.3867   19.9982 C   0  0  0  0  0  0  0  0  0  0  0  0
    5.0627    1.0449   19.9141 C   0  0  0  0  0  0  0  0  0  0  0  0
    4.6581    1.4980   18.6593 C   0  0  0  0  0  0  0  0  0  0  0  0
    5.4827    1.2708   17.5500 C   0  0  0  0  0  0  0  0  0  0  0  0
    6.6417    0.5975   17.6191 N   0  0  0  0  0  0  0  0  0  0  0  0
    7.0323    0.1653   18.8215 C   0  0  0  0  0  0  0  0  0  0  0  0
    7.9764   -0.3771   18.8566 H   0  0  0  0  0  0  0  0  0  0  0  0
    5.2045    1.6422   16.5652 H   0  0  0  0  0  0  0  0  0  0  0  0
    3.7309    2.0443   18.5283 H   0  0  0  0  0  0  0  0  0  0  0  0
    4.4595    1.2116   20.8091 H   0  0  0  0  0  0  0  0  0  0  0  0
    6.4134    0.0780   22.4546 N   0  0  0  0  0  0  0  0  0  0  0  0
    7.3804   -0.5169   23.2598 O   0  0  0  0  0  0  0  0  0  0  0  0
    9.8776   -1.2268   23.8926 H   0  0  0  0  0  0  0  0  0  0  0  0
   10.1932   -2.4453   21.1057 H   0  0  0  0  0  0  0  0  0  0  0  0
   11.2342   -2.8741   22.4664 H   0  0  0  0  0  0  0  0  0  0  0  0
   11.8409   -0.4382   22.7680 H   0  0  0  0  0  0  0  0  0  0  0  0
   10.8852   -0.0209   21.3316 H   0  0  0  0  0  0  0  0  0  0  0  0
   12.3294   -1.0478   21.1876 H   0  0  0  0  0  0  0  0  0  0  0  0
  1  2  1  0
  2  3  1  0
  3  4  1  0
  4  5  1  0
  5  6  2  0
  6  7  1  0
  7  8  2  0
  8  9  1  0
  9 10  2  0
 10 11  1  0
  9 12  1  0
  8 13  1  0
  7 14  1  0
  6 15  1  0
  3 16  1  0
 16 17  2  0
 17 18  1  0
 18 19  1  0
 19 20  2  0
 20 21  1  0
 21 22  2  0
 22 23  1  0
 23 24  2  0
 24 25  1  0
 22 26  1  0
 21 27  1  0
 20 28  1  0
 18 29  2  0
 29 30  1  0
  3 31  1  0
  2 32  1  0
  2 33  1  0
  1 34  1  0
  1 35  1  0
  1 36  1  0
 10  5  1  0
 30 16  1  0
 24 19  1  0
M  END
>  <cnnaffinity>  (1) 
-5.5846

>  <filename>  (1) 
CCC(Oc1ccccc1)c1nc(-c2cccnc2)no1

$$$$
