
     RDKit          3D

 43 46  0  0  0  0  0  0  0  0999 V2000
    6.9004   -4.3635   23.8155 C   0  0  0  0  0  0  0  0  0  0  0  0
    7.7050   -4.6706   22.5473 C   0  0  0  0  0  0  0  0  0  0  0  0
    8.7716   -3.6017   22.2286 C   0  0  0  0  0  0  0  0  0  0  0  0
    9.8348   -3.6958   23.1721 O   0  0  0  0  0  0  0  0  0  0  0  0
    9.5669   -3.2008   23.9644 H   0  0  0  0  0  0  0  0  0  0  0  0
    8.2146   -2.2191   21.9939 C   0  0  0  0  0  0  0  0  0  0  0  0
    7.7922   -1.8848   20.7877 N   0  0  0  0  0  0  0  0  0  0  0  0
    7.3407   -0.6224   20.9557 N   0  0  0  0  0  0  0  0  0  0  0  0
    6.6368    0.0179   19.9018 C   0  0  0  0  0  0  0  0  0  0  0  0
    5.4124    0.6472   20.1447 C   0  0  0  0  0  0  0  0  0  0  0  0
    4.7950    1.3043   19.0815 C   0  0  0  0  0  0  0  0  0  0  0  0
    5.4086    1.2902   17.8259 C   0  0  0  0  0  0  0  0  0  0  0  0
    6.5699    0.6565   17.5828 N   0  0  0  0  0  0  0  0  0  0  0  0
    7.1643    0.0266   18.5988 C   0  0  0  0  0  0  0  0  0  0  0  0
    8.1107   -0.4662   18.3829 H   0  0  0  0  0  0  0  0  0  0  0  0
    4.9554    1.8044   16.9819 H   0  0  0  0  0  0  0  0  0  0  0  0
    3.8663    1.8436   19.2285 H   0  0  0  0  0  0  0  0  0  0  0  0
    4.9884    0.6499   21.1484 H   0  0  0  0  0  0  0  0  0  0  0  0
    7.5264   -0.2631   22.2642 C   0  0  0  0  0  0  0  0  0  0  0  0
    7.2508    1.0471   22.8084 C   0  0  0  0  0  0  0  0  0  0  0  0
    6.7587    1.1056   24.1233 C   0  0  0  0  0  0  0  0  0  0  0  0
    6.4490    0.0934   25.0162 N   0  0  0  0  0  0  0  0  0  0  0  0
    6.0231    0.7033   26.0888 C   0  0  0  0  0  0  0  0  0  0  0  0
    5.6277    0.0361   27.3674 C   0  0  0  0  0  0  0  0  0  0  0  0
    4.7935    0.5484   27.8569 H   0  0  0  0  0  0  0  0  0  0  0  0
    6.4669    0.0164   28.0716 H   0  0  0  0  0  0  0  0  0  0  0  0
    5.3416   -0.9956   27.1577 H   0  0  0  0  0  0  0  0  0  0  0  0
    6.0148    2.0664   25.9503 N   0  0  0  0  0  0  0  0  0  0  0  0
    6.4776    2.3651   24.6864 C   0  0  0  0  0  0  0  0  0  0  0  0
    6.6740    3.5629   23.9934 C   0  0  0  0  0  0  0  0  0  0  0  0
    7.1779    3.4724   22.6950 C   0  0  0  0  0  0  0  0  0  0  0  0
    7.4547    4.9294   21.7894 Cl  0  0  0  0  0  0  0  0  0  0  0  0
    7.4664    2.2431   22.0966 C   0  0  0  0  0  0  0  0  0  0  0  0
    7.8363    2.2235   21.0774 H   0  0  0  0  0  0  0  0  0  0  0  0
    6.4576    4.5372   24.4102 H   0  0  0  0  0  0  0  0  0  0  0  0
    5.7328    2.7242   26.6546 H   0  0  0  0  0  0  0  0  0  0  0  0
    8.0669   -1.2701   22.9335 N   0  0  0  0  0  0  0  0  0  0  0  0
    9.1520   -3.7944   21.2314 H   0  0  0  0  0  0  0  0  0  0  0  0
    7.0429   -4.7835   21.6746 H   0  0  0  0  0  0  0  0  0  0  0  0
    8.2663   -5.6096   22.6597 H   0  0  0  0  0  0  0  0  0  0  0  0
    6.1172   -5.1094   23.9834 H   0  0  0  0  0  0  0  0  0  0  0  0
    6.4311   -3.3723   23.7538 H   0  0  0  0  0  0  0  0  0  0  0  0
    7.5430   -4.3563   24.7069 H   0  0  0  0  0  0  0  0  0  0  0  0
  1  2  1  0
  2  3  1  0
  3  4  1  0
  4  5  1  0
  3  6  1  0
  6  7  2  0
  7  8  1  0
  8  9  1  0
  9 10  2  0
 10 11  1  0
 11 12  2  0
 12 13  1  0
 13 14  2  0
 14 15  1  0
 12 16  1  0
 11 17  1  0
 10 18  1  0
  8 19  1  0
 19 20  1  0
 20 21  2  0
 21 22  1  0
 22 23  2  0
 23 24  1  0
 24 25  1  0
 24 26  1  0
 24 27  1  0
 23 28  1  0
 28 29  1  0
 29 30  2  0
 30 31  1  0
 31 32  1  0
 31 33  2  0
 33 34  1  0
 30 35  1  0
 28 36  1  0
 19 37  2  0
  3 38  1  0
  2 39  1  0
  2 40  1  0
  1 41  1  0
  1 42  1  0
  1 43  1  0
 37  6  1  0
 14  9  1  0
 33 20  1  0
 29 21  1  0
M  END
>  <cnnaffinity>  (1) 
-6.16429

>  <filename>  (1) 
CCC(O)c1nc(-c2cc(Cl)cc3[nH]c(C)nc23)n(-c2cccnc2)n1

$$$$
