
     RDKit          3D

 45 48  0  0  0  0  0  0  0  0999 V2000
    6.7058   -5.5004   20.6953 C   0  0  0  0  0  0  0  0  0  0  0  0
    6.4127   -4.8930   22.0692 C   0  0  0  0  0  0  0  0  0  0  0  0
    7.6827   -4.6185   22.9005 C   0  0  0  0  0  0  0  0  0  0  0  0
    7.3278   -4.1828   24.3251 C   0  0  0  0  0  0  0  0  0  0  0  0
    6.7507   -3.2515   24.3164 H   0  0  0  0  0  0  0  0  0  0  0  0
    8.2230   -4.0071   24.9339 H   0  0  0  0  0  0  0  0  0  0  0  0
    6.7254   -4.9584   24.8149 H   0  0  0  0  0  0  0  0  0  0  0  0
    8.6188   -3.6290   22.1600 C   0  0  0  0  0  0  0  0  0  0  0  0
    8.0991   -2.2473   21.9399 C   0  0  0  0  0  0  0  0  0  0  0  0
    7.6515   -1.8848   20.7565 N   0  0  0  0  0  0  0  0  0  0  0  0
    7.2790   -0.5957   20.9307 N   0  0  0  0  0  0  0  0  0  0  0  0
    6.5876    0.0355   19.8606 C   0  0  0  0  0  0  0  0  0  0  0  0
    5.3615    0.6751   20.0627 C   0  0  0  0  0  0  0  0  0  0  0  0
    4.7780    1.3201   18.9702 C   0  0  0  0  0  0  0  0  0  0  0  0
    5.4246    1.2865   17.7318 C   0  0  0  0  0  0  0  0  0  0  0  0
    6.5710    0.6148   17.5213 N   0  0  0  0  0  0  0  0  0  0  0  0
    7.1205   -0.0164   18.5616 C   0  0  0  0  0  0  0  0  0  0  0  0
    8.0247   -0.5886   18.3706 H   0  0  0  0  0  0  0  0  0  0  0  0
    5.0052    1.8030   16.8703 H   0  0  0  0  0  0  0  0  0  0  0  0
    3.8252    1.8274   19.0654 H   0  0  0  0  0  0  0  0  0  0  0  0
    4.8869    0.6709   21.0452 H   0  0  0  0  0  0  0  0  0  0  0  0
    7.5689   -0.2138   22.2247 C   0  0  0  0  0  0  0  0  0  0  0  0
    7.4194    1.1289   22.7939 C   0  0  0  0  0  0  0  0  0  0  0  0
    7.3025    1.4121   24.1649 C   0  0  0  0  0  0  0  0  0  0  0  0
    7.2954    0.6603   25.3696 C   0  0  0  0  0  0  0  0  0  0  0  0
    7.1359    1.3153   26.5716 C   0  0  0  0  0  0  0  0  0  0  0  0
    6.9776    2.7406   26.6057 C   0  0  0  0  0  0  0  0  0  0  0  0
    6.9787    3.4631   25.4475 C   0  0  0  0  0  0  0  0  0  0  0  0
    7.1427    2.7992   24.2369 N   0  0  0  0  0  0  0  0  0  0  0  0
    7.1902    3.2533   22.9418 C   0  0  0  0  0  0  0  0  0  0  0  0
    7.3639    2.2960   22.0706 N   0  0  0  0  0  0  0  0  0  0  0  0
    7.0641    4.2994   22.7025 H   0  0  0  0  0  0  0  0  0  0  0  0
    6.8544    4.5417   25.4056 H   0  0  0  0  0  0  0  0  0  0  0  0
    6.8581    3.2515   27.5580 H   0  0  0  0  0  0  0  0  0  0  0  0
    7.1324    0.7529   27.4998 H   0  0  0  0  0  0  0  0  0  0  0  0
    7.4345   -0.4089   25.2882 H   0  0  0  0  0  0  0  0  0  0  0  0
    8.0604   -1.2747   22.8723 N   0  0  0  0  0  0  0  0  0  0  0  0
    8.7917   -4.0169   21.1545 H   0  0  0  0  0  0  0  0  0  0  0  0
    9.5816   -3.5368   22.6751 H   0  0  0  0  0  0  0  0  0  0  0  0
    8.2456   -5.5649   22.9859 H   0  0  0  0  0  0  0  0  0  0  0  0
    5.8477   -3.9542   21.9469 H   0  0  0  0  0  0  0  0  0  0  0  0
    5.7689   -5.5775   22.6400 H   0  0  0  0  0  0  0  0  0  0  0  0
    5.7850   -5.7669   20.1692 H   0  0  0  0  0  0  0  0  0  0  0  0
    7.3261   -6.4030   20.7848 H   0  0  0  0  0  0  0  0  0  0  0  0
    7.2391   -4.7800   20.0688 H   0  0  0  0  0  0  0  0  0  0  0  0
  1  2  1  0
  2  3  1  0
  3  4  1  0
  4  5  1  0
  4  6  1  0
  4  7  1  0
  3  8  1  0
  8  9  1  0
  9 10  2  0
 10 11  1  0
 11 12  1  0
 12 13  2  0
 13 14  1  0
 14 15  2  0
 15 16  1  0
 16 17  2  0
 17 18  1  0
 15 19  1  0
 14 20  1  0
 13 21  1  0
 11 22  1  0
 22 23  1  0
 23 24  2  0
 24 25  1  0
 25 26  2  0
 26 27  1  0
 27 28  2  0
 28 29  1  0
 29 30  1  0
 30 31  2  0
 30 32  1  0
 28 33  1  0
 27 34  1  0
 26 35  1  0
 25 36  1  0
 22 37  2  0
  8 38  1  0
  8 39  1  0
  3 40  1  0
  2 41  1  0
  2 42  1  0
  1 43  1  0
  1 44  1  0
  1 45  1  0
 37  9  1  0
 17 12  1  0
 31 23  1  0
 29 24  1  0
M  END
>  <cnnaffinity>  (1) 
-5.92888

>  <filename>  (1) 
CCC(C)Cc1nc(-c2ncn3ccccc23)n(-c2cccnc2)n1

$$$$
