
     RDKit          3D

 41 43  0  0  0  0  0  0  0  0999 V2000
    9.0089   -1.1692   26.4553 C   0  0  0  0  0  0  0  0  0  0  0  0
    9.1578   -1.3372   24.9488 C   0  0  0  0  0  0  0  0  0  0  0  0
    7.9029   -1.9140   24.2466 C   0  0  0  0  0  0  0  0  0  0  0  0
    7.7768   -3.4607   24.3342 C   0  0  0  0  0  0  0  0  0  0  0  0
    7.4332   -3.9751   25.7213 C   0  0  0  0  0  0  0  0  0  0  0  0
    6.1628   -3.6662   26.2424 C   0  0  0  0  0  0  0  0  0  0  0  0
    5.7716   -4.1112   27.5059 C   0  0  0  0  0  0  0  0  0  0  0  0
    6.6523   -4.8716   28.2734 C   0  0  0  0  0  0  0  0  0  0  0  0
    7.9158   -5.1866   27.7708 C   0  0  0  0  0  0  0  0  0  0  0  0
    8.3249   -4.7537   26.5026 C   0  0  0  0  0  0  0  0  0  0  0  0
    9.6969   -5.1280   25.9978 C   0  0  0  0  0  0  0  0  0  0  0  0
    9.6181   -5.7608   25.1063 H   0  0  0  0  0  0  0  0  0  0  0  0
   10.2622   -5.6822   26.7525 H   0  0  0  0  0  0  0  0  0  0  0  0
   10.2733   -4.2311   25.7403 H   0  0  0  0  0  0  0  0  0  0  0  0
    8.5943   -5.7892   28.3729 H   0  0  0  0  0  0  0  0  0  0  0  0
    6.3577   -5.2202   29.2586 H   0  0  0  0  0  0  0  0  0  0  0  0
    4.7862   -3.8663   27.8904 H   0  0  0  0  0  0  0  0  0  0  0  0
    5.4576   -3.0825   25.6477 H   0  0  0  0  0  0  0  0  0  0  0  0
    8.6997   -3.9081   23.9460 H   0  0  0  0  0  0  0  0  0  0  0  0
    6.9786   -3.7888   23.6533 H   0  0  0  0  0  0  0  0  0  0  0  0
    7.8463   -1.4779   22.8120 C   0  0  0  0  0  0  0  0  0  0  0  0
    6.9226   -0.7839   22.2307 N   0  0  0  0  0  0  0  0  0  0  0  0
    7.3946   -0.7023   20.9410 C   0  0  0  0  0  0  0  0  0  0  0  0
    6.6588    0.0100   19.9027 C   0  0  0  0  0  0  0  0  0  0  0  0
    5.4404    0.6527   20.1621 C   0  0  0  0  0  0  0  0  0  0  0  0
    4.8061    1.3103   19.1138 C   0  0  0  0  0  0  0  0  0  0  0  0
    5.4041    1.2884   17.8483 C   0  0  0  0  0  0  0  0  0  0  0  0
    6.5716    0.6774   17.5921 N   0  0  0  0  0  0  0  0  0  0  0  0
    7.1836    0.0578   18.6045 C   0  0  0  0  0  0  0  0  0  0  0  0
    8.1303   -0.4350   18.3791 H   0  0  0  0  0  0  0  0  0  0  0  0
    4.9090    1.7703   17.0074 H   0  0  0  0  0  0  0  0  0  0  0  0
    3.8722    1.8451   19.2673 H   0  0  0  0  0  0  0  0  0  0  0  0
    5.0076    0.6291   21.1612 H   0  0  0  0  0  0  0  0  0  0  0  0
    8.5330   -1.3125   20.7420 N   0  0  0  0  0  0  0  0  0  0  0  0
    8.8337   -1.8313   21.9844 O   0  0  0  0  0  0  0  0  0  0  0  0
    7.0111   -1.4603   24.7000 H   0  0  0  0  0  0  0  0  0  0  0  0
    9.3870   -0.3505   24.5219 H   0  0  0  0  0  0  0  0  0  0  0  0
   10.0257   -1.9755   24.7243 H   0  0  0  0  0  0  0  0  0  0  0  0
    9.8685   -0.6202   26.8525 H   0  0  0  0  0  0  0  0  0  0  0  0
    8.9520   -2.1301   26.9735 H   0  0  0  0  0  0  0  0  0  0  0  0
    8.1042   -0.5939   26.6869 H   0  0  0  0  0  0  0  0  0  0  0  0
  1  2  1  0
  2  3  1  0
  3  4  1  0
  4  5  1  0
  5  6  2  0
  6  7  1  0
  7  8  2  0
  8  9  1  0
  9 10  2  0
 10 11  1  0
 11 12  1  0
 11 13  1  0
 11 14  1  0
  9 15  1  0
  8 16  1  0
  7 17  1  0
  6 18  1  0
  4 19  1  0
  4 20  1  0
  3 21  1  0
 21 22  2  0
 22 23  1  0
 23 24  1  0
 24 25  2  0
 25 26  1  0
 26 27  2  0
 27 28  1  0
 28 29  2  0
 29 30  1  0
 27 31  1  0
 26 32  1  0
 25 33  1  0
 23 34  2  0
 34 35  1  0
  3 36  1  0
  2 37  1  0
  2 38  1  0
  1 39  1  0
  1 40  1  0
  1 41  1  0
 10  5  1  0
 35 21  1  0
 29 24  1  0
M  END
>  <cnnaffinity>  (1) 
-5.71498

>  <filename>  (1) 
CCC(Cc1ccccc1C)c1nc(-c2cccnc2)no1

$$$$
