
     RDKit          3D

 42 45  0  0  0  0  0  0  0  0999 V2000
    7.0700   -4.7932   22.9656 C   0  0  0  0  0  0  0  0  0  0  0  0
    8.4714   -4.2994   23.3301 C   0  0  0  0  0  0  0  0  0  0  0  0
    9.0935   -3.4156   22.2456 C   0  0  0  0  0  0  0  0  0  0  0  0
   10.4690   -3.1815   22.5522 O   0  0  0  0  0  0  0  0  0  0  0  0
   10.5258   -2.6785   23.3778 H   0  0  0  0  0  0  0  0  0  0  0  0
    8.3300   -2.1557   21.9621 C   0  0  0  0  0  0  0  0  0  0  0  0
    7.8877   -1.8386   20.7630 N   0  0  0  0  0  0  0  0  0  0  0  0
    7.3728   -0.6031   20.9348 N   0  0  0  0  0  0  0  0  0  0  0  0
    6.6316    0.0063   19.8878 C   0  0  0  0  0  0  0  0  0  0  0  0
    5.4018    0.6245   20.1366 C   0  0  0  0  0  0  0  0  0  0  0  0
    4.7839    1.2880   19.0765 C   0  0  0  0  0  0  0  0  0  0  0  0
    5.4010    1.2848   17.8222 C   0  0  0  0  0  0  0  0  0  0  0  0
    6.5634    0.6547   17.5738 N   0  0  0  0  0  0  0  0  0  0  0  0
    7.1587    0.0231   18.5872 C   0  0  0  0  0  0  0  0  0  0  0  0
    8.1092   -0.4642   18.3755 H   0  0  0  0  0  0  0  0  0  0  0  0
    4.9552    1.8073   16.9800 H   0  0  0  0  0  0  0  0  0  0  0  0
    3.8628    1.8407   19.2284 H   0  0  0  0  0  0  0  0  0  0  0  0
    4.9815    0.6447   21.1437 H   0  0  0  0  0  0  0  0  0  0  0  0
    7.5480   -0.2379   22.2409 C   0  0  0  0  0  0  0  0  0  0  0  0
    7.2077    1.0817   22.7893 C   0  0  0  0  0  0  0  0  0  0  0  0
    7.5264    2.1393   22.0409 N   0  0  0  0  0  0  0  0  0  0  0  0
    7.2618    3.3670   22.5326 C   0  0  0  0  0  0  0  0  0  0  0  0
    6.6938    3.5737   23.7675 C   0  0  0  0  0  0  0  0  0  0  0  0
    6.3308    2.4635   24.5846 C   0  0  0  0  0  0  0  0  0  0  0  0
    5.7427    2.6129   25.8713 C   0  0  0  0  0  0  0  0  0  0  0  0
    5.3841    1.5173   26.6230 C   0  0  0  0  0  0  0  0  0  0  0  0
    5.5893    0.2090   26.1152 C   0  0  0  0  0  0  0  0  0  0  0  0
    6.1615    0.0215   24.8793 C   0  0  0  0  0  0  0  0  0  0  0  0
    6.5744    1.1492   24.0863 C   0  0  0  0  0  0  0  0  0  0  0  0
    6.3265   -0.9840   24.4981 H   0  0  0  0  0  0  0  0  0  0  0  0
    5.3076   -0.6526   26.7154 H   0  0  0  0  0  0  0  0  0  0  0  0
    4.9427    1.6390   27.6089 H   0  0  0  0  0  0  0  0  0  0  0  0
    5.5869    3.6189   26.2436 H   0  0  0  0  0  0  0  0  0  0  0  0
    6.5241    4.5839   24.1127 H   0  0  0  0  0  0  0  0  0  0  0  0
    7.5361    4.1840   21.8703 H   0  0  0  0  0  0  0  0  0  0  0  0
    8.1240   -1.2241   22.9122 N   0  0  0  0  0  0  0  0  0  0  0  0
    9.0297   -3.9158   21.2770 H   0  0  0  0  0  0  0  0  0  0  0  0
    9.1729   -5.1310   23.4666 H   0  0  0  0  0  0  0  0  0  0  0  0
    8.4696   -3.7425   24.2796 H   0  0  0  0  0  0  0  0  0  0  0  0
    6.6543   -5.4264   23.7568 H   0  0  0  0  0  0  0  0  0  0  0  0
    7.0893   -5.3851   22.0411 H   0  0  0  0  0  0  0  0  0  0  0  0
    6.3811   -3.9539   22.8039 H   0  0  0  0  0  0  0  0  0  0  0  0
  1  2  1  0
  2  3  1  0
  3  4  1  0
  4  5  1  0
  3  6  1  0
  6  7  2  0
  7  8  1  0
  8  9  1  0
  9 10  2  0
 10 11  1  0
 11 12  2  0
 12 13  1  0
 13 14  2  0
 14 15  1  0
 12 16  1  0
 11 17  1  0
 10 18  1  0
  8 19  1  0
 19 20  1  0
 20 21  2  0
 21 22  1  0
 22 23  2  0
 23 24  1  0
 24 25  2  0
 25 26  1  0
 26 27  2  0
 27 28  1  0
 28 29  2  0
 28 30  1  0
 27 31  1  0
 26 32  1  0
 25 33  1  0
 23 34  1  0
 22 35  1  0
 19 36  2  0
  3 37  1  0
  2 38  1  0
  2 39  1  0
  1 40  1  0
  1 41  1  0
  1 42  1  0
 36  6  1  0
 14  9  1  0
 29 20  1  0
 29 24  1  0
M  END
>  <cnnaffinity>  (1) 
-5.80863

>  <filename>  (1) 
CCC(O)c1nc(-c2nccc3ccccc23)n(-c2cccnc2)n1

$$$$
