
     RDKit          3D

 35 36  0  0  0  0  0  0  0  0999 V2000
    7.4494   -2.9390   22.2926 C   0  0  0  0  0  0  0  0  0  0  0  0
    6.6857   -1.9822   21.3687 C   0  0  0  0  0  0  0  0  0  0  0  0
    7.4089   -0.6634   21.0516 C   0  0  0  0  0  0  0  0  0  0  0  0
    7.6168    0.1753   22.2300 N   0  0  0  0  0  0  0  0  0  0  0  0
    8.4889    1.2222   22.1658 C   0  0  0  0  0  0  0  0  0  0  0  0
    9.2160    1.4239   21.2099 O   0  0  0  0  0  0  0  0  0  0  0  0
    8.4885    1.9919   23.3216 N   0  0  0  0  0  0  0  0  0  0  0  0
    9.3930    3.0185   23.5614 C   0  0  0  0  0  0  0  0  0  0  0  0
    9.0114    4.2287   24.1602 C   0  0  0  0  0  0  0  0  0  0  0  0
    7.3848    4.5866   24.6218 Cl  0  0  0  0  0  0  0  0  0  0  0  0
   10.0306    5.1722   24.3674 C   0  0  0  0  0  0  0  0  0  0  0  0
    9.7272    6.3460   24.9146 F   0  0  0  0  0  0  0  0  0  0  0  0
   11.2966    4.9983   24.0808 N   0  0  0  0  0  0  0  0  0  0  0  0
   11.6480    3.8336   23.5146 C   0  0  0  0  0  0  0  0  0  0  0  0
   10.7430    2.8250   23.2353 C   0  0  0  0  0  0  0  0  0  0  0  0
   11.0433    1.8983   22.7707 H   0  0  0  0  0  0  0  0  0  0  0  0
   12.7089    3.7407   23.2875 H   0  0  0  0  0  0  0  0  0  0  0  0
    7.6719    1.9536   23.9047 H   0  0  0  0  0  0  0  0  0  0  0  0
    6.9963    0.1473   23.0177 H   0  0  0  0  0  0  0  0  0  0  0  0
    6.6751    0.0793   19.9379 C   0  0  0  0  0  0  0  0  0  0  0  0
    5.4346    0.6953   20.1548 C   0  0  0  0  0  0  0  0  0  0  0  0
    4.7957    1.3193   19.0832 C   0  0  0  0  0  0  0  0  0  0  0  0
    5.3958    1.2865   17.8197 C   0  0  0  0  0  0  0  0  0  0  0  0
    6.5561    0.6594   17.5779 N   0  0  0  0  0  0  0  0  0  0  0  0
    7.1694    0.0874   18.6237 C   0  0  0  0  0  0  0  0  0  0  0  0
    8.1139   -0.4033   18.3831 H   0  0  0  0  0  0  0  0  0  0  0  0
    4.9398    1.7919   16.9695 H   0  0  0  0  0  0  0  0  0  0  0  0
    3.8577    1.8451   19.2190 H   0  0  0  0  0  0  0  0  0  0  0  0
    4.9760    0.6799   21.1474 H   0  0  0  0  0  0  0  0  0  0  0  0
    8.4130   -0.9011   20.6685 H   0  0  0  0  0  0  0  0  0  0  0  0
    6.5056   -2.4641   20.3986 H   0  0  0  0  0  0  0  0  0  0  0  0
    5.6828   -1.7524   21.7576 H   0  0  0  0  0  0  0  0  0  0  0  0
    6.8950   -3.8701   22.4601 H   0  0  0  0  0  0  0  0  0  0  0  0
    7.6430   -2.4876   23.2728 H   0  0  0  0  0  0  0  0  0  0  0  0
    8.4197   -3.2138   21.8595 H   0  0  0  0  0  0  0  0  0  0  0  0
  1  2  1  0
  2  3  1  0
  3  4  1  0
  4  5  1  0
  5  6  2  0
  5  7  1  0
  7  8  1  0
  8  9  2  0
  9 10  1  0
  9 11  1  0
 11 12  1  0
 11 13  2  0
 13 14  1  0
 14 15  2  0
 15 16  1  0
 14 17  1  0
  7 18  1  0
  4 19  1  0
  3 20  1  0
 20 21  2  0
 21 22  1  0
 22 23  2  0
 23 24  1  0
 24 25  2  0
 25 26  1  0
 23 27  1  0
 22 28  1  0
 21 29  1  0
  3 30  1  0
  2 31  1  0
  2 32  1  0
  1 33  1  0
  1 34  1  0
  1 35  1  0
 15  8  1  0
 25 20  1  0
M  END
>  <cnnaffinity>  (1) 
-5.39155

>  <filename>  (1) 
CCC(NC(=O)Nc1ccnc(F)c1Cl)c1cccnc1

$$$$
