
     RDKit          3D

 35 36  0  0  0  0  0  0  0  0999 V2000
    7.8531   -3.9851   23.0215 C   0  0  0  0  0  0  0  0  0  0  0  0
    8.5527   -2.6335   23.2030 C   0  0  0  0  0  0  0  0  0  0  0  0
    7.5521   -1.4696   23.2630 C   0  0  0  0  0  0  0  0  0  0  0  0
    8.2983   -0.2941   23.6296 O   0  0  0  0  0  0  0  0  0  0  0  0
    7.7745    0.9714   23.5855 C   0  0  0  0  0  0  0  0  0  0  0  0
    8.6757    1.9492   23.1154 C   0  0  0  0  0  0  0  0  0  0  0  0
    8.2904    3.2787   22.9481 C   0  0  0  0  0  0  0  0  0  0  0  0
    6.9885    3.6682   23.2796 C   0  0  0  0  0  0  0  0  0  0  0  0
    6.0970    2.7275   23.7957 C   0  0  0  0  0  0  0  0  0  0  0  0
    6.4875    1.3939   23.9826 C   0  0  0  0  0  0  0  0  0  0  0  0
    5.3292    0.3511   24.7686 Cl  0  0  0  0  0  0  0  0  0  0  0  0
    5.0832    3.0037   24.0726 H   0  0  0  0  0  0  0  0  0  0  0  0
    6.6660    4.7004   23.1610 H   0  0  0  0  0  0  0  0  0  0  0  0
    8.9953    4.0141   22.5601 H   0  0  0  0  0  0  0  0  0  0  0  0
    9.6784    1.6141   22.8644 H   0  0  0  0  0  0  0  0  0  0  0  0
    6.7916   -1.3935   21.9179 C   0  0  0  0  0  0  0  0  0  0  0  0
    5.7883   -2.0558   21.7368 O   0  0  0  0  0  0  0  0  0  0  0  0
    7.3821   -0.6362   20.9309 N   0  0  0  0  0  0  0  0  0  0  0  0
    6.6954    0.0162   19.8752 C   0  0  0  0  0  0  0  0  0  0  0  0
    5.4692    0.6390   20.1315 C   0  0  0  0  0  0  0  0  0  0  0  0
    4.8118    1.3050   19.0889 C   0  0  0  0  0  0  0  0  0  0  0  0
    5.4031    1.2978   17.8189 C   0  0  0  0  0  0  0  0  0  0  0  0
    6.5664    0.6820   17.5469 N   0  0  0  0  0  0  0  0  0  0  0  0
    7.2012    0.0710   18.5568 C   0  0  0  0  0  0  0  0  0  0  0  0
    8.1451   -0.4178   18.3182 H   0  0  0  0  0  0  0  0  0  0  0  0
    4.9258    1.8047   16.9836 H   0  0  0  0  0  0  0  0  0  0  0  0
    3.8747    1.8348   19.2484 H   0  0  0  0  0  0  0  0  0  0  0  0
    5.0559    0.5897   21.1401 H   0  0  0  0  0  0  0  0  0  0  0  0
    8.3818   -0.5324   20.9924 H   0  0  0  0  0  0  0  0  0  0  0  0
    6.7853   -1.6675   24.0134 H   0  0  0  0  0  0  0  0  0  0  0  0
    9.2711   -2.4581   22.3868 H   0  0  0  0  0  0  0  0  0  0  0  0
    9.1441   -2.6152   24.1238 H   0  0  0  0  0  0  0  0  0  0  0  0
    7.1458   -4.1709   23.8403 H   0  0  0  0  0  0  0  0  0  0  0  0
    8.5777   -4.8054   23.0032 H   0  0  0  0  0  0  0  0  0  0  0  0
    7.2764   -4.0130   22.0906 H   0  0  0  0  0  0  0  0  0  0  0  0
  1  2  1  0
  2  3  1  0
  3  4  1  0
  4  5  1  0
  5  6  2  0
  6  7  1  0
  7  8  2  0
  8  9  1  0
  9 10  2  0
 10 11  1  0
  9 12  1  0
  8 13  1  0
  7 14  1  0
  6 15  1  0
  3 16  1  0
 16 17  2  0
 16 18  1  0
 18 19  1  0
 19 20  2  0
 20 21  1  0
 21 22  2  0
 22 23  1  0
 23 24  2  0
 24 25  1  0
 22 26  1  0
 21 27  1  0
 20 28  1  0
 18 29  1  0
  3 30  1  0
  2 31  1  0
  2 32  1  0
  1 33  1  0
  1 34  1  0
  1 35  1  0
 10  5  1  0
 24 19  1  0
M  END
>  <cnnaffinity>  (1) 
-5.01449

>  <filename>  (1) 
CCC(Oc1ccccc1Cl)C(=O)Nc1cccnc1

$$$$
