
     RDKit          3D

 29 30  0  0  0  0  0  0  0  0999 V2000
    4.9464    1.8010   17.0078 H   0  0  0  0  0  0  0  0  0  0  0  0
    5.4065    1.2801   17.8446 C   0  0  0  0  0  0  0  0  0  0  0  0
    6.5621    0.6432   17.5848 N   0  0  0  0  0  0  0  0  0  0  0  0
    7.1805    0.0199   18.5986 C   0  0  0  0  0  0  0  0  0  0  0  0
    8.1331   -0.4643   18.3798 H   0  0  0  0  0  0  0  0  0  0  0  0
    6.6576   -0.0238   19.9069 C   0  0  0  0  0  0  0  0  0  0  0  0
    7.3215   -0.7192   20.9681 N   0  0  0  0  0  0  0  0  0  0  0  0
    6.6993   -1.6755   21.7952 C   0  0  0  0  0  0  0  0  0  0  0  0
    5.6519   -1.9174   21.7272 H   0  0  0  0  0  0  0  0  0  0  0  0
    7.6419   -2.1096   22.6484 C   0  0  0  0  0  0  0  0  0  0  0  0
    7.6103   -3.0578   23.6570 N   0  0  0  0  0  0  0  0  0  0  0  0
    6.7956   -3.6385   23.7070 H   0  0  0  0  0  0  0  0  0  0  0  0
    8.5100   -3.1684   24.6871 C   0  0  0  0  0  0  0  0  0  0  0  0
    9.4299   -2.3877   24.8652 O   0  0  0  0  0  0  0  0  0  0  0  0
    8.2876   -4.3921   25.5478 C   0  0  0  0  0  0  0  0  0  0  0  0
    8.7072   -4.1666   26.5288 H   0  0  0  0  0  0  0  0  0  0  0  0
    7.2097   -4.5277   25.6707 H   0  0  0  0  0  0  0  0  0  0  0  0
    8.9327   -5.6545   24.9514 C   0  0  0  0  0  0  0  0  0  0  0  0
    8.4974   -5.9151   23.9796 H   0  0  0  0  0  0  0  0  0  0  0  0
   10.0108   -5.5108   24.8108 H   0  0  0  0  0  0  0  0  0  0  0  0
    8.7828   -6.5084   25.6196 H   0  0  0  0  0  0  0  0  0  0  0  0
    8.8038   -1.4511   22.3717 N   0  0  0  0  0  0  0  0  0  0  0  0
    9.6246   -1.4843   22.9517 H   0  0  0  0  0  0  0  0  0  0  0  0
    8.6321   -0.5448   21.3754 C   0  0  0  0  0  0  0  0  0  0  0  0
    9.7945    0.5219   20.8715 S   0  0  0  0  0  0  0  0  0  0  0  0
    5.4480    0.6325   20.1580 C   0  0  0  0  0  0  0  0  0  0  0  0
    5.0392    0.6364   21.1703 H   0  0  0  0  0  0  0  0  0  0  0  0
    4.8085    1.3013   19.1099 C   0  0  0  0  0  0  0  0  0  0  0  0
    3.8795    1.8475   19.2656 H   0  0  0  0  0  0  0  0  0  0  0  0
  1  2  1  0
  2  3  2  0
  3  4  1  0
  4  5  1  0
  4  6  2  0
  6  7  1  0
  7  8  1  0
  8  9  1  0
  8 10  2  0
 10 11  1  0
 11 12  1  0
 11 13  1  0
 13 14  2  0
 13 15  1  0
 15 16  1  0
 15 17  1  0
 15 18  1  0
 18 19  1  0
 18 20  1  0
 18 21  1  0
 10 22  1  0
 22 23  1  0
 22 24  1  0
 24 25  2  0
  6 26  1  0
 26 27  1  0
 26 28  2  0
 28 29  1  0
 28  2  1  0
 24  7  1  0
M  END
>  <cnnaffinity>  (1) 
-5.01743

>  <filename>  (1) 
CCC(=O)Nc1cn(-c2cccnc2)c(=S)[nH]1

$$$$
