
     RDKit          3D

 35 36  0  0  0  0  0  0  0  0999 V2000
    7.8018   -2.8206   22.2176 C   0  0  0  0  0  0  0  0  0  0  0  0
    7.1710   -1.9802   21.0975 C   0  0  0  0  0  0  0  0  0  0  0  0
    7.2231   -0.4515   21.2360 C   0  0  0  0  0  0  0  0  0  0  0  0
    8.5950    0.0290   21.2830 N   0  0  0  0  0  0  0  0  0  0  0  0
    8.8912    1.1737   21.9615 C   0  0  0  0  0  0  0  0  0  0  0  0
    8.0973    1.8114   22.6271 O   0  0  0  0  0  0  0  0  0  0  0  0
   10.2229    1.5004   21.7769 N   0  0  0  0  0  0  0  0  0  0  0  0
   10.8486    2.5945   22.3470 C   0  0  0  0  0  0  0  0  0  0  0  0
   11.8651    3.2604   21.6619 C   0  0  0  0  0  0  0  0  0  0  0  0
   12.2229    2.8725   20.4287 F   0  0  0  0  0  0  0  0  0  0  0  0
   12.4416    4.3725   22.2771 C   0  0  0  0  0  0  0  0  0  0  0  0
   13.3841    5.0573   21.6308 F   0  0  0  0  0  0  0  0  0  0  0  0
   12.1227    4.8077   23.4742 N   0  0  0  0  0  0  0  0  0  0  0  0
   11.1616    4.1445   24.1333 C   0  0  0  0  0  0  0  0  0  0  0  0
   10.5013    3.0390   23.6245 C   0  0  0  0  0  0  0  0  0  0  0  0
    9.7078    2.5416   24.1572 H   0  0  0  0  0  0  0  0  0  0  0  0
   10.9190    4.5565   25.1057 H   0  0  0  0  0  0  0  0  0  0  0  0
   10.6053    1.2007   20.8987 H   0  0  0  0  0  0  0  0  0  0  0  0
    9.3605   -0.6012   21.1255 H   0  0  0  0  0  0  0  0  0  0  0  0
    6.5455    0.2481   20.0645 C   0  0  0  0  0  0  0  0  0  0  0  0
    5.3115    0.9050   20.1591 C   0  0  0  0  0  0  0  0  0  0  0  0
    4.7248    1.4111   18.9916 C   0  0  0  0  0  0  0  0  0  0  0  0
    5.4223    1.2900   17.7850 C   0  0  0  0  0  0  0  0  0  0  0  0
    6.6291    0.7146   17.6836 N   0  0  0  0  0  0  0  0  0  0  0  0
    7.1722    0.2310   18.8056 C   0  0  0  0  0  0  0  0  0  0  0  0
    8.1727   -0.1916   18.6968 H   0  0  0  0  0  0  0  0  0  0  0  0
    5.0039    1.6651   16.8526 H   0  0  0  0  0  0  0  0  0  0  0  0
    3.7598    1.9096   18.9999 H   0  0  0  0  0  0  0  0  0  0  0  0
    4.8413    1.0535   21.1349 H   0  0  0  0  0  0  0  0  0  0  0  0
    6.7150   -0.1534   22.1667 H   0  0  0  0  0  0  0  0  0  0  0  0
    6.1187   -2.2696   21.0038 H   0  0  0  0  0  0  0  0  0  0  0  0
    7.6181   -2.2174   20.1301 H   0  0  0  0  0  0  0  0  0  0  0  0
    7.3070   -2.6574   23.1797 H   0  0  0  0  0  0  0  0  0  0  0  0
    7.6874   -3.8864   21.9912 H   0  0  0  0  0  0  0  0  0  0  0  0
    8.8695   -2.6254   22.3721 H   0  0  0  0  0  0  0  0  0  0  0  0
  1  2  1  0
  2  3  1  0
  3  4  1  0
  4  5  1  0
  5  6  2  0
  5  7  1  0
  7  8  1  0
  8  9  2  0
  9 10  1  0
  9 11  1  0
 11 12  1  0
 11 13  2  0
 13 14  1  0
 14 15  2  0
 15 16  1  0
 14 17  1  0
  7 18  1  0
  4 19  1  0
  3 20  1  0
 20 21  2  0
 21 22  1  0
 22 23  2  0
 23 24  1  0
 24 25  2  0
 25 26  1  0
 23 27  1  0
 22 28  1  0
 21 29  1  0
  3 30  1  0
  2 31  1  0
  2 32  1  0
  1 33  1  0
  1 34  1  0
  1 35  1  0
 15  8  1  0
 25 20  1  0
M  END
>  <cnnaffinity>  (1) 
-5.32759

>  <filename>  (1) 
CCC(NC(=O)Nc1ccnc(F)c1F)c1cccnc1

$$$$
