
     RDKit          3D

 45 48  0  0  0  0  0  0  0  0999 V2000
    7.0894   -4.6461   23.7019 C   0  0  0  0  0  0  0  0  0  0  0  0
    7.9582   -4.6919   22.4378 C   0  0  0  0  0  0  0  0  0  0  0  0
    8.8329   -3.4418   22.1966 C   0  0  0  0  0  0  0  0  0  0  0  0
    9.9244   -3.3862   23.1097 O   0  0  0  0  0  0  0  0  0  0  0  0
    9.6050   -2.9812   23.9319 H   0  0  0  0  0  0  0  0  0  0  0  0
    7.9925   -2.1889   22.1029 C   0  0  0  0  0  0  0  0  0  0  0  0
    7.6536   -1.7250   20.9221 N   0  0  0  0  0  0  0  0  0  0  0  0
    6.9253   -0.6153   21.2080 N   0  0  0  0  0  0  0  0  0  0  0  0
    6.3724    0.1105   20.1183 C   0  0  0  0  0  0  0  0  0  0  0  0
    5.2231    0.9058   20.1978 C   0  0  0  0  0  0  0  0  0  0  0  0
    4.7747    1.4995   19.0104 C   0  0  0  0  0  0  0  0  0  0  0  0
    5.4749    1.2944   17.8197 C   0  0  0  0  0  0  0  0  0  0  0  0
    6.5885    0.5495   17.7473 N   0  0  0  0  0  0  0  0  0  0  0  0
    7.0204   -0.0145   18.8724 C   0  0  0  0  0  0  0  0  0  0  0  0
    7.9318   -0.6039   18.8127 H   0  0  0  0  0  0  0  0  0  0  0  0
    5.1371    1.7353   16.8851 H   0  0  0  0  0  0  0  0  0  0  0  0
    3.8947    2.1284   18.9994 H   0  0  0  0  0  0  0  0  0  0  0  0
    4.7034    1.0507   21.1476 H   0  0  0  0  0  0  0  0  0  0  0  0
    6.8993   -0.4600   22.5722 C   0  0  0  0  0  0  0  0  0  0  0  0
    6.4913    0.7678   23.2629 C   0  0  0  0  0  0  0  0  0  0  0  0
    5.6255    0.7314   24.3424 C   0  0  0  0  0  0  0  0  0  0  0  0
    5.1676    1.9203   24.9667 C   0  0  0  0  0  0  0  0  0  0  0  0
    4.3214    1.8671   26.2165 C   0  0  0  0  0  0  0  0  0  0  0  0
    3.6810    0.9806   26.2405 H   0  0  0  0  0  0  0  0  0  0  0  0
    3.6888    2.7564   26.3065 H   0  0  0  0  0  0  0  0  0  0  0  0
    4.9639    1.8316   27.1051 H   0  0  0  0  0  0  0  0  0  0  0  0
    5.5604    3.1329   24.4350 C   0  0  0  0  0  0  0  0  0  0  0  0
    6.5152    3.2143   23.3898 C   0  0  0  0  0  0  0  0  0  0  0  0
    7.0053    4.4549   22.9023 C   0  0  0  0  0  0  0  0  0  0  0  0
    8.0380    4.4577   22.0017 C   0  0  0  0  0  0  0  0  0  0  0  0
    8.6503    3.3318   21.5552 N   0  0  0  0  0  0  0  0  0  0  0  0
    8.1833    2.1718   21.9634 C   0  0  0  0  0  0  0  0  0  0  0  0
    7.0586    2.0243   22.8431 C   0  0  0  0  0  0  0  0  0  0  0  0
    8.6982    1.2802   21.6079 H   0  0  0  0  0  0  0  0  0  0  0  0
    8.4391    5.3957   21.6208 H   0  0  0  0  0  0  0  0  0  0  0  0
    6.5751    5.3792   23.2690 H   0  0  0  0  0  0  0  0  0  0  0  0
    5.1685    4.0571   24.8383 H   0  0  0  0  0  0  0  0  0  0  0  0
    5.2724   -0.2247   24.7203 H   0  0  0  0  0  0  0  0  0  0  0  0
    7.5134   -1.4778   23.1533 N   0  0  0  0  0  0  0  0  0  0  0  0
    9.2565   -3.4966   21.1921 H   0  0  0  0  0  0  0  0  0  0  0  0
    8.6403   -5.5496   22.4693 H   0  0  0  0  0  0  0  0  0  0  0  0
    7.3009   -4.8264   21.5663 H   0  0  0  0  0  0  0  0  0  0  0  0
    6.4148   -3.7836   23.6899 H   0  0  0  0  0  0  0  0  0  0  0  0
    7.6796   -4.5695   24.6238 H   0  0  0  0  0  0  0  0  0  0  0  0
    6.4678   -5.5427   23.7785 H   0  0  0  0  0  0  0  0  0  0  0  0
  1  2  1  0
  2  3  1  0
  3  4  1  0
  4  5  1  0
  3  6  1  0
  6  7  2  0
  7  8  1  0
  8  9  1  0
  9 10  2  0
 10 11  1  0
 11 12  2  0
 12 13  1  0
 13 14  2  0
 14 15  1  0
 12 16  1  0
 11 17  1  0
 10 18  1  0
  8 19  1  0
 19 20  1  0
 20 21  2  0
 21 22  1  0
 22 23  1  0
 23 24  1  0
 23 25  1  0
 23 26  1  0
 22 27  2  0
 27 28  1  0
 28 29  2  0
 29 30  1  0
 30 31  2  0
 31 32  1  0
 32 33  2  0
 32 34  1  0
 30 35  1  0
 29 36  1  0
 27 37  1  0
 21 38  1  0
 19 39  2  0
  3 40  1  0
  2 41  1  0
  2 42  1  0
  1 43  1  0
  1 44  1  0
  1 45  1  0
 39  6  1  0
 14  9  1  0
 33 20  1  0
 33 28  1  0
M  END
>  <cnnaffinity>  (1) 
-5.87083

>  <filename>  (1) 
CCC(O)c1nc(-c2cc(C)cc3ccncc23)n(-c2cccnc2)n1

$$$$
