
     RDKit          3D

 33 34  0  0  0  0  0  0  0  0999 V2000
    5.9472   -2.7395   20.9714 C   0  0  0  0  0  0  0  0  0  0  0  0
    7.2955   -2.0377   21.1106 C   0  0  0  0  0  0  0  0  0  0  0  0
    7.2327   -0.5096   21.2052 C   0  0  0  0  0  0  0  0  0  0  0  0
    8.6134   -0.0617   21.2516 N   0  0  0  0  0  0  0  0  0  0  0  0
    8.9883    1.1551   21.6324 C   0  0  0  0  0  0  0  0  0  0  0  0
   10.3508    1.5006   21.6156 C   0  0  0  0  0  0  0  0  0  0  0  0
   10.6326    2.7744   22.0669 C   0  0  0  0  0  0  0  0  0  0  0  0
   12.0844    3.3372   21.9898 C   0  0  0  0  0  0  0  0  0  0  0  0
   12.2831    4.3958   22.7760 F   0  0  0  0  0  0  0  0  0  0  0  0
   12.9794    2.3927   22.3503 F   0  0  0  0  0  0  0  0  0  0  0  0
   12.3876    3.7059   20.7306 F   0  0  0  0  0  0  0  0  0  0  0  0
    9.6532    3.5777   22.5372 N   0  0  0  0  0  0  0  0  0  0  0  0
    8.4138    3.1334   22.4692 C   0  0  0  0  0  0  0  0  0  0  0  0
    8.0095    1.9536   22.0295 N   0  0  0  0  0  0  0  0  0  0  0  0
    7.6404    3.8185   22.8171 H   0  0  0  0  0  0  0  0  0  0  0  0
   11.0950    0.7783   21.3065 H   0  0  0  0  0  0  0  0  0  0  0  0
    9.3423   -0.6883   20.9835 H   0  0  0  0  0  0  0  0  0  0  0  0
    6.5100    0.1755   20.0545 C   0  0  0  0  0  0  0  0  0  0  0  0
    5.2646    0.8213   20.1618 C   0  0  0  0  0  0  0  0  0  0  0  0
    4.7040    1.3920   19.0136 C   0  0  0  0  0  0  0  0  0  0  0  0
    5.4154    1.3196   17.8127 C   0  0  0  0  0  0  0  0  0  0  0  0
    6.6085    0.7225   17.6937 N   0  0  0  0  0  0  0  0  0  0  0  0
    7.1320    0.1807   18.7998 C   0  0  0  0  0  0  0  0  0  0  0  0
    8.1125   -0.2774   18.6750 H   0  0  0  0  0  0  0  0  0  0  0  0
    5.0122    1.7444   16.8968 H   0  0  0  0  0  0  0  0  0  0  0  0
    3.7460    1.8997   19.0332 H   0  0  0  0  0  0  0  0  0  0  0  0
    4.7617    0.9107   21.1280 H   0  0  0  0  0  0  0  0  0  0  0  0
    6.7287   -0.2278   22.1447 H   0  0  0  0  0  0  0  0  0  0  0  0
    7.8358   -2.3994   21.9947 H   0  0  0  0  0  0  0  0  0  0  0  0
    7.9498   -2.2506   20.2656 H   0  0  0  0  0  0  0  0  0  0  0  0
    5.4077   -2.3430   20.1013 H   0  0  0  0  0  0  0  0  0  0  0  0
    5.3392   -2.5727   21.8700 H   0  0  0  0  0  0  0  0  0  0  0  0
    6.0832   -3.8203   20.8499 H   0  0  0  0  0  0  0  0  0  0  0  0
  1  2  1  0
  2  3  1  0
  3  4  1  0
  4  5  1  0
  5  6  2  0
  6  7  1  0
  7  8  1  0
  8  9  1  0
  8 10  1  0
  8 11  1  0
  7 12  2  0
 12 13  1  0
 13 14  2  0
 13 15  1  0
  6 16  1  0
  4 17  1  0
  3 18  1  0
 18 19  2  0
 19 20  1  0
 20 21  2  0
 21 22  1  0
 22 23  2  0
 23 24  1  0
 21 25  1  0
 20 26  1  0
 19 27  1  0
  3 28  1  0
  2 29  1  0
  2 30  1  0
  1 31  1  0
  1 32  1  0
  1 33  1  0
 14  5  1  0
 23 18  1  0
M  END
>  <cnnaffinity>  (1) 
-5.04251

>  <filename>  (1) 
CCC(Nc1cc(C(F)(F)F)ncn1)c1cccnc1

$$$$
