
     RDKit          3D

 40 41  0  0  0  0  0  0  0  0999 V2000
   10.0683   -1.0163   23.3859 C   0  0  0  0  0  0  0  0  0  0  0  0
    8.9628   -2.0719   23.3383 C   0  0  0  0  0  0  0  0  0  0  0  0
    7.5928   -1.4062   23.5370 C   0  0  0  0  0  0  0  0  0  0  0  0
    6.5136   -2.4962   23.7288 C   0  0  0  0  0  0  0  0  0  0  0  0
    6.2298   -3.3184   22.4865 C   0  0  0  0  0  0  0  0  0  0  0  0
    5.6917   -2.7113   21.3466 C   0  0  0  0  0  0  0  0  0  0  0  0
    5.6066   -3.3992   20.1328 C   0  0  0  0  0  0  0  0  0  0  0  0
    5.9315   -4.7554   20.0893 C   0  0  0  0  0  0  0  0  0  0  0  0
    6.3614   -5.4076   21.2473 C   0  0  0  0  0  0  0  0  0  0  0  0
    6.5329   -4.6906   22.4412 C   0  0  0  0  0  0  0  0  0  0  0  0
    7.2250   -5.6040   23.9732 Br  0  0  0  0  0  0  0  0  0  0  0  0
    6.5776   -6.4724   21.2140 H   0  0  0  0  0  0  0  0  0  0  0  0
    5.8339   -5.3023   19.1582 H   0  0  0  0  0  0  0  0  0  0  0  0
    5.3175   -2.8730   19.2275 H   0  0  0  0  0  0  0  0  0  0  0  0
    5.4222   -1.6649   21.3955 H   0  0  0  0  0  0  0  0  0  0  0  0
    5.5938   -2.0306   24.0708 H   0  0  0  0  0  0  0  0  0  0  0  0
    6.8368   -3.1630   24.5337 H   0  0  0  0  0  0  0  0  0  0  0  0
    7.2692   -0.4660   22.4452 N   0  0  0  0  0  0  0  0  0  0  0  0
    7.0398    0.9506   22.7471 C   0  0  0  0  0  0  0  0  0  0  0  0
    7.7975    1.3346   23.4407 H   0  0  0  0  0  0  0  0  0  0  0  0
    6.0494    1.0888   23.1855 H   0  0  0  0  0  0  0  0  0  0  0  0
    7.0955    1.5621   21.8383 H   0  0  0  0  0  0  0  0  0  0  0  0
    7.3469   -0.8419   21.1073 C   0  0  0  0  0  0  0  0  0  0  0  0
    7.9110   -1.8801   20.7820 O   0  0  0  0  0  0  0  0  0  0  0  0
    6.6741   -0.0837   20.0664 C   0  0  0  0  0  0  0  0  0  0  0  0
    5.5073    0.6738   20.2671 C   0  0  0  0  0  0  0  0  0  0  0  0
    4.9756    1.3209   19.1555 C   0  0  0  0  0  0  0  0  0  0  0  0
    5.6029    1.2016   17.9142 C   0  0  0  0  0  0  0  0  0  0  0  0
    6.7118    0.4672   17.7342 N   0  0  0  0  0  0  0  0  0  0  0  0
    7.2282   -0.1635   18.7964 C   0  0  0  0  0  0  0  0  0  0  0  0
    8.1274   -0.7580   18.6715 H   0  0  0  0  0  0  0  0  0  0  0  0
    5.1813    1.7139   17.0569 H   0  0  0  0  0  0  0  0  0  0  0  0
    4.0816    1.9288   19.2280 H   0  0  0  0  0  0  0  0  0  0  0  0
    5.0088    0.7610   21.2333 H   0  0  0  0  0  0  0  0  0  0  0  0
    7.6500   -0.8422   24.4788 H   0  0  0  0  0  0  0  0  0  0  0  0
    8.9994   -2.6176   22.3896 H   0  0  0  0  0  0  0  0  0  0  0  0
    9.1293   -2.8025   24.1379 H   0  0  0  0  0  0  0  0  0  0  0  0
   11.0508   -1.4910   23.3739 H   0  0  0  0  0  0  0  0  0  0  0  0
    9.9976   -0.3484   22.5210 H   0  0  0  0  0  0  0  0  0  0  0  0
    9.9797   -0.4212   24.3018 H   0  0  0  0  0  0  0  0  0  0  0  0
  1  2  1  0
  2  3  1  0
  3  4  1  0
  4  5  1  0
  5  6  2  0
  6  7  1  0
  7  8  2  0
  8  9  1  0
  9 10  2  0
 10 11  1  0
  9 12  1  0
  8 13  1  0
  7 14  1  0
  6 15  1  0
  4 16  1  0
  4 17  1  0
  3 18  1  0
 18 19  1  0
 19 20  1  0
 19 21  1  0
 19 22  1  0
 18 23  1  0
 23 24  2  0
 23 25  1  0
 25 26  2  0
 26 27  1  0
 27 28  2  0
 28 29  1  0
 29 30  2  0
 30 31  1  0
 28 32  1  0
 27 33  1  0
 26 34  1  0
  3 35  1  0
  2 36  1  0
  2 37  1  0
  1 38  1  0
  1 39  1  0
  1 40  1  0
 10  5  1  0
 30 25  1  0
M  END
>  <cnnaffinity>  (1) 
-5.18084

>  <filename>  (1) 
CCC(Cc1ccccc1Br)N(C)C(=O)c1cccnc1

$$$$
