
     RDKit          3D

 43 46  0  0  0  0  0  0  0  0999 V2000
    7.0297   -4.2626   24.0077 C   0  0  0  0  0  0  0  0  0  0  0  0
    7.7073   -4.6233   22.6870 C   0  0  0  0  0  0  0  0  0  0  0  0
    8.7775   -3.5910   22.2454 C   0  0  0  0  0  0  0  0  0  0  0  0
    9.9483   -3.5050   23.2498 C   0  0  0  0  0  0  0  0  0  0  0  0
    9.6419   -2.8788   24.0973 H   0  0  0  0  0  0  0  0  0  0  0  0
   10.2439   -4.4904   23.6336 H   0  0  0  0  0  0  0  0  0  0  0  0
   10.8335   -3.0336   22.8106 H   0  0  0  0  0  0  0  0  0  0  0  0
    8.2320   -2.2220   21.9718 C   0  0  0  0  0  0  0  0  0  0  0  0
    7.7803   -1.8843   20.7835 N   0  0  0  0  0  0  0  0  0  0  0  0
    7.3477   -0.6171   20.9551 N   0  0  0  0  0  0  0  0  0  0  0  0
    6.6302    0.0127   19.9037 C   0  0  0  0  0  0  0  0  0  0  0  0
    5.3945    0.6237   20.1372 C   0  0  0  0  0  0  0  0  0  0  0  0
    4.7805    1.2842   19.0716 C   0  0  0  0  0  0  0  0  0  0  0  0
    5.4059    1.2806   17.8217 C   0  0  0  0  0  0  0  0  0  0  0  0
    6.5692    0.6472   17.5839 N   0  0  0  0  0  0  0  0  0  0  0  0
    7.1609    0.0185   18.6022 C   0  0  0  0  0  0  0  0  0  0  0  0
    8.1070   -0.4746   18.3874 H   0  0  0  0  0  0  0  0  0  0  0  0
    4.9678    1.8096   16.9793 H   0  0  0  0  0  0  0  0  0  0  0  0
    3.8610    1.8391   19.2224 H   0  0  0  0  0  0  0  0  0  0  0  0
    4.9689    0.6409   21.1406 H   0  0  0  0  0  0  0  0  0  0  0  0
    7.5795   -0.2503   22.2606 C   0  0  0  0  0  0  0  0  0  0  0  0
    7.3349    1.0899   22.7890 C   0  0  0  0  0  0  0  0  0  0  0  0
    7.4293    2.1255   21.9440 N   0  0  0  0  0  0  0  0  0  0  0  0
    7.2104    3.3668   22.4229 C   0  0  0  0  0  0  0  0  0  0  0  0
    6.9103    3.6235   23.7466 C   0  0  0  0  0  0  0  0  0  0  0  0
    6.8136    2.5455   24.6749 C   0  0  0  0  0  0  0  0  0  0  0  0
    6.5183    2.6995   26.0606 C   0  0  0  0  0  0  0  0  0  0  0  0
    6.4429    1.5818   26.8641 C   0  0  0  0  0  0  0  0  0  0  0  0
    6.6492    0.3033   26.2844 C   0  0  0  0  0  0  0  0  0  0  0  0
    6.9111    0.1147   25.0114 N   0  0  0  0  0  0  0  0  0  0  0  0
    7.0244    1.2070   24.1984 C   0  0  0  0  0  0  0  0  0  0  0  0
    6.6016   -0.5943   26.9001 H   0  0  0  0  0  0  0  0  0  0  0  0
    6.2319    1.6339   27.9258 H   0  0  0  0  0  0  0  0  0  0  0  0
    6.3607    3.7023   26.4482 H   0  0  0  0  0  0  0  0  0  0  0  0
    6.7490    4.6418   24.0761 H   0  0  0  0  0  0  0  0  0  0  0  0
    7.2804    4.1577   21.6819 H   0  0  0  0  0  0  0  0  0  0  0  0
    8.1351   -1.2650   22.9052 N   0  0  0  0  0  0  0  0  0  0  0  0
    9.0556   -3.8726   21.2325 H   0  0  0  0  0  0  0  0  0  0  0  0
    6.9592   -4.7397   21.8890 H   0  0  0  0  0  0  0  0  0  0  0  0
    8.2187   -5.5958   22.7642 H   0  0  0  0  0  0  0  0  0  0  0  0
    6.5750   -3.2660   23.9491 H   0  0  0  0  0  0  0  0  0  0  0  0
    6.2500   -4.9820   24.2720 H   0  0  0  0  0  0  0  0  0  0  0  0
    7.7470   -4.2404   24.8365 H   0  0  0  0  0  0  0  0  0  0  0  0
  1  2  1  0
  2  3  1  0
  3  4  1  0
  4  5  1  0
  4  6  1  0
  4  7  1  0
  3  8  1  0
  8  9  2  0
  9 10  1  0
 10 11  1  0
 11 12  2  0
 12 13  1  0
 13 14  2  0
 14 15  1  0
 15 16  2  0
 16 17  1  0
 14 18  1  0
 13 19  1  0
 12 20  1  0
 10 21  1  0
 21 22  1  0
 22 23  2  0
 23 24  1  0
 24 25  2  0
 25 26  1  0
 26 27  2  0
 27 28  1  0
 28 29  2  0
 29 30  1  0
 30 31  2  0
 29 32  1  0
 28 33  1  0
 27 34  1  0
 25 35  1  0
 24 36  1  0
 21 37  2  0
  3 38  1  0
  2 39  1  0
  2 40  1  0
  1 41  1  0
  1 42  1  0
  1 43  1  0
 37  8  1  0
 16 11  1  0
 31 22  1  0
 31 26  1  0
M  END
>  <cnnaffinity>  (1) 
-6.13592

>  <filename>  (1) 
CCC(C)c1nc(-c2nccc3cccnc23)n(-c2cccnc2)n1

$$$$
