
     RDKit          3D

 37 38  0  0  0  0  0  0  0  0999 V2000
    5.8797   -2.7903   20.8952 C   0  0  0  0  0  0  0  0  0  0  0  0
    7.2062   -2.0487   20.8892 C   0  0  0  0  0  0  0  0  0  0  0  0
    7.1954   -0.5407   21.1495 C   0  0  0  0  0  0  0  0  0  0  0  0
    8.6709   -0.0403   21.2154 N   0  0  0  0  0  4  0  0  0  0  0  0
    9.3280   -0.0769   22.6319 C   0  0  0  0  0  0  0  0  0  0  0  0
    9.4420   -1.4192   23.3903 C   0  0  0  0  0  0  0  0  0  0  0  0
    8.4170   -1.7654   24.1754 N   0  0  0  0  0  0  0  0  0  0  0  0
    8.4562   -2.9756   24.7611 C   0  0  0  0  0  0  0  0  0  0  0  0
    7.2223   -3.4534   25.5750 C   0  0  0  0  0  0  0  0  0  0  0  0
    6.2779   -2.5230   25.7237 F   0  0  0  0  0  0  0  0  0  0  0  0
    6.6436   -4.5170   24.9692 F   0  0  0  0  0  0  0  0  0  0  0  0
    7.5788   -3.8658   26.8092 F   0  0  0  0  0  0  0  0  0  0  0  0
    9.5499   -3.8246   24.5832 C   0  0  0  0  0  0  0  0  0  0  0  0
   10.6016   -3.3288   23.8304 C   0  0  0  0  0  0  0  0  0  0  0  0
   10.5629   -2.1288   23.2416 N   0  0  0  0  0  0  0  0  0  0  0  0
   11.5050   -3.9177   23.6716 H   0  0  0  0  0  0  0  0  0  0  0  0
    9.5845   -4.8308   24.9840 H   0  0  0  0  0  0  0  0  0  0  0  0
   10.3461    0.3064   22.5654 H   0  0  0  0  0  0  0  0  0  0  0  0
    8.7323    0.5472   23.3023 H   0  0  0  0  0  0  0  0  0  0  0  0
    8.6402    0.9064   20.7699 H   0  0  0  0  0  0  0  0  0  0  0  0
    9.2044   -0.6941   20.5852 H   0  0  0  0  0  0  0  0  0  0  0  0
    6.5353    0.2083   20.0207 C   0  0  0  0  0  0  0  0  0  0  0  0
    5.2890    0.8354   20.1455 C   0  0  0  0  0  0  0  0  0  0  0  0
    4.7131    1.4250   19.0163 C   0  0  0  0  0  0  0  0  0  0  0  0
    5.3973    1.3675   17.7988 C   0  0  0  0  0  0  0  0  0  0  0  0
    6.5812    0.7535   17.6555 N   0  0  0  0  0  0  0  0  0  0  0  0
    7.1192    0.1919   18.7430 C   0  0  0  0  0  0  0  0  0  0  0  0
    8.0675   -0.3232   18.5642 H   0  0  0  0  0  0  0  0  0  0  0  0
    4.9789    1.8240   16.9005 H   0  0  0  0  0  0  0  0  0  0  0  0
    3.7521    1.9246   19.0635 H   0  0  0  0  0  0  0  0  0  0  0  0
    4.7794    0.8640   21.1128 H   0  0  0  0  0  0  0  0  0  0  0  0
    6.7503   -0.3138   22.1199 H   0  0  0  0  0  0  0  0  0  0  0  0
    7.5894   -2.1187   19.8780 H   0  0  0  0  0  0  0  0  0  0  0  0
    7.9345   -2.5185   21.5517 H   0  0  0  0  0  0  0  0  0  0  0  0
    5.3056   -2.6876   21.8208 H   0  0  0  0  0  0  0  0  0  0  0  0
    5.2718   -2.4402   20.0604 H   0  0  0  0  0  0  0  0  0  0  0  0
    6.0591   -3.8561   20.7196 H   0  0  0  0  0  0  0  0  0  0  0  0
  1  2  1  0
  2  3  1  0
  3  4  1  0
  4  5  1  0
  5  6  1  0
  6  7  2  0
  7  8  1  0
  8  9  1  0
  9 10  1  0
  9 11  1  0
  9 12  1  0
  8 13  2  0
 13 14  1  0
 14 15  2  0
 14 16  1  0
 13 17  1  0
  5 18  1  0
  5 19  1  0
  4 20  1  0
  4 21  1  0
  3 22  1  0
 22 23  2  0
 23 24  1  0
 24 25  2  0
 25 26  1  0
 26 27  2  0
 27 28  1  0
 25 29  1  0
 24 30  1  0
 23 31  1  0
  3 32  1  0
  2 33  1  0
  2 34  1  0
  1 35  1  0
  1 36  1  0
  1 37  1  0
 15  6  1  0
 27 22  1  0
M  CHG  1   4   1
M  END
>  <cnnaffinity>  (1) 
-5.13535

>  <filename>  (1) 
CCC([NH2+]Cc1nccc(C(F)(F)F)n1)c1cccnc1

$$$$
