
     RDKit          3D

 40 43  0  0  0  0  0  0  0  0999 V2000
    6.5265   -4.7443   22.5968 C   0  0  0  0  0  0  0  0  0  0  0  0
    7.8851   -4.4378   23.2164 C   0  0  0  0  0  0  0  0  0  0  0  0
    8.8005   -3.6467   22.2744 C   0  0  0  0  0  0  0  0  0  0  0  0
   10.1018   -3.5515   22.8599 O   0  0  0  0  0  0  0  0  0  0  0  0
   10.5690   -4.3924   22.7315 H   0  0  0  0  0  0  0  0  0  0  0  0
    8.2500   -2.2730   21.9455 C   0  0  0  0  0  0  0  0  0  0  0  0
    7.7566   -1.9605   20.7571 N   0  0  0  0  0  0  0  0  0  0  0  0
    7.3397   -0.6834   20.9132 N   0  0  0  0  0  0  0  0  0  0  0  0
    6.6373   -0.0034   19.8868 C   0  0  0  0  0  0  0  0  0  0  0  0
    5.4164    0.6245   20.1523 C   0  0  0  0  0  0  0  0  0  0  0  0
    4.7994    1.2979   19.0976 C   0  0  0  0  0  0  0  0  0  0  0  0
    5.4030    1.2928   17.8368 C   0  0  0  0  0  0  0  0  0  0  0  0
    6.5712    0.6748   17.5843 N   0  0  0  0  0  0  0  0  0  0  0  0
    7.1734    0.0410   18.5914 C   0  0  0  0  0  0  0  0  0  0  0  0
    8.1241   -0.4419   18.3751 H   0  0  0  0  0  0  0  0  0  0  0  0
    4.9238    1.7838   16.9940 H   0  0  0  0  0  0  0  0  0  0  0  0
    3.8769    1.8410   19.2588 H   0  0  0  0  0  0  0  0  0  0  0  0
    5.0078    0.6416   21.1660 H   0  0  0  0  0  0  0  0  0  0  0  0
    7.6358   -0.2770   22.1831 C   0  0  0  0  0  0  0  0  0  0  0  0
    7.4443    1.0741   22.6720 C   0  0  0  0  0  0  0  0  0  0  0  0
    7.3123    2.1583   21.9053 N   0  0  0  0  0  0  0  0  0  0  0  0
    7.2016    3.1795   22.7684 N   0  0  0  0  0  0  0  0  0  0  0  0
    7.2568    2.8016   24.0713 C   0  0  0  0  0  0  0  0  0  0  0  0
    7.1919    3.5452   25.2696 C   0  0  0  0  0  0  0  0  0  0  0  0
    7.2856    2.8302   26.4533 C   0  0  0  0  0  0  0  0  0  0  0  0
    7.4378    1.4092   26.4629 C   0  0  0  0  0  0  0  0  0  0  0  0
    7.4980    0.6883   25.2816 C   0  0  0  0  0  0  0  0  0  0  0  0
    7.4111    1.4102   24.0616 C   0  0  0  0  0  0  0  0  0  0  0  0
    7.6190   -0.3919   25.2622 H   0  0  0  0  0  0  0  0  0  0  0  0
    7.5098    0.8881   27.4171 H   0  0  0  0  0  0  0  0  0  0  0  0
    7.2400    3.3631   27.4018 H   0  0  0  0  0  0  0  0  0  0  0  0
    7.0721    4.6264   25.2374 H   0  0  0  0  0  0  0  0  0  0  0  0
    7.0948    4.1208   22.4326 H   0  0  0  0  0  0  0  0  0  0  0  0
    8.1625   -1.2884   22.8575 N   0  0  0  0  0  0  0  0  0  0  0  0
    8.7782   -4.1419   21.2961 H   0  0  0  0  0  0  0  0  0  0  0  0
    8.3997   -5.3706   23.4851 H   0  0  0  0  0  0  0  0  0  0  0  0
    7.7817   -3.8564   24.1384 H   0  0  0  0  0  0  0  0  0  0  0  0
    6.6337   -5.3134   21.6647 H   0  0  0  0  0  0  0  0  0  0  0  0
    5.9701   -3.8292   22.3626 H   0  0  0  0  0  0  0  0  0  0  0  0
    5.9185   -5.3436   23.2809 H   0  0  0  0  0  0  0  0  0  0  0  0
  1  2  1  0
  2  3  1  0
  3  4  1  0
  4  5  1  0
  3  6  1  0
  6  7  2  0
  7  8  1  0
  8  9  1  0
  9 10  2  0
 10 11  1  0
 11 12  2  0
 12 13  1  0
 13 14  2  0
 14 15  1  0
 12 16  1  0
 11 17  1  0
 10 18  1  0
  8 19  1  0
 19 20  1  0
 20 21  2  0
 21 22  1  0
 22 23  1  0
 23 24  2  0
 24 25  1  0
 25 26  2  0
 26 27  1  0
 27 28  2  0
 27 29  1  0
 26 30  1  0
 25 31  1  0
 24 32  1  0
 22 33  1  0
 19 34  2  0
  3 35  1  0
  2 36  1  0
  2 37  1  0
  1 38  1  0
  1 39  1  0
  1 40  1  0
 34  6  1  0
 14  9  1  0
 28 20  1  0
 28 23  1  0
M  END
>  <cnnaffinity>  (1) 
-5.65447

>  <filename>  (1) 
CCC(O)c1nc(-c2n[nH]c3ccccc23)n(-c2cccnc2)n1

$$$$
