
     RDKit          3D

 40 42  0  0  0  0  0  0  0  0999 V2000
    7.4897   -5.0289   22.0275 C   0  0  0  0  0  0  0  0  0  0  0  0
    8.1779   -4.3954   23.2421 C   0  0  0  0  0  0  0  0  0  0  0  0
    7.5288   -3.0592   23.6429 C   0  0  0  0  0  0  0  0  0  0  0  0
    8.0572   -2.7393   24.9341 O   0  0  0  0  0  0  0  0  0  0  0  0
    7.6422   -1.9350   25.2822 H   0  0  0  0  0  0  0  0  0  0  0  0
    7.7281   -2.0256   22.5463 C   0  0  0  0  0  0  0  0  0  0  0  0
    8.9036   -1.5069   22.2401 N   0  0  0  0  0  0  0  0  0  0  0  0
    8.5985   -0.6297   21.2615 N   0  0  0  0  0  0  0  0  0  0  0  0
    9.6497    0.2024   20.7016 C   0  0  0  0  0  0  0  0  0  0  0  0
   10.4789    0.8944   21.7577 C   0  0  0  0  0  0  0  0  0  0  0  0
   11.7769    0.4322   22.0259 C   0  0  0  0  0  0  0  0  0  0  0  0
   12.5577    1.0041   23.0333 C   0  0  0  0  0  0  0  0  0  0  0  0
   12.0280    2.0428   23.7983 C   0  0  0  0  0  0  0  0  0  0  0  0
   10.7446    2.5311   23.5480 C   0  0  0  0  0  0  0  0  0  0  0  0
    9.9777    1.9544   22.5313 C   0  0  0  0  0  0  0  0  0  0  0  0
    8.3726    2.5953   22.2672 Cl  0  0  0  0  0  0  0  0  0  0  0  0
   10.3240    3.3411   24.1348 H   0  0  0  0  0  0  0  0  0  0  0  0
   12.6053    2.4555   24.6085 H   0  0  0  0  0  0  0  0  0  0  0  0
   13.5612    0.6366   23.2326 H   0  0  0  0  0  0  0  0  0  0  0  0
   12.1672   -0.4004   21.4404 H   0  0  0  0  0  0  0  0  0  0  0  0
    9.1878    0.9510   20.0568 H   0  0  0  0  0  0  0  0  0  0  0  0
   10.2883   -0.4693   20.1236 H   0  0  0  0  0  0  0  0  0  0  0  0
    7.2803   -0.7209   20.9628 C   0  0  0  0  0  0  0  0  0  0  0  0
    6.6170    0.0144   19.8889 C   0  0  0  0  0  0  0  0  0  0  0  0
    5.4055    0.6698   20.1333 C   0  0  0  0  0  0  0  0  0  0  0  0
    4.7848    1.3357   19.0779 C   0  0  0  0  0  0  0  0  0  0  0  0
    5.3887    1.3074   17.8158 C   0  0  0  0  0  0  0  0  0  0  0  0
    6.5449    0.6723   17.5676 N   0  0  0  0  0  0  0  0  0  0  0  0
    7.1422    0.0538   18.5900 C   0  0  0  0  0  0  0  0  0  0  0  0
    8.0890   -0.4353   18.3584 H   0  0  0  0  0  0  0  0  0  0  0  0
    4.9284    1.8118   16.9657 H   0  0  0  0  0  0  0  0  0  0  0  0
    3.8510    1.8717   19.2144 H   0  0  0  0  0  0  0  0  0  0  0  0
    4.9834    0.6474   21.1382 H   0  0  0  0  0  0  0  0  0  0  0  0
    6.6983   -1.5912   21.7715 N   0  0  0  0  0  0  0  0  0  0  0  0
    6.4326   -3.1684   23.6833 H   0  0  0  0  0  0  0  0  0  0  0  0
    8.1268   -5.0476   24.1216 H   0  0  0  0  0  0  0  0  0  0  0  0
    9.2474   -4.2149   23.0465 H   0  0  0  0  0  0  0  0  0  0  0  0
    7.5634   -4.3911   21.1368 H   0  0  0  0  0  0  0  0  0  0  0  0
    7.9313   -5.9995   21.7849 H   0  0  0  0  0  0  0  0  0  0  0  0
    6.4203   -5.1886   22.2216 H   0  0  0  0  0  0  0  0  0  0  0  0
  1  2  1  0
  2  3  1  0
  3  4  1  0
  4  5  1  0
  3  6  1  0
  6  7  2  0
  7  8  1  0
  8  9  1  0
  9 10  1  0
 10 11  2  0
 11 12  1  0
 12 13  2  0
 13 14  1  0
 14 15  2  0
 15 16  1  0
 14 17  1  0
 13 18  1  0
 12 19  1  0
 11 20  1  0
  9 21  1  0
  9 22  1  0
  8 23  1  0
 23 24  1  0
 24 25  2  0
 25 26  1  0
 26 27  2  0
 27 28  1  0
 28 29  2  0
 29 30  1  0
 27 31  1  0
 26 32  1  0
 25 33  1  0
 23 34  2  0
  3 35  1  0
  2 36  1  0
  2 37  1  0
  1 38  1  0
  1 39  1  0
  1 40  1  0
 34  6  1  0
 15 10  1  0
 29 24  1  0
M  END
>  <cnnaffinity>  (1) 
-5.8621

>  <filename>  (1) 
CCC(O)c1nc(-c2cccnc2)n(Cc2ccccc2Cl)n1

$$$$
