
     RDKit          3D

 33 35  0  0  0  0  0  0  0  0999 V2000
    9.0973    1.9645   21.5631 C   0  0  0  0  0  0  0  0  0  0  0  0
    9.5202    0.6117   20.9772 C   0  0  0  0  0  0  0  0  0  0  0  0
    8.6192   -0.4952   21.4167 C   0  0  0  0  0  0  0  0  0  0  0  0
    8.8453   -1.3142   22.4135 N   0  0  0  0  0  0  0  0  0  0  0  0
    7.6810   -1.9953   22.5499 C   0  0  0  0  0  0  0  0  0  0  0  0
    7.4453   -3.0546   23.5613 C   0  0  0  0  0  0  0  0  0  0  0  0
    6.3121   -3.8877   23.4323 C   0  0  0  0  0  0  0  0  0  0  0  0
    6.0474   -4.9038   24.3457 C   0  0  0  0  0  0  0  0  0  0  0  0
    6.9111   -5.1197   25.4228 C   0  0  0  0  0  0  0  0  0  0  0  0
    8.0347   -4.3119   25.5817 C   0  0  0  0  0  0  0  0  0  0  0  0
    8.2971   -3.2861   24.6629 C   0  0  0  0  0  0  0  0  0  0  0  0
    9.7083   -2.3360   24.9862 Cl  0  0  0  0  0  0  0  0  0  0  0  0
    8.7144   -4.4659   26.4160 H   0  0  0  0  0  0  0  0  0  0  0  0
    6.7086   -5.9111   26.1391 H   0  0  0  0  0  0  0  0  0  0  0  0
    5.1649   -5.5239   24.2209 H   0  0  0  0  0  0  0  0  0  0  0  0
    5.6347   -3.7137   22.6002 H   0  0  0  0  0  0  0  0  0  0  0  0
    6.7486   -1.6402   21.6748 N   0  0  0  0  0  0  0  0  0  0  0  0
    7.3551   -0.6818   20.9393 N   0  0  0  0  0  0  0  0  0  0  0  0
    6.6558    0.0020   19.9018 C   0  0  0  0  0  0  0  0  0  0  0  0
    5.4391    0.6405   20.1685 C   0  0  0  0  0  0  0  0  0  0  0  0
    4.8123    1.3094   19.1100 C   0  0  0  0  0  0  0  0  0  0  0  0
    5.4028    1.2952   17.8383 C   0  0  0  0  0  0  0  0  0  0  0  0
    6.5615    0.6724   17.5763 N   0  0  0  0  0  0  0  0  0  0  0  0
    7.1684    0.0525   18.5932 C   0  0  0  0  0  0  0  0  0  0  0  0
    8.1140   -0.4345   18.3701 H   0  0  0  0  0  0  0  0  0  0  0  0
    4.9177    1.7835   16.9942 H   0  0  0  0  0  0  0  0  0  0  0  0
    3.8778    1.8415   19.2619 H   0  0  0  0  0  0  0  0  0  0  0  0
    5.0159    0.6098   21.1756 H   0  0  0  0  0  0  0  0  0  0  0  0
    9.5361    0.6661   19.8877 H   0  0  0  0  0  0  0  0  0  0  0  0
   10.5298    0.3458   21.2988 H   0  0  0  0  0  0  0  0  0  0  0  0
    9.7998    2.7500   21.2757 H   0  0  0  0  0  0  0  0  0  0  0  0
    8.0962    2.2500   21.2234 H   0  0  0  0  0  0  0  0  0  0  0  0
    9.0776    1.9095   22.6555 H   0  0  0  0  0  0  0  0  0  0  0  0
  1  2  1  0
  2  3  1  0
  3  4  2  0
  4  5  1  0
  5  6  1  0
  6  7  2  0
  7  8  1  0
  8  9  2  0
  9 10  1  0
 10 11  2  0
 11 12  1  0
 10 13  1  0
  9 14  1  0
  8 15  1  0
  7 16  1  0
  5 17  2  0
 17 18  1  0
 18 19  1  0
 19 20  2  0
 20 21  1  0
 21 22  2  0
 22 23  1  0
 23 24  2  0
 24 25  1  0
 22 26  1  0
 21 27  1  0
 20 28  1  0
  2 29  1  0
  2 30  1  0
  1 31  1  0
  1 32  1  0
  1 33  1  0
 18  3  1  0
 24 19  1  0
 11  6  1  0
M  END
>  <cnnaffinity>  (1) 
-5.58614

>  <filename>  (1) 
CCc1nc(-c2ccccc2Cl)nn1-c1cccnc1

$$$$
