
     RDKit          3D

 46 50  0  0  0  0  0  0  0  0999 V2000
    6.0215    4.2028   22.5258 C   0  0  0  0  0  0  0  0  0  0  0  0
    6.1890    3.6546   23.9471 C   0  0  0  0  0  0  0  0  0  0  0  0
    7.6014    3.7611   24.4535 C   0  0  0  0  0  0  0  0  0  0  0  0
    8.6829    3.0237   24.0355 C   0  0  0  0  0  0  0  0  0  0  0  0
    8.7663    1.9648   23.0453 C   0  0  0  0  0  0  0  0  0  0  0  0
    7.7481    1.2142   22.6425 N   0  0  0  0  0  0  0  0  0  0  0  0
    8.2980    0.3504   21.7628 C   0  0  0  0  0  0  0  0  0  0  0  0
    7.4709   -0.6373   20.9852 C   0  0  0  0  0  0  0  0  0  0  0  0
    6.6788   -0.0179   19.8360 C   0  0  0  0  0  0  0  0  0  0  0  0
    5.4686    0.6398   20.0922 C   0  0  0  0  0  0  0  0  0  0  0  0
    4.8149    1.3011   19.0493 C   0  0  0  0  0  0  0  0  0  0  0  0
    5.4031    1.2904   17.7825 C   0  0  0  0  0  0  0  0  0  0  0  0
    6.5494    0.6488   17.5051 N   0  0  0  0  0  0  0  0  0  0  0  0
    7.1561    0.0096   18.5139 C   0  0  0  0  0  0  0  0  0  0  0  0
    8.0887   -0.5011   18.2689 H   0  0  0  0  0  0  0  0  0  0  0  0
    4.9363    1.8176   16.9513 H   0  0  0  0  0  0  0  0  0  0  0  0
    3.8799    1.8294   19.2071 H   0  0  0  0  0  0  0  0  0  0  0  0
    5.0637    0.6445   21.1055 H   0  0  0  0  0  0  0  0  0  0  0  0
    6.7710   -1.0798   21.7009 H   0  0  0  0  0  0  0  0  0  0  0  0
    8.1306   -1.4327   20.6239 H   0  0  0  0  0  0  0  0  0  0  0  0
    9.6027    0.4860   21.6070 N   0  0  0  0  0  0  0  0  0  0  0  0
    9.8964    1.5629   22.3845 N   0  0  0  0  0  0  0  0  0  0  0  0
   11.1869    2.1490   22.4044 C   0  0  0  0  0  0  0  0  0  0  0  0
   11.4070    3.5193   22.2660 C   0  0  0  0  0  0  0  0  0  0  0  0
   12.7116    4.0549   22.3491 C   0  0  0  0  0  0  0  0  0  0  0  0
   13.8099    3.2476   22.6278 C   0  0  0  0  0  0  0  0  0  0  0  0
   13.6040    1.8601   22.7437 C   0  0  0  0  0  0  0  0  0  0  0  0
   12.3157    1.3293   22.5731 C   0  0  0  0  0  0  0  0  0  0  0  0
   12.4858   -0.0312   22.5804 N   0  0  0  0  0  0  0  0  0  0  0  0
   13.8196   -0.2598   22.7502 C   0  0  0  0  0  0  0  0  0  0  0  0
   14.5224    0.8277   22.8680 N   0  0  0  0  0  0  0  0  0  0  0  0
   14.2281   -1.2631   22.7829 H   0  0  0  0  0  0  0  0  0  0  0  0
   11.7809   -0.6654   22.2462 H   0  0  0  0  0  0  0  0  0  0  0  0
   14.8133    3.6466   22.7162 H   0  0  0  0  0  0  0  0  0  0  0  0
   12.8557    5.1201   22.1980 H   0  0  0  0  0  0  0  0  0  0  0  0
   10.5671    4.1965   22.1620 H   0  0  0  0  0  0  0  0  0  0  0  0
    9.8152    3.4662   24.6556 O   0  0  0  0  0  0  0  0  0  0  0  0
    9.4689    4.5179   25.4247 C   0  0  0  0  0  0  0  0  0  0  0  0
    8.1346    4.7337   25.3613 C   0  0  0  0  0  0  0  0  0  0  0  0
    7.5929    5.4963   25.9028 H   0  0  0  0  0  0  0  0  0  0  0  0
   10.2941    5.0236   25.8981 H   0  0  0  0  0  0  0  0  0  0  0  0
    5.8958    2.5986   23.9546 H   0  0  0  0  0  0  0  0  0  0  0  0
    5.5171    4.1773   24.6382 H   0  0  0  0  0  0  0  0  0  0  0  0
    6.6454    3.6441   21.8182 H   0  0  0  0  0  0  0  0  0  0  0  0
    6.3061    5.2591   22.4703 H   0  0  0  0  0  0  0  0  0  0  0  0
    4.9806    4.1210   22.1913 H   0  0  0  0  0  0  0  0  0  0  0  0
  1  2  1  0
  2  3  1  0
  3  4  2  0
  4  5  1  0
  5  6  2  0
  6  7  1  0
  7  8  1  0
  8  9  1  0
  9 10  2  0
 10 11  1  0
 11 12  2  0
 12 13  1  0
 13 14  2  0
 14 15  1  0
 12 16  1  0
 11 17  1  0
 10 18  1  0
  8 19  1  0
  8 20  1  0
  7 21  2  0
 21 22  1  0
 22 23  1  0
 23 24  2  0
 24 25  1  0
 25 26  2  0
 26 27  1  0
 27 28  2  0
 28 29  1  0
 29 30  1  0
 30 31  2  0
 30 32  1  0
 29 33  1  0
 26 34  1  0
 25 35  1  0
 24 36  1  0
  4 37  1  0
 37 38  1  0
 38 39  2  0
 39 40  1  0
 38 41  1  0
  2 42  1  0
  2 43  1  0
  1 44  1  0
  1 45  1  0
  1 46  1  0
 39  3  1  0
 22  5  1  0
 28 23  1  0
 14  9  1  0
 31 27  1  0
M  END
>  <cnnaffinity>  (1) 
-6.6446

>  <filename>  (1) 
CCc1ccoc1-c1nc(Cc2cccnc2)nn1-c1cccc2nc[nH]c12

$$$$
