
     RDKit          3D

 48 51  0  0  0  0  0  0  0  0999 V2000
   12.1154    0.0904   25.0550 C   0  0  0  0  0  0  0  0  0  0  0  0
   12.4744   -0.0506   23.5711 C   0  0  0  0  0  0  0  0  0  0  0  0
   12.5030    1.3062   22.9068 C   0  0  0  0  0  0  0  0  0  0  0  0
   13.7078    2.0341   22.8407 C   0  0  0  0  0  0  0  0  0  0  0  0
   13.7202    3.4103   22.5946 C   0  0  0  0  0  0  0  0  0  0  0  0
   12.5206    4.0661   22.3194 C   0  0  0  0  0  0  0  0  0  0  0  0
   11.3398    3.3375   22.2499 C   0  0  0  0  0  0  0  0  0  0  0  0
   11.3220    1.9719   22.5226 C   0  0  0  0  0  0  0  0  0  0  0  0
   10.0353    1.3470   22.4757 N   0  0  0  0  0  0  0  0  0  0  0  0
    9.7027    0.3425   21.6156 N   0  0  0  0  0  0  0  0  0  0  0  0
    8.3986    0.2316   21.7850 C   0  0  0  0  0  0  0  0  0  0  0  0
    7.5464   -0.7155   20.9811 C   0  0  0  0  0  0  0  0  0  0  0  0
    6.7621   -0.0676   19.8352 C   0  0  0  0  0  0  0  0  0  0  0  0
    5.5852    0.6510   20.0978 C   0  0  0  0  0  0  0  0  0  0  0  0
    4.9364    1.3036   19.0450 C   0  0  0  0  0  0  0  0  0  0  0  0
    5.4909    1.2276   17.7649 C   0  0  0  0  0  0  0  0  0  0  0  0
    6.6115    0.5430   17.4866 N   0  0  0  0  0  0  0  0  0  0  0  0
    7.2151   -0.0852   18.5038 C   0  0  0  0  0  0  0  0  0  0  0  0
    8.1349   -0.6182   18.2578 H   0  0  0  0  0  0  0  0  0  0  0  0
    5.0268    1.7426   16.9242 H   0  0  0  0  0  0  0  0  0  0  0  0
    4.0398    1.8930   19.2069 H   0  0  0  0  0  0  0  0  0  0  0  0
    5.2074    0.7205   21.1199 H   0  0  0  0  0  0  0  0  0  0  0  0
    6.8434   -1.1612   21.6918 H   0  0  0  0  0  0  0  0  0  0  0  0
    8.1958   -1.5191   20.6153 H   0  0  0  0  0  0  0  0  0  0  0  0
    7.8761    1.0714   22.7166 N   0  0  0  0  0  0  0  0  0  0  0  0
    8.9076    1.7932   23.0985 C   0  0  0  0  0  0  0  0  0  0  0  0
    8.8079    2.9326   24.0692 C   0  0  0  0  0  0  0  0  0  0  0  0
    8.4771    4.2656   23.3994 C   0  0  0  0  0  0  0  0  0  0  0  0
    7.3583    4.3223   22.6779 N   0  0  0  0  0  0  0  0  0  0  0  0
    7.0703    5.4517   22.0019 C   0  0  0  0  0  0  0  0  0  0  0  0
    7.8823    6.5856   22.0432 C   0  0  0  0  0  0  0  0  0  0  0  0
    9.0389    6.5709   22.8331 C   0  0  0  0  0  0  0  0  0  0  0  0
    9.3096    5.4002   23.5320 C   0  0  0  0  0  0  0  0  0  0  0  0
   10.4054    5.3525   24.3188 F   0  0  0  0  0  0  0  0  0  0  0  0
    9.7256    7.4118   22.8943 H   0  0  0  0  0  0  0  0  0  0  0  0
    7.6057    7.4656   21.4731 H   0  0  0  0  0  0  0  0  0  0  0  0
    6.1607    5.4416   21.4025 H   0  0  0  0  0  0  0  0  0  0  0  0
    9.7270    3.0224   24.6529 H   0  0  0  0  0  0  0  0  0  0  0  0
    7.9772    2.6900   24.7340 H   0  0  0  0  0  0  0  0  0  0  0  0
   10.4034    3.8248   22.0367 H   0  0  0  0  0  0  0  0  0  0  0  0
   12.4700    5.1385   22.1526 H   0  0  0  0  0  0  0  0  0  0  0  0
   14.6503    3.9690   22.6154 H   0  0  0  0  0  0  0  0  0  0  0  0
   14.6516    1.5137   23.0008 H   0  0  0  0  0  0  0  0  0  0  0  0
   11.7567   -0.6958   23.0560 H   0  0  0  0  0  0  0  0  0  0  0  0
   13.4616   -0.5197   23.4828 H   0  0  0  0  0  0  0  0  0  0  0  0
   12.0533   -0.8639   25.5764 H   0  0  0  0  0  0  0  0  0  0  0  0
   11.1552    0.5949   25.1927 H   0  0  0  0  0  0  0  0  0  0  0  0
   12.8813    0.6809   25.5577 H   0  0  0  0  0  0  0  0  0  0  0  0
  1  2  1  0
  2  3  1  0
  3  4  2  0
  4  5  1  0
  5  6  2  0
  6  7  1  0
  7  8  2  0
  8  9  1  0
  9 10  1  0
 10 11  2  0
 11 12  1  0
 12 13  1  0
 13 14  2  0
 14 15  1  0
 15 16  2  0
 16 17  1  0
 17 18  2  0
 18 19  1  0
 16 20  1  0
 15 21  1  0
 14 22  1  0
 12 23  1  0
 12 24  1  0
 11 25  1  0
 25 26  2  0
 26 27  1  0
 27 28  1  0
 28 29  2  0
 29 30  1  0
 30 31  2  0
 31 32  1  0
 32 33  2  0
 33 34  1  0
 32 35  1  0
 31 36  1  0
 30 37  1  0
 27 38  1  0
 27 39  1  0
  7 40  1  0
  6 41  1  0
  5 42  1  0
  4 43  1  0
  2 44  1  0
  2 45  1  0
  1 46  1  0
  1 47  1  0
  1 48  1  0
  8  3  1  0
 26  9  1  0
 33 28  1  0
 18 13  1  0
M  END
>  <cnnaffinity>  (1) 
-6.45902

>  <filename>  (1) 
CCc1ccccc1-n1nc(Cc2cccnc2)nc1Cc1ncccc1F

$$$$
