
     RDKit          3D

 50 53  0  0  0  0  0  0  0  0999 V2000
   14.2581    5.2499   21.2967 C   0  0  0  0  0  0  0  0  0  0  0  0
   14.4209    4.2763   22.4854 C   0  0  0  0  0  0  0  0  0  0  0  0
   13.1681    3.4982   22.7587 C   0  0  0  0  0  0  0  0  0  0  0  0
   11.9381    4.1808   22.9292 C   0  0  0  0  0  0  0  0  0  0  0  0
   10.7713    3.5522   22.9913 N   0  0  0  0  0  0  0  0  0  0  0  0
   10.8077    2.1955   22.8423 C   0  0  0  0  0  0  0  0  0  0  0  0
    9.5391    1.4619   22.6710 C   0  0  0  0  0  0  0  0  0  0  0  0
    9.3327    0.3794   21.9305 N   0  0  0  0  0  0  0  0  0  0  0  0
    7.9793    0.2749   21.9036 C   0  0  0  0  0  0  0  0  0  0  0  0
    7.2398   -0.6977   21.0029 C   0  0  0  0  0  0  0  0  0  0  0  0
    6.5189   -0.0457   19.8120 C   0  0  0  0  0  0  0  0  0  0  0  0
    5.3175    0.6512   20.0089 C   0  0  0  0  0  0  0  0  0  0  0  0
    4.7637    1.3705   18.9466 C   0  0  0  0  0  0  0  0  0  0  0  0
    5.4021    1.3327   17.7049 C   0  0  0  0  0  0  0  0  0  0  0  0
    6.5161    0.6215   17.4713 N   0  0  0  0  0  0  0  0  0  0  0  0
    7.0460   -0.0453   18.5056 C   0  0  0  0  0  0  0  0  0  0  0  0
    7.9583   -0.6034   18.2892 H   0  0  0  0  0  0  0  0  0  0  0  0
    5.0063    1.8914   16.8588 H   0  0  0  0  0  0  0  0  0  0  0  0
    3.8739    1.9807   19.0722 H   0  0  0  0  0  0  0  0  0  0  0  0
    4.8378    0.6340   20.9899 H   0  0  0  0  0  0  0  0  0  0  0  0
    7.9632   -1.4446   20.6581 H   0  0  0  0  0  0  0  0  0  0  0  0
    6.5011   -1.2325   21.6130 H   0  0  0  0  0  0  0  0  0  0  0  0
    7.3513    1.1719   22.6476 N   0  0  0  0  0  0  0  0  0  0  0  0
    8.3538    1.9414   23.1345 N   0  0  0  0  0  0  0  0  0  0  0  0
    8.1608    3.0767   24.0096 C   0  0  0  0  0  0  0  0  0  0  0  0
    8.7380    3.0350   25.2859 C   0  0  0  0  0  0  0  0  0  0  0  0
    8.7784    4.1930   26.0691 C   0  0  0  0  0  0  0  0  0  0  0  0
    8.2089    5.3808   25.6076 C   0  0  0  0  0  0  0  0  0  0  0  0
    7.6268    5.4110   24.3402 C   0  0  0  0  0  0  0  0  0  0  0  0
    7.5923    4.2737   23.5167 C   0  0  0  0  0  0  0  0  0  0  0  0
    6.9681    4.3698   22.1393 C   0  0  0  0  0  0  0  0  0  0  0  0
    5.5063    3.9117   22.1197 C   0  0  0  0  0  0  0  0  0  0  0  0
    4.8916    4.5187   22.7949 H   0  0  0  0  0  0  0  0  0  0  0  0
    5.0781    3.9904   21.1156 H   0  0  0  0  0  0  0  0  0  0  0  0
    5.4421    2.8648   22.4335 H   0  0  0  0  0  0  0  0  0  0  0  0
    7.0463    5.4059   21.7850 H   0  0  0  0  0  0  0  0  0  0  0  0
    7.5638    3.7584   21.4551 H   0  0  0  0  0  0  0  0  0  0  0  0
    7.2088    6.3406   23.9569 H   0  0  0  0  0  0  0  0  0  0  0  0
    8.2230    6.2734   26.2290 H   0  0  0  0  0  0  0  0  0  0  0  0
    9.2863    4.1868   27.0247 H   0  0  0  0  0  0  0  0  0  0  0  0
    9.2073    2.1183   25.6389 H   0  0  0  0  0  0  0  0  0  0  0  0
   12.0341    1.5032   22.7833 C   0  0  0  0  0  0  0  0  0  0  0  0
   13.2121    2.1466   22.7714 N   0  0  0  0  0  0  0  0  0  0  0  0
   12.0538    0.4206   22.7335 H   0  0  0  0  0  0  0  0  0  0  0  0
   11.9430    5.2626   23.0368 H   0  0  0  0  0  0  0  0  0  0  0  0
   15.1993    3.5382   22.2663 H   0  0  0  0  0  0  0  0  0  0  0  0
   14.6969    4.8350   23.3912 H   0  0  0  0  0  0  0  0  0  0  0  0
   13.5139    6.0315   21.4925 H   0  0  0  0  0  0  0  0  0  0  0  0
   13.9271    4.7098   20.4041 H   0  0  0  0  0  0  0  0  0  0  0  0
   15.1945    5.7555   21.0437 H   0  0  0  0  0  0  0  0  0  0  0  0
  1  2  1  0
  2  3  1  0
  3  4  2  0
  4  5  1  0
  5  6  2  0
  6  7  1  0
  7  8  2  0
  8  9  1  0
  9 10  1  0
 10 11  1  0
 11 12  2  0
 12 13  1  0
 13 14  2  0
 14 15  1  0
 15 16  2  0
 16 17  1  0
 14 18  1  0
 13 19  1  0
 12 20  1  0
 10 21  1  0
 10 22  1  0
  9 23  2  0
 23 24  1  0
 24 25  1  0
 25 26  2  0
 26 27  1  0
 27 28  2  0
 28 29  1  0
 29 30  2  0
 30 31  1  0
 31 32  1  0
 32 33  1  0
 32 34  1  0
 32 35  1  0
 31 36  1  0
 31 37  1  0
 29 38  1  0
 28 39  1  0
 27 40  1  0
 26 41  1  0
  6 42  1  0
 42 43  2  0
 42 44  1  0
  4 45  1  0
  2 46  1  0
  2 47  1  0
  1 48  1  0
  1 49  1  0
  1 50  1  0
 43  3  1  0
 24  7  1  0
 30 25  1  0
 16 11  1  0
M  END
>  <cnnaffinity>  (1) 
-6.24479

>  <filename>  (1) 
CCc1cnc(-c2nc(Cc3cccnc3)nn2-c2ccccc2CC)cn1

$$$$
