
     RDKit          3D

 39 42  0  0  0  0  0  0  0  0999 V2000
    7.8244   -4.6032   22.7262 C   0  0  0  0  0  0  0  0  0  0  0  0
    8.7823   -3.5666   22.1257 C   0  0  0  0  0  0  0  0  0  0  0  0
    8.2165   -2.2070   21.9427 C   0  0  0  0  0  0  0  0  0  0  0  0
    7.8359   -1.8116   20.7481 N   0  0  0  0  0  0  0  0  0  0  0  0
    7.3020   -0.5954   20.9816 N   0  0  0  0  0  0  0  0  0  0  0  0
    6.6087    0.0511   19.9323 C   0  0  0  0  0  0  0  0  0  0  0  0
    5.3884    0.6960   20.1514 C   0  0  0  0  0  0  0  0  0  0  0  0
    4.7910    1.3305   19.0608 C   0  0  0  0  0  0  0  0  0  0  0  0
    5.4218    1.2925   17.8130 C   0  0  0  0  0  0  0  0  0  0  0  0
    6.5771    0.6390   17.5936 N   0  0  0  0  0  0  0  0  0  0  0  0
    7.1437    0.0185   18.6303 C   0  0  0  0  0  0  0  0  0  0  0  0
    8.0672   -0.5229   18.4413 H   0  0  0  0  0  0  0  0  0  0  0  0
    4.9833    1.7971   16.9541 H   0  0  0  0  0  0  0  0  0  0  0  0
    3.8483    1.8528   19.1705 H   0  0  0  0  0  0  0  0  0  0  0  0
    4.9393    0.7066   21.1450 H   0  0  0  0  0  0  0  0  0  0  0  0
    7.4324   -0.3012   22.3244 C   0  0  0  0  0  0  0  0  0  0  0  0
    7.1656    1.0179   22.8885 C   0  0  0  0  0  0  0  0  0  0  0  0
    7.4755    2.1900   22.2054 C   0  0  0  0  0  0  0  0  0  0  0  0
    7.1901    3.4541   22.7491 C   0  0  0  0  0  0  0  0  0  0  0  0
    6.5958    3.5742   23.9881 C   0  0  0  0  0  0  0  0  0  0  0  0
    6.2822    2.4035   24.7275 C   0  0  0  0  0  0  0  0  0  0  0  0
    5.6608    2.4265   26.0175 C   0  0  0  0  0  0  0  0  0  0  0  0
    5.3714    1.2474   26.6564 C   0  0  0  0  0  0  0  0  0  0  0  0
    5.7014    0.0416   25.9929 C   0  0  0  0  0  0  0  0  0  0  0  0
    5.4720   -1.1690   26.5103 O   0  0  0  0  0  0  0  0  0  0  0  0
    5.8496   -1.6602   25.7493 H   0  0  0  0  0  0  0  0  0  0  0  0
    6.2609   -0.0454   24.8227 N   0  0  0  0  0  0  0  0  0  0  0  0
    6.5787    1.1056   24.1750 C   0  0  0  0  0  0  0  0  0  0  0  0
    4.9128    1.1832   27.6302 H   0  0  0  0  0  0  0  0  0  0  0  0
    5.4208    3.3802   26.4815 H   0  0  0  0  0  0  0  0  0  0  0  0
    6.3684    4.5570   24.3992 H   0  0  0  0  0  0  0  0  0  0  0  0
    7.4398    4.3359   22.1661 H   0  0  0  0  0  0  0  0  0  0  0  0
    7.9265    2.1297   21.2197 H   0  0  0  0  0  0  0  0  0  0  0  0
    7.9947   -1.3274   22.9400 N   0  0  0  0  0  0  0  0  0  0  0  0
    9.0313   -3.8556   21.1058 H   0  0  0  0  0  0  0  0  0  0  0  0
    9.6831   -3.4839   22.7393 H   0  0  0  0  0  0  0  0  0  0  0  0
    8.3481   -5.5532   22.8907 H   0  0  0  0  0  0  0  0  0  0  0  0
    6.9949   -4.7952   22.0397 H   0  0  0  0  0  0  0  0  0  0  0  0
    7.4120   -4.2645   23.6853 H   0  0  0  0  0  0  0  0  0  0  0  0
  1  2  1  0
  2  3  1  0
  3  4  2  0
  4  5  1  0
  5  6  1  0
  6  7  2  0
  7  8  1  0
  8  9  2  0
  9 10  1  0
 10 11  2  0
 11 12  1  0
  9 13  1  0
  8 14  1  0
  7 15  1  0
  5 16  1  0
 16 17  1  0
 17 18  2  0
 18 19  1  0
 19 20  2  0
 20 21  1  0
 21 22  2  0
 22 23  1  0
 23 24  2  0
 24 25  1  0
 25 26  1  0
 24 27  1  0
 27 28  2  0
 23 29  1  0
 22 30  1  0
 20 31  1  0
 19 32  1  0
 18 33  1  0
 16 34  2  0
  2 35  1  0
  2 36  1  0
  1 37  1  0
  1 38  1  0
  1 39  1  0
 34  3  1  0
 11  6  1  0
 28 17  1  0
 28 21  1  0
M  END
>  <cnnaffinity>  (1) 
-5.2982

>  <filename>  (1) 
CCc1nc(-c2cccc3ccc(O)nc23)n(-c2cccnc2)n1

$$$$
