
     RDKit          3D

 53 56  0  0  0  0  0  0  0  0999 V2000
   12.5309   -1.3404   22.1796 C   0  0  0  0  0  0  0  0  0  0  0  0
   12.3075   -0.3050   23.2969 C   0  0  0  0  0  0  0  0  0  0  0  0
   12.4552    1.1300   22.8659 C   0  0  0  0  0  0  0  0  0  0  0  0
   13.6932    1.7710   23.0459 C   0  0  0  0  0  0  0  0  0  0  0  0
   13.8992    3.0990   22.6643 C   0  0  0  0  0  0  0  0  0  0  0  0
   12.8298    3.8425   22.1704 C   0  0  0  0  0  0  0  0  0  0  0  0
   11.5760    3.2455   22.0836 C   0  0  0  0  0  0  0  0  0  0  0  0
   11.3870    1.8879   22.3652 C   0  0  0  0  0  0  0  0  0  0  0  0
   10.0664    1.3412   22.2445 N   0  0  0  0  0  0  0  0  0  0  0  0
    9.7173    0.2679   21.4784 N   0  0  0  0  0  0  0  0  0  0  0  0
    8.4022    0.2179   21.6303 C   0  0  0  0  0  0  0  0  0  0  0  0
    7.4836   -0.7306   20.9085 C   0  0  0  0  0  0  0  0  0  0  0  0
    6.6971   -0.0593   19.7870 C   0  0  0  0  0  0  0  0  0  0  0  0
    5.5035    0.6132   20.0794 C   0  0  0  0  0  0  0  0  0  0  0  0
    4.8441    1.2972   19.0567 C   0  0  0  0  0  0  0  0  0  0  0  0
    5.4115    1.2903   17.7795 C   0  0  0  0  0  0  0  0  0  0  0  0
    6.5473    0.6444   17.4715 N   0  0  0  0  0  0  0  0  0  0  0  0
    7.1639   -0.0128   18.4615 C   0  0  0  0  0  0  0  0  0  0  0  0
    8.0859   -0.5346   18.1955 H   0  0  0  0  0  0  0  0  0  0  0  0
    4.9320    1.8213   16.9615 H   0  0  0  0  0  0  0  0  0  0  0  0
    3.9197    1.8342   19.2384 H   0  0  0  0  0  0  0  0  0  0  0  0
    5.1270    0.6061   21.1051 H   0  0  0  0  0  0  0  0  0  0  0  0
    8.0755   -1.5688   20.5316 H   0  0  0  0  0  0  0  0  0  0  0  0
    6.7770   -1.1234   21.6527 H   0  0  0  0  0  0  0  0  0  0  0  0
    7.8948    1.1481   22.4734 N   0  0  0  0  0  0  0  0  0  0  0  0
    8.9501    1.8509   22.8286 C   0  0  0  0  0  0  0  0  0  0  0  0
    9.0575    2.8851   23.9265 C   0  0  2  0  0  0  0  0  0  0  0  0
    9.4631    2.2483   25.2749 C   0  0  0  0  0  0  0  0  0  0  0  0
    8.7121    3.0732   26.3218 C   0  0  0  0  0  0  0  0  0  0  0  0
    7.4172    3.4743   25.6134 C   0  0  0  0  0  0  0  0  0  0  0  0
    7.8177    3.6085   24.2174 N   0  0  0  0  0  0  0  0  0  0  0  0
    7.1779    4.3388   23.2444 C   0  0  0  0  0  0  0  0  0  0  0  0
    7.7199    4.5997   22.1800 O   0  0  0  0  0  0  0  0  0  0  0  0
    5.7738    4.8039   23.5764 C   0  0  0  0  0  0  0  0  0  0  0  0
    5.8236    5.6488   24.2706 H   0  0  0  0  0  0  0  0  0  0  0  0
    5.2707    5.1327   22.6663 H   0  0  0  0  0  0  0  0  0  0  0  0
    5.1875    4.0109   24.0498 H   0  0  0  0  0  0  0  0  0  0  0  0
    7.0024    4.4152   25.9918 H   0  0  0  0  0  0  0  0  0  0  0  0
    6.6497    2.6961   25.7306 H   0  0  0  0  0  0  0  0  0  0  0  0
    9.2744    3.9728   26.5958 H   0  0  0  0  0  0  0  0  0  0  0  0
    8.5087    2.5062   27.2357 H   0  0  0  0  0  0  0  0  0  0  0  0
   10.5494    2.2388   25.3981 H   0  0  0  0  0  0  0  0  0  0  0  0
    9.1355    1.2036   25.3088 H   0  0  0  0  0  0  0  0  0  0  0  0
    9.8121    3.6239   23.6513 H   0  0  0  0  0  0  0  0  0  0  0  0
   10.7052    3.8429   21.8844 H   0  0  0  0  0  0  0  0  0  0  0  0
   12.9655    4.8807   21.8781 H   0  0  0  0  0  0  0  0  0  0  0  0
   14.8868    3.5449   22.6898 H   0  0  0  0  0  0  0  0  0  0  0  0
   14.4892    1.1860   23.5020 H   0  0  0  0  0  0  0  0  0  0  0  0
   11.3124   -0.4636   23.7373 H   0  0  0  0  0  0  0  0  0  0  0  0
   13.0385   -0.4185   24.1057 H   0  0  0  0  0  0  0  0  0  0  0  0
   12.3137   -2.3512   22.5450 H   0  0  0  0  0  0  0  0  0  0  0  0
   13.5651   -1.3382   21.8091 H   0  0  0  0  0  0  0  0  0  0  0  0
   11.8459   -1.1507   21.3444 H   0  0  0  0  0  0  0  0  0  0  0  0
  1  2  1  0
  2  3  1  0
  3  4  2  0
  4  5  1  0
  5  6  2  0
  6  7  1  0
  7  8  2  0
  8  9  1  0
  9 10  1  0
 10 11  2  0
 11 12  1  0
 12 13  1  0
 13 14  2  0
 14 15  1  0
 15 16  2  0
 16 17  1  0
 17 18  2  0
 18 19  1  0
 16 20  1  0
 15 21  1  0
 14 22  1  0
 12 23  1  0
 12 24  1  0
 11 25  1  0
 25 26  2  0
 26 27  1  0
 27 28  1  0
 28 29  1  0
 29 30  1  0
 30 31  1  0
 31 32  1  0
 32 33  2  0
 32 34  1  0
 34 35  1  0
 34 36  1  0
 34 37  1  0
 30 38  1  0
 30 39  1  0
 29 40  1  0
 29 41  1  0
 28 42  1  0
 28 43  1  0
 27 44  1  6
  7 45  1  0
  6 46  1  0
  5 47  1  0
  4 48  1  0
  2 49  1  0
  2 50  1  0
  1 51  1  0
  1 52  1  0
  1 53  1  0
  8  3  1  0
 26  9  1  0
 31 27  1  0
 18 13  1  0
M  END
>  <cnnaffinity>  (1) 
-6.13128

>  <filename>  (1) 
CCc1ccccc1-n1nc(Cc2cccnc2)nc1[C@@H]1CCCN1C(C)=O

$$$$
