
     RDKit          3D

 53 56  0  0  0  0  0  0  0  0999 V2000
   12.5774   -1.1841   21.4914 C   0  0  0  0  0  0  0  0  0  0  0  0
   12.4245   -0.3110   22.7480 C   0  0  0  0  0  0  0  0  0  0  0  0
   12.4863    1.1933   22.5443 C   0  0  0  0  0  0  0  0  0  0  0  0
   13.6911    1.8809   22.7966 C   0  0  0  0  0  0  0  0  0  0  0  0
   13.8058    3.2612   22.6190 C   0  0  0  0  0  0  0  0  0  0  0  0
   12.6915    4.0100   22.2543 C   0  0  0  0  0  0  0  0  0  0  0  0
   11.4685    3.3622   22.0969 C   0  0  0  0  0  0  0  0  0  0  0  0
   11.3581    1.9725   22.2164 C   0  0  0  0  0  0  0  0  0  0  0  0
   10.0329    1.4214   22.1719 N   0  0  0  0  0  0  0  0  0  0  0  0
    9.6334    0.3987   21.3680 N   0  0  0  0  0  0  0  0  0  0  0  0
    8.3457    0.2807   21.6519 C   0  0  0  0  0  0  0  0  0  0  0  0
    7.4472   -0.6884   20.9341 C   0  0  0  0  0  0  0  0  0  0  0  0
    6.6637   -0.0409   19.7980 C   0  0  0  0  0  0  0  0  0  0  0  0
    5.4623    0.6282   20.0692 C   0  0  0  0  0  0  0  0  0  0  0  0
    4.8133    1.3109   19.0387 C   0  0  0  0  0  0  0  0  0  0  0  0
    5.3957    1.3033   17.7682 C   0  0  0  0  0  0  0  0  0  0  0  0
    6.5344    0.6536   17.4785 N   0  0  0  0  0  0  0  0  0  0  0  0
    7.1408   -0.0001   18.4765 C   0  0  0  0  0  0  0  0  0  0  0  0
    8.0643   -0.5212   18.2142 H   0  0  0  0  0  0  0  0  0  0  0  0
    4.9296    1.8351   16.9416 H   0  0  0  0  0  0  0  0  0  0  0  0
    3.8866    1.8516   19.2056 H   0  0  0  0  0  0  0  0  0  0  0  0
    5.0646    0.6174   21.0860 H   0  0  0  0  0  0  0  0  0  0  0  0
    8.0686   -1.5111   20.5660 H   0  0  0  0  0  0  0  0  0  0  0  0
    6.7485   -1.1040   21.6709 H   0  0  0  0  0  0  0  0  0  0  0  0
    7.8908    1.1452   22.5967 N   0  0  0  0  0  0  0  0  0  0  0  0
    8.9674    1.8499   22.9095 C   0  0  0  0  0  0  0  0  0  0  0  0
    9.0986    2.8698   24.0354 C   0  0  0  0  0  0  0  0  0  0  0  0
    7.9010    3.8303   24.1771 C   0  0  0  0  0  0  0  0  0  0  0  0
    7.1361    3.3259   25.4047 C   0  0  0  0  0  0  0  0  0  0  0  0
    8.1012    2.4179   26.1464 C   0  0  0  0  0  0  0  0  0  0  0  0
    7.9055    1.9031   27.2295 O   0  0  0  0  0  0  0  0  0  0  0  0
    9.2175    2.2686   25.3667 N   0  0  0  0  0  0  0  0  0  0  0  0
   10.2178    1.2380   25.6177 C   0  0  0  0  0  0  0  0  0  0  0  0
    9.6482   -0.1736   25.6426 C   0  0  0  0  0  0  0  0  0  0  0  0
    8.8946   -0.2729   26.4285 H   0  0  0  0  0  0  0  0  0  0  0  0
    9.1782   -0.4224   24.6860 H   0  0  0  0  0  0  0  0  0  0  0  0
   10.4576   -0.8820   25.8251 H   0  0  0  0  0  0  0  0  0  0  0  0
   10.9845    1.3286   24.8359 H   0  0  0  0  0  0  0  0  0  0  0  0
   10.7422    1.4586   26.5448 H   0  0  0  0  0  0  0  0  0  0  0  0
    6.2574    2.7295   25.1450 H   0  0  0  0  0  0  0  0  0  0  0  0
    6.8023    4.1126   26.0831 H   0  0  0  0  0  0  0  0  0  0  0  0
    7.2880    3.8458   23.2694 H   0  0  0  0  0  0  0  0  0  0  0  0
    8.2856    4.8426   24.3428 H   0  0  0  0  0  0  0  0  0  0  0  0
   10.0193    3.4344   23.8900 H   0  0  0  0  0  0  0  0  0  0  0  0
   10.5610    3.9263   21.9694 H   0  0  0  0  0  0  0  0  0  0  0  0
   12.7510    5.0856   22.1369 H   0  0  0  0  0  0  0  0  0  0  0  0
   14.7672    3.7522   22.7311 H   0  0  0  0  0  0  0  0  0  0  0  0
   14.5413    1.3076   23.1597 H   0  0  0  0  0  0  0  0  0  0  0  0
   13.2186   -0.5677   23.4561 H   0  0  0  0  0  0  0  0  0  0  0  0
   11.4748   -0.5629   23.2415 H   0  0  0  0  0  0  0  0  0  0  0  0
   13.5919   -1.1270   21.0740 H   0  0  0  0  0  0  0  0  0  0  0  0
   12.3840   -2.2327   21.7509 H   0  0  0  0  0  0  0  0  0  0  0  0
   11.8564   -0.8935   20.7184 H   0  0  0  0  0  0  0  0  0  0  0  0
  1  2  1  0
  2  3  1  0
  3  4  2  0
  4  5  1  0
  5  6  2  0
  6  7  1  0
  7  8  2  0
  8  9  1  0
  9 10  1  0
 10 11  2  0
 11 12  1  0
 12 13  1  0
 13 14  2  0
 14 15  1  0
 15 16  2  0
 16 17  1  0
 17 18  2  0
 18 19  1  0
 16 20  1  0
 15 21  1  0
 14 22  1  0
 12 23  1  0
 12 24  1  0
 11 25  1  0
 25 26  2  0
 26 27  1  0
 27 28  1  0
 28 29  1  0
 29 30  1  0
 30 31  2  0
 30 32  1  0
 32 33  1  0
 33 34  1  0
 34 35  1  0
 34 36  1  0
 34 37  1  0
 33 38  1  0
 33 39  1  0
 29 40  1  0
 29 41  1  0
 28 42  1  0
 28 43  1  0
 27 44  1  0
  7 45  1  0
  6 46  1  0
  5 47  1  0
  4 48  1  0
  2 49  1  0
  2 50  1  0
  1 51  1  0
  1 52  1  0
  1 53  1  0
  8  3  1  0
 26  9  1  0
 32 27  1  0
 18 13  1  0
M  END
>  <cnnaffinity>  (1) 
-6.20093

>  <filename>  (1) 
CCc1ccccc1-n1nc(Cc2cccnc2)nc1C1CCC(=O)N1CC

$$$$
