
     RDKit          3D

 47 50  0  0  0  0  0  0  0  0999 V2000
   12.1830    0.1322   25.2045 C   0  0  0  0  0  0  0  0  0  0  0  0
   12.3360    0.0312   23.6800 C   0  0  0  0  0  0  0  0  0  0  0  0
   12.4737    1.3884   23.0379 C   0  0  0  0  0  0  0  0  0  0  0  0
   13.7495    1.9652   22.9241 C   0  0  0  0  0  0  0  0  0  0  0  0
   13.9187    3.2663   22.4492 C   0  0  0  0  0  0  0  0  0  0  0  0
   12.7916    3.9973   22.0581 C   0  0  0  0  0  0  0  0  0  0  0  0
   11.5118    3.4574   22.1976 C   0  0  0  0  0  0  0  0  0  0  0  0
   11.3504    2.1470   22.6536 C   0  0  0  0  0  0  0  0  0  0  0  0
   10.0442    1.5357   22.6715 N   0  0  0  0  0  0  0  0  0  0  0  0
    9.7843    0.5753   21.7531 N   0  0  0  0  0  0  0  0  0  0  0  0
    8.4981    0.3299   21.8976 C   0  0  0  0  0  0  0  0  0  0  0  0
    7.7596   -0.6140   20.9731 C   0  0  0  0  0  0  0  0  0  0  0  0
    6.9738    0.0397   19.8281 C   0  0  0  0  0  0  0  0  0  0  0  0
    5.8187    0.7894   20.1016 C   0  0  0  0  0  0  0  0  0  0  0  0
    5.1067    1.3527   19.0383 C   0  0  0  0  0  0  0  0  0  0  0  0
    5.5769    1.1640   17.7371 C   0  0  0  0  0  0  0  0  0  0  0  0
    6.6804    0.4579   17.4498 N   0  0  0  0  0  0  0  0  0  0  0  0
    7.3435   -0.0909   18.4757 C   0  0  0  0  0  0  0  0  0  0  0  0
    8.2298   -0.6674   18.2082 H   0  0  0  0  0  0  0  0  0  0  0  0
    5.0345    1.5743   16.8857 H   0  0  0  0  0  0  0  0  0  0  0  0
    4.1953    1.9195   19.1964 H   0  0  0  0  0  0  0  0  0  0  0  0
    5.4844    0.9201   21.1329 H   0  0  0  0  0  0  0  0  0  0  0  0
    7.0579   -1.1780   21.5985 H   0  0  0  0  0  0  0  0  0  0  0  0
    8.4881   -1.3292   20.5715 H   0  0  0  0  0  0  0  0  0  0  0  0
    7.9102    1.0326   22.8910 N   0  0  0  0  0  0  0  0  0  0  0  0
    8.8918    1.8041   23.3686 C   0  0  0  0  0  0  0  0  0  0  0  0
    8.8528    2.9021   24.4098 C   0  0  0  0  0  0  0  0  0  0  0  0
    9.9984    3.5637   24.6068 N   0  0  0  0  0  0  0  0  0  0  0  0
    9.9588    4.7571   25.1962 C   0  0  0  0  0  0  0  0  0  0  0  0
   11.2111    5.5847   25.0920 C   0  0  0  0  0  0  0  0  0  0  0  0
   10.9775    6.6213   24.8252 H   0  0  0  0  0  0  0  0  0  0  0  0
   11.8542    5.1666   24.3159 H   0  0  0  0  0  0  0  0  0  0  0  0
   11.7658    5.5904   26.0367 H   0  0  0  0  0  0  0  0  0  0  0  0
    8.8179    5.1719   25.8791 C   0  0  0  0  0  0  0  0  0  0  0  0
    7.7214    4.3224   25.7916 C   0  0  0  0  0  0  0  0  0  0  0  0
    7.7174    3.2090   25.0473 N   0  0  0  0  0  0  0  0  0  0  0  0
    6.7926    4.5538   26.3095 H   0  0  0  0  0  0  0  0  0  0  0  0
    8.7914    6.1141   26.4101 H   0  0  0  0  0  0  0  0  0  0  0  0
   10.6395    4.0894   22.0851 H   0  0  0  0  0  0  0  0  0  0  0  0
   12.8989    5.0048   21.6776 H   0  0  0  0  0  0  0  0  0  0  0  0
   14.9188    3.6661   22.2974 H   0  0  0  0  0  0  0  0  0  0  0  0
   14.6085    1.3479   23.1808 H   0  0  0  0  0  0  0  0  0  0  0  0
   13.2289   -0.5568   23.4229 H   0  0  0  0  0  0  0  0  0  0  0  0
   11.4637   -0.4799   23.2548 H   0  0  0  0  0  0  0  0  0  0  0  0
   13.1069    0.5126   25.6561 H   0  0  0  0  0  0  0  0  0  0  0  0
   11.3593    0.7989   25.4959 H   0  0  0  0  0  0  0  0  0  0  0  0
   11.9783   -0.8525   25.6282 H   0  0  0  0  0  0  0  0  0  0  0  0
  1  2  1  0
  2  3  1  0
  3  4  2  0
  4  5  1  0
  5  6  2  0
  6  7  1  0
  7  8  2  0
  8  9  1  0
  9 10  1  0
 10 11  2  0
 11 12  1  0
 12 13  1  0
 13 14  2  0
 14 15  1  0
 15 16  2  0
 16 17  1  0
 17 18  2  0
 18 19  1  0
 16 20  1  0
 15 21  1  0
 14 22  1  0
 12 23  1  0
 12 24  1  0
 11 25  1  0
 25 26  2  0
 26 27  1  0
 27 28  2  0
 28 29  1  0
 29 30  1  0
 30 31  1  0
 30 32  1  0
 30 33  1  0
 29 34  2  0
 34 35  1  0
 35 36  2  0
 35 37  1  0
 34 38  1  0
  7 39  1  0
  6 40  1  0
  5 41  1  0
  4 42  1  0
  2 43  1  0
  2 44  1  0
  1 45  1  0
  1 46  1  0
  1 47  1  0
  8  3  1  0
 26  9  1  0
 36 27  1  0
 18 13  1  0
M  END
>  <cnnaffinity>  (1) 
-6.18636

>  <filename>  (1) 
CCc1ccccc1-n1nc(Cc2cccnc2)nc1-c1nccc(C)n1

$$$$
