
     RDKit          3D

 48 52  0  0  0  0  0  0  0  0999 V2000
   12.5748   -1.1527   21.5495 C   0  0  0  0  0  0  0  0  0  0  0  0
   12.5051   -0.2088   22.7577 C   0  0  0  0  0  0  0  0  0  0  0  0
   12.5475    1.2672   22.4511 C   0  0  0  0  0  0  0  0  0  0  0  0
   13.5985    2.0917   22.8947 C   0  0  0  0  0  0  0  0  0  0  0  0
   13.6726    3.4226   22.4951 C   0  0  0  0  0  0  0  0  0  0  0  0
   12.7523    3.9211   21.4506 C   0  0  0  0  0  0  0  0  0  0  0  0
   11.7415    3.1136   21.1768 C   0  0  0  0  0  0  0  0  0  0  0  0
   11.4132    1.9613   21.9234 C   0  0  0  0  0  0  0  0  0  0  0  0
   10.0604    1.4528   22.1490 N   0  0  0  0  0  0  0  0  0  0  0  0
    9.6079    0.4619   21.3491 N   0  0  0  0  0  0  0  0  0  0  0  0
    8.3484    0.3204   21.7024 C   0  0  0  0  0  0  0  0  0  0  0  0
    7.4306   -0.6463   21.0056 C   0  0  0  0  0  0  0  0  0  0  0  0
    6.6513   -0.0251   19.8503 C   0  0  0  0  0  0  0  0  0  0  0  0
    5.4453    0.6460   20.0914 C   0  0  0  0  0  0  0  0  0  0  0  0
    4.8168    1.3149   19.0388 C   0  0  0  0  0  0  0  0  0  0  0  0
    5.4179    1.2894   17.7770 C   0  0  0  0  0  0  0  0  0  0  0  0
    6.5577    0.6317   17.5145 N   0  0  0  0  0  0  0  0  0  0  0  0
    7.1443   -0.0096   18.5333 C   0  0  0  0  0  0  0  0  0  0  0  0
    8.0650   -0.5445   18.2948 H   0  0  0  0  0  0  0  0  0  0  0  0
    4.9641    1.8149   16.9380 H   0  0  0  0  0  0  0  0  0  0  0  0
    3.8893    1.8580   19.1841 H   0  0  0  0  0  0  0  0  0  0  0  0
    5.0162    0.6480   21.0961 H   0  0  0  0  0  0  0  0  0  0  0  0
    8.0369   -1.4889   20.6565 H   0  0  0  0  0  0  0  0  0  0  0  0
    6.7364   -1.0270   21.7612 H   0  0  0  0  0  0  0  0  0  0  0  0
    7.9496    1.1428   22.6922 N   0  0  0  0  0  0  0  0  0  0  0  0
    9.0262    1.8825   22.9556 C   0  0  0  0  0  0  0  0  0  0  0  0
    9.0780    2.9792   23.9849 C   0  0  0  0  0  0  0  0  0  0  0  0
    7.9470    3.2265   24.8101 C   0  0  0  0  0  0  0  0  0  0  0  0
    7.9793    4.2192   25.8042 C   0  0  0  0  0  0  0  0  0  0  0  0
    9.1598    4.9591   25.9516 C   0  0  0  0  0  0  0  0  0  0  0  0
    9.5937    5.9226   26.8631 N   0  0  0  0  0  0  0  0  0  0  0  0
   10.8133    6.1871   26.4954 C   0  0  0  0  0  0  0  0  0  0  0  0
   11.2255    5.4875   25.3852 N   0  0  0  0  0  0  0  0  0  0  0  0
   10.1907    4.6706   25.0409 C   0  0  0  0  0  0  0  0  0  0  0  0
   10.2122    3.7161   24.1230 N   0  0  0  0  0  0  0  0  0  0  0  0
   12.1501    5.3115   25.0449 H   0  0  0  0  0  0  0  0  0  0  0  0
   11.4541    6.9138   26.9875 H   0  0  0  0  0  0  0  0  0  0  0  0
    7.1148    4.4324   26.4298 H   0  0  0  0  0  0  0  0  0  0  0  0
    7.0477    2.6319   24.6763 H   0  0  0  0  0  0  0  0  0  0  0  0
   11.4132    2.6358   23.6840 H   0  0  0  0  0  0  0  0  0  0  0  0
   12.9868    4.8953   20.9616 H   0  0  0  0  0  0  0  0  0  0  0  0
   14.4379    4.0809   22.8917 H   0  0  0  0  0  0  0  0  0  0  0  0
   14.3316    1.6566   23.5616 H   0  0  0  0  0  0  0  0  0  0  0  0
   13.3273   -0.4273   23.4513 H   0  0  0  0  0  0  0  0  0  0  0  0
   11.5559   -0.3935   23.2776 H   0  0  0  0  0  0  0  0  0  0  0  0
   12.3395   -2.1747   21.8647 H   0  0  0  0  0  0  0  0  0  0  0  0
   11.8430   -0.8778   20.7820 H   0  0  0  0  0  0  0  0  0  0  0  0
   13.5723   -1.1897   21.0944 H   0  0  0  0  0  0  0  0  0  0  0  0
  1  2  1  0
  2  3  1  0
  3  4  2  0
  4  5  1  0
  5  6  2  0
  6  7  1  0
  7  8  2  0
  8  9  1  0
  9 10  1  0
 10 11  2  0
 11 12  1  0
 12 13  1  0
 13 14  2  0
 14 15  1  0
 15 16  2  0
 16 17  1  0
 17 18  2  0
 18 19  1  0
 16 20  1  0
 15 21  1  0
 14 22  1  0
 12 23  1  0
 12 24  1  0
 11 25  1  0
 25 26  2  0
 26 27  1  0
 27 28  2  0
 28 29  1  0
 29 30  2  0
 30 31  1  0
 31 32  2  0
 32 33  1  0
 33 34  1  0
 34 35  2  0
 33 36  1  0
 32 37  1  0
 29 38  1  0
 28 39  1  0
  7 40  1  0
  6 41  1  0
  5 42  1  0
  4 43  1  0
  2 44  1  0
  2 45  1  0
  1 46  1  0
  1 47  1  0
  1 48  1  0
  8  3  1  0
 26  9  1  0
 35 27  1  0
 18 13  1  0
 34 30  1  0
M  END
>  <cnnaffinity>  (1) 
-6.79895

>  <filename>  (1) 
CCc1ccccc1-n1nc(Cc2cccnc2)nc1-c1ccc2nc[nH]c2n1

$$$$
