
     RDKit          3D

 33 35  0  0  0  0  0  0  0  0999 V2000
    4.9304    1.8139   16.9622 H   0  0  0  0  0  0  0  0  0  0  0  0
    5.3887    1.3155   17.8089 C   0  0  0  0  0  0  0  0  0  0  0  0
    6.5574    0.7024   17.5586 N   0  0  0  0  0  0  0  0  0  0  0  0
    7.1526    0.1036   18.5983 C   0  0  0  0  0  0  0  0  0  0  0  0
    8.1054   -0.3836   18.3868 H   0  0  0  0  0  0  0  0  0  0  0  0
    6.6365    0.0716   19.9157 C   0  0  0  0  0  0  0  0  0  0  0  0
    7.3318   -0.6530   21.0270 C   0  0  0  0  0  0  0  0  0  0  0  0
    7.6712   -2.0461   20.9855 C   0  0  0  0  0  0  0  0  0  0  0  0
    7.3808   -2.7054   20.1826 H   0  0  0  0  0  0  0  0  0  0  0  0
    8.2679   -2.5685   22.0178 N   0  0  0  0  0  0  0  0  0  0  0  0
    8.4454   -1.3947   23.1800 S   0  0  0  0  0  0  0  0  0  0  0  0
    7.6557   -0.1580   22.2755 C   0  0  0  0  0  0  0  0  0  0  0  0
    7.3666    1.1594   22.8640 C   0  0  0  0  0  0  0  0  0  0  0  0
    7.5333    2.3077   22.0763 C   0  0  0  0  0  0  0  0  0  0  0  0
    7.8518    2.1793   21.0477 H   0  0  0  0  0  0  0  0  0  0  0  0
    7.2471    3.5669   22.5886 C   0  0  0  0  0  0  0  0  0  0  0  0
    7.3694    4.4389   21.9499 H   0  0  0  0  0  0  0  0  0  0  0  0
    6.7875    3.7132   23.9074 C   0  0  0  0  0  0  0  0  0  0  0  0
    6.5593    5.0828   24.4900 C   0  0  0  0  0  0  0  0  0  0  0  0
    5.7574    5.0312   25.2354 H   0  0  0  0  0  0  0  0  0  0  0  0
    6.2051    5.7613   23.7046 H   0  0  0  0  0  0  0  0  0  0  0  0
    7.8368    5.6441   25.1308 C   0  0  0  0  0  0  0  0  0  0  0  0
    8.1926    4.9799   25.9256 H   0  0  0  0  0  0  0  0  0  0  0  0
    8.6391    5.7216   24.3889 H   0  0  0  0  0  0  0  0  0  0  0  0
    7.6746    6.6359   25.5626 H   0  0  0  0  0  0  0  0  0  0  0  0
    6.6223    2.5627   24.6982 C   0  0  0  0  0  0  0  0  0  0  0  0
    6.2502    2.6652   25.7164 H   0  0  0  0  0  0  0  0  0  0  0  0
    6.9112    1.3006   24.1893 C   0  0  0  0  0  0  0  0  0  0  0  0
    6.7594    0.4179   24.8031 H   0  0  0  0  0  0  0  0  0  0  0  0
    5.4041    0.7119   20.1355 C   0  0  0  0  0  0  0  0  0  0  0  0
    4.9750    0.7156   21.1418 H   0  0  0  0  0  0  0  0  0  0  0  0
    4.7691    1.3401   19.0627 C   0  0  0  0  0  0  0  0  0  0  0  0
    3.8161    1.8463   19.1843 H   0  0  0  0  0  0  0  0  0  0  0  0
  1  2  1  0
  2  3  2  0
  3  4  1  0
  4  5  1  0
  4  6  2  0
  6  7  1  0
  7  8  1  0
  8  9  1  0
  8 10  2  0
 10 11  1  0
 11 12  1  0
 12 13  1  0
 13 14  2  0
 14 15  1  0
 14 16  1  0
 16 17  1  0
 16 18  2  0
 18 19  1  0
 19 20  1  0
 19 21  1  0
 19 22  1  0
 22 23  1  0
 22 24  1  0
 22 25  1  0
 18 26  1  0
 26 27  1  0
 26 28  2  0
 28 29  1  0
  6 30  1  0
 30 31  1  0
 30 32  2  0
 32 33  1  0
 32  2  1  0
 12  7  2  0
 28 13  1  0
M  END
>  <cnnaffinity>  (1) 
-4.98802

>  <filename>  (1) 
CCc1ccc(-c2sncc2-c2cccnc2)cc1

$$$$
