
     RDKit          3D

 53 57  0  0  0  0  0  0  0  0999 V2000
    8.2231    0.1616   25.7859 C   0  0  0  0  0  0  0  0  0  0  0  0
    9.5490    0.8568   25.4775 C   0  0  0  0  0  0  0  0  0  0  0  0
    9.5188    2.3401   25.0535 C   0  0  0  0  0  0  0  0  0  0  0  0
    9.3035    3.2224   26.1469 O   0  0  0  0  0  0  0  0  0  0  0  0
    7.9787    3.5680   26.4910 C   0  0  0  0  0  0  0  0  0  0  0  0
    7.3024    4.2351   25.2984 C   0  0  0  0  0  0  0  0  0  0  0  0
    7.1914    3.2008   24.1746 C   0  0  0  0  0  0  0  0  0  0  0  0
    8.6180    2.7242   23.8246 C   0  0  0  0  0  0  0  0  0  0  0  0
    8.6798    1.6793   22.7569 C   0  0  0  0  0  0  0  0  0  0  0  0
    7.7200    0.8678   22.3570 N   0  0  0  0  0  0  0  0  0  0  0  0
    8.3253    0.0823   21.4245 C   0  0  0  0  0  0  0  0  0  0  0  0
    7.5803   -0.9052   20.5665 C   0  0  0  0  0  0  0  0  0  0  0  0
    6.7515   -0.2385   19.4716 C   0  0  0  0  0  0  0  0  0  0  0  0
    5.5910    0.4722   19.8109 C   0  0  0  0  0  0  0  0  0  0  0  0
    4.9405    1.2215   18.8312 C   0  0  0  0  0  0  0  0  0  0  0  0
    5.4606    1.2234   17.5348 C   0  0  0  0  0  0  0  0  0  0  0  0
    6.5392    0.5129   17.1762 N   0  0  0  0  0  0  0  0  0  0  0  0
    7.1549   -0.2014   18.1262 C   0  0  0  0  0  0  0  0  0  0  0  0
    8.0324   -0.7655   17.8052 H   0  0  0  0  0  0  0  0  0  0  0  0
    4.9937    1.8185   16.7518 H   0  0  0  0  0  0  0  0  0  0  0  0
    4.0680    1.8220   19.0611 H   0  0  0  0  0  0  0  0  0  0  0  0
    5.2317    0.4615   20.8409 H   0  0  0  0  0  0  0  0  0  0  0  0
    6.9252   -1.4859   21.2238 H   0  0  0  0  0  0  0  0  0  0  0  0
    8.3184   -1.5902   20.1388 H   0  0  0  0  0  0  0  0  0  0  0  0
    9.6148    0.3042   21.2700 N   0  0  0  0  0  0  0  0  0  0  0  0
    9.8349    1.3674   22.0973 N   0  0  0  0  0  0  0  0  0  0  0  0
   11.1180    1.9407   22.2445 C   0  0  0  0  0  0  0  0  0  0  0  0
   11.3546    3.3174   22.3081 C   0  0  0  0  0  0  0  0  0  0  0  0
   12.6543    3.8230   22.5073 C   0  0  0  0  0  0  0  0  0  0  0  0
   13.7437    2.9746   22.6715 C   0  0  0  0  0  0  0  0  0  0  0  0
   13.5253    1.5796   22.5952 C   0  0  0  0  0  0  0  0  0  0  0  0
   12.2333    1.0895   22.3549 C   0  0  0  0  0  0  0  0  0  0  0  0
   12.3859   -0.2693   22.2101 N   0  0  0  0  0  0  0  0  0  0  0  0
   13.7186   -0.5278   22.3260 C   0  0  0  0  0  0  0  0  0  0  0  0
   14.4336    0.5294   22.5721 N   0  0  0  0  0  0  0  0  0  0  0  0
   14.1203   -1.5243   22.1712 H   0  0  0  0  0  0  0  0  0  0  0  0
   11.6362   -0.8921   21.9700 H   0  0  0  0  0  0  0  0  0  0  0  0
   14.7487    3.3673   22.7385 H   0  0  0  0  0  0  0  0  0  0  0  0
   12.8041    4.8995   22.5205 H   0  0  0  0  0  0  0  0  0  0  0  0
   10.5447    4.0252   22.1765 H   0  0  0  0  0  0  0  0  0  0  0  0
    9.1044    3.6204   23.4302 H   0  0  0  0  0  0  0  0  0  0  0  0
    6.7205    3.6439   23.2866 H   0  0  0  0  0  0  0  0  0  0  0  0
    6.5606    2.3575   24.4948 H   0  0  0  0  0  0  0  0  0  0  0  0
    7.9365    5.0724   24.9697 H   0  0  0  0  0  0  0  0  0  0  0  0
    6.3294    4.6520   25.5766 H   0  0  0  0  0  0  0  0  0  0  0  0
    8.0615    4.2279   27.3628 H   0  0  0  0  0  0  0  0  0  0  0  0
    7.4079    2.6757   26.7993 H   0  0  0  0  0  0  0  0  0  0  0  0
   10.5529    2.5662   24.7674 H   0  0  0  0  0  0  0  0  0  0  0  0
   10.0548    0.3140   24.6652 H   0  0  0  0  0  0  0  0  0  0  0  0
   10.2170    0.7992   26.3453 H   0  0  0  0  0  0  0  0  0  0  0  0
    7.5751    0.1475   24.9012 H   0  0  0  0  0  0  0  0  0  0  0  0
    7.6828    0.6350   26.6155 H   0  0  0  0  0  0  0  0  0  0  0  0
    8.4162   -0.8778   26.0805 H   0  0  0  0  0  0  0  0  0  0  0  0
  1  2  1  0
  2  3  1  0
  3  4  1  0
  4  5  1  0
  5  6  1  0
  6  7  1  0
  7  8  1  0
  8  9  1  0
  9 10  2  0
 10 11  1  0
 11 12  1  0
 12 13  1  0
 13 14  2  0
 14 15  1  0
 15 16  2  0
 16 17  1  0
 17 18  2  0
 18 19  1  0
 16 20  1  0
 15 21  1  0
 14 22  1  0
 12 23  1  0
 12 24  1  0
 11 25  2  0
 25 26  1  0
 26 27  1  0
 27 28  2  0
 28 29  1  0
 29 30  2  0
 30 31  1  0
 31 32  2  0
 32 33  1  0
 33 34  1  0
 34 35  2  0
 34 36  1  0
 33 37  1  0
 30 38  1  0
 29 39  1  0
 28 40  1  0
  8 41  1  0
  7 42  1  0
  7 43  1  0
  6 44  1  0
  6 45  1  0
  5 46  1  0
  5 47  1  0
  3 48  1  0
  2 49  1  0
  2 50  1  0
  1 51  1  0
  1 52  1  0
  1 53  1  0
  8  3  1  0
 26  9  1  0
 32 27  1  0
 18 13  1  0
 35 31  1  0
M  END
>  <cnnaffinity>  (1) 
-6.65359

>  <filename>  (1) 
CCC1OCCCC1c1nc(Cc2cccnc2)nn1-c1cccc2nc[nH]c12

$$$$
