
     RDKit          3D

 48 52  0  0  0  0  0  0  0  0999 V2000
    9.4201    0.1966   26.1092 C   0  0  0  0  0  0  0  0  0  0  0  0
   10.1070    1.3741   25.4177 C   0  0  0  0  0  0  0  0  0  0  0  0
    9.1819    2.5491   25.1284 C   0  0  0  0  0  0  0  0  0  0  0  0
    8.8329    3.3982   26.1881 C   0  0  0  0  0  0  0  0  0  0  0  0
    8.3425    4.6834   25.9712 C   0  0  0  0  0  0  0  0  0  0  0  0
    8.0590    5.0905   24.6631 C   0  0  0  0  0  0  0  0  0  0  0  0
    8.1803    4.1782   23.6098 C   0  0  0  0  0  0  0  0  0  0  0  0
    8.7070    2.9052   23.8499 C   0  0  0  0  0  0  0  0  0  0  0  0
    8.7850    1.9717   22.7609 N   0  0  0  0  0  0  0  0  0  0  0  0
    7.7300    1.1778   22.4434 N   0  0  0  0  0  0  0  0  0  0  0  0
    8.2550    0.3168   21.5937 C   0  0  0  0  0  0  0  0  0  0  0  0
    7.4045   -0.7102   20.9043 C   0  0  0  0  0  0  0  0  0  0  0  0
    6.6125   -0.0809   19.7644 C   0  0  0  0  0  0  0  0  0  0  0  0
    5.4239    0.6152   20.0320 C   0  0  0  0  0  0  0  0  0  0  0  0
    4.8002    1.3069   18.9910 C   0  0  0  0  0  0  0  0  0  0  0  0
    5.3951    1.2864   17.7257 C   0  0  0  0  0  0  0  0  0  0  0  0
    6.5279    0.6238   17.4464 N   0  0  0  0  0  0  0  0  0  0  0  0
    7.1141   -0.0335   18.4542 C   0  0  0  0  0  0  0  0  0  0  0  0
    8.0424   -0.5539   18.2141 H   0  0  0  0  0  0  0  0  0  0  0  0
    4.9502    1.8302   16.8957 H   0  0  0  0  0  0  0  0  0  0  0  0
    3.8877    1.8730   19.1472 H   0  0  0  0  0  0  0  0  0  0  0  0
    5.0191    0.6330   21.0473 H   0  0  0  0  0  0  0  0  0  0  0  0
    8.0584   -1.5218   20.5652 H   0  0  0  0  0  0  0  0  0  0  0  0
    6.7167   -1.1146   21.6557 H   0  0  0  0  0  0  0  0  0  0  0  0
    9.5810    0.4731   21.3648 N   0  0  0  0  0  0  0  0  0  0  0  0
    9.8910    1.5360   22.0911 C   0  0  0  0  0  0  0  0  0  0  0  0
   11.2237    2.1002   22.2223 C   0  0  0  0  0  0  0  0  0  0  0  0
   11.4872    3.4541   22.3933 C   0  0  0  0  0  0  0  0  0  0  0  0
   12.7093    3.9713   22.6360 N   0  0  0  0  0  0  0  0  0  0  0  0
   13.7610    3.1509   22.7294 C   0  0  0  0  0  0  0  0  0  0  0  0
   13.6267    1.7465   22.5969 C   0  0  0  0  0  0  0  0  0  0  0  0
   12.3503    1.2665   22.2696 C   0  0  0  0  0  0  0  0  0  0  0  0
   12.4881   -0.0726   22.1144 N   0  0  0  0  0  0  0  0  0  0  0  0
   13.8066   -0.3628   22.3309 C   0  0  0  0  0  0  0  0  0  0  0  0
   14.5287    0.6787   22.6297 N   0  0  0  0  0  0  0  0  0  0  0  0
   14.1895   -1.3698   22.2395 H   0  0  0  0  0  0  0  0  0  0  0  0
   11.7455   -0.6725   21.7958 H   0  0  0  0  0  0  0  0  0  0  0  0
   14.7236    3.6378   22.8706 H   0  0  0  0  0  0  0  0  0  0  0  0
   10.6755    4.1751   22.3505 H   0  0  0  0  0  0  0  0  0  0  0  0
    7.8668    4.4323   22.5997 H   0  0  0  0  0  0  0  0  0  0  0  0
    7.7500    6.1096   24.4557 H   0  0  0  0  0  0  0  0  0  0  0  0
    8.2054    5.3458   26.8222 H   0  0  0  0  0  0  0  0  0  0  0  0
    8.9517    3.0343   27.1996 H   0  0  0  0  0  0  0  0  0  0  0  0
   10.9008    1.7535   26.0717 H   0  0  0  0  0  0  0  0  0  0  0  0
   10.6113    1.0352   24.5040 H   0  0  0  0  0  0  0  0  0  0  0  0
    8.6273   -0.2207   25.4806 H   0  0  0  0  0  0  0  0  0  0  0  0
    8.9770    0.5000   27.0642 H   0  0  0  0  0  0  0  0  0  0  0  0
   10.1345   -0.6045   26.3205 H   0  0  0  0  0  0  0  0  0  0  0  0
  1  2  1  0
  2  3  1  0
  3  4  2  0
  4  5  1  0
  5  6  2  0
  6  7  1  0
  7  8  2  0
  8  9  1  0
  9 10  1  0
 10 11  2  0
 11 12  1  0
 12 13  1  0
 13 14  2  0
 14 15  1  0
 15 16  2  0
 16 17  1  0
 17 18  2  0
 18 19  1  0
 16 20  1  0
 15 21  1  0
 14 22  1  0
 12 23  1  0
 12 24  1  0
 11 25  1  0
 25 26  2  0
 26 27  1  0
 27 28  2  0
 28 29  1  0
 29 30  2  0
 30 31  1  0
 31 32  2  0
 32 33  1  0
 33 34  1  0
 34 35  2  0
 34 36  1  0
 33 37  1  0
 30 38  1  0
 28 39  1  0
  7 40  1  0
  6 41  1  0
  5 42  1  0
  4 43  1  0
  2 44  1  0
  2 45  1  0
  1 46  1  0
  1 47  1  0
  1 48  1  0
  8  3  1  0
 26  9  1  0
 32 27  1  0
 18 13  1  0
 35 31  1  0
M  END
>  <cnnaffinity>  (1) 
-6.86128

>  <filename>  (1) 
CCc1ccccc1-n1nc(Cc2cccnc2)nc1-c1cncc2nc[nH]c12

$$$$
