
     RDKit          3D

 46 48  0  0  0  0  0  0  0  0999 V2000
   12.1199   -1.4944   22.0368 C   0  0  0  0  0  0  0  0  0  0  0  0
   11.8827   -0.3940   23.0747 C   0  0  0  0  0  0  0  0  0  0  0  0
   12.0408    0.9922   22.5364 C   0  0  0  0  0  0  0  0  0  0  0  0
   11.0822    1.9140   22.1493 C   0  0  0  0  0  0  0  0  0  0  0  0
    9.6945    1.4551   21.9583 C   0  0  0  0  0  0  0  0  0  0  0  0
    9.3252    0.4661   21.1457 N   0  0  0  0  0  0  0  0  0  0  0  0
    8.0243    0.2594   21.4608 C   0  0  0  0  0  0  0  0  0  0  0  0
    7.1725   -0.7687   20.7747 C   0  0  0  0  0  0  0  0  0  0  0  0
    6.4261   -0.1566   19.6029 C   0  0  0  0  0  0  0  0  0  0  0  0
    5.2994    0.6416   19.8347 C   0  0  0  0  0  0  0  0  0  0  0  0
    4.7653    1.3684   18.7682 C   0  0  0  0  0  0  0  0  0  0  0  0
    5.3818    1.2677   17.5169 C   0  0  0  0  0  0  0  0  0  0  0  0
    6.4478    0.4937   17.2687 N   0  0  0  0  0  0  0  0  0  0  0  0
    6.9429   -0.2036   18.2985 C   0  0  0  0  0  0  0  0  0  0  0  0
    7.8123   -0.8281   18.0889 H   0  0  0  0  0  0  0  0  0  0  0  0
    5.0111    1.8426   16.6722 H   0  0  0  0  0  0  0  0  0  0  0  0
    3.9114    2.0238   18.8962 H   0  0  0  0  0  0  0  0  0  0  0  0
    4.8778    0.7102   20.8414 H   0  0  0  0  0  0  0  0  0  0  0  0
    6.4740   -1.1603   21.5191 H   0  0  0  0  0  0  0  0  0  0  0  0
    7.8131   -1.5962   20.4573 H   0  0  0  0  0  0  0  0  0  0  0  0
    7.5507    1.0618   22.3865 N   0  0  0  0  0  0  0  0  0  0  0  0
    8.6217    1.8181   22.7253 N   0  0  0  0  0  0  0  0  0  0  0  0
    8.4265    2.8208   23.7796 C   0  0  0  0  0  0  0  0  0  0  0  0
    9.5671    2.8594   24.8029 C   0  0  0  0  0  0  0  0  0  0  0  0
    9.3042    3.5324   25.6255 H   0  0  0  0  0  0  0  0  0  0  0  0
   10.5150    3.1937   24.3643 H   0  0  0  0  0  0  0  0  0  0  0  0
    9.7164    1.8572   25.2180 H   0  0  0  0  0  0  0  0  0  0  0  0
    8.0639    4.1948   23.1798 C   0  0  0  0  0  0  0  0  0  0  0  0
    9.1178    4.7588   22.5559 F   0  0  0  0  0  0  0  0  0  0  0  0
    7.0505    4.1398   22.3120 F   0  0  0  0  0  0  0  0  0  0  0  0
    7.6895    5.0299   24.1723 F   0  0  0  0  0  0  0  0  0  0  0  0
    7.5076    2.5070   24.2829 H   0  0  0  0  0  0  0  0  0  0  0  0
   11.7359    3.1779   22.0530 C   0  0  0  0  0  0  0  0  0  0  0  0
   13.0653    2.9578   22.2820 C   0  0  0  0  0  0  0  0  0  0  0  0
   13.2560    1.6201   22.5357 N   0  0  0  0  0  0  0  0  0  0  0  0
   14.5097    0.9465   22.8122 C   0  0  0  0  0  0  0  0  0  0  0  0
   14.6588    0.1069   22.1271 H   0  0  0  0  0  0  0  0  0  0  0  0
   15.3274    1.6415   22.6423 H   0  0  0  0  0  0  0  0  0  0  0  0
   14.5364    0.5782   23.8454 H   0  0  0  0  0  0  0  0  0  0  0  0
   13.9129    3.6328   22.2756 H   0  0  0  0  0  0  0  0  0  0  0  0
   11.2773    4.1409   21.8929 H   0  0  0  0  0  0  0  0  0  0  0  0
   10.8746   -0.4953   23.4953 H   0  0  0  0  0  0  0  0  0  0  0  0
   12.5767   -0.4571   23.9203 H   0  0  0  0  0  0  0  0  0  0  0  0
   11.9895   -2.4841   22.4804 H   0  0  0  0  0  0  0  0  0  0  0  0
   13.1369   -1.4537   21.6339 H   0  0  0  0  0  0  0  0  0  0  0  0
   11.4127   -1.3971   21.2052 H   0  0  0  0  0  0  0  0  0  0  0  0
  1  2  1  0
  2  3  1  0
  3  4  2  0
  4  5  1  0
  5  6  2  0
  6  7  1  0
  7  8  1  0
  8  9  1  0
  9 10  2  0
 10 11  1  0
 11 12  2  0
 12 13  1  0
 13 14  2  0
 14 15  1  0
 12 16  1  0
 11 17  1  0
 10 18  1  0
  8 19  1  0
  8 20  1  0
  7 21  2  0
 21 22  1  0
 22 23  1  0
 23 24  1  0
 24 25  1  0
 24 26  1  0
 24 27  1  0
 23 28  1  0
 28 29  1  0
 28 30  1  0
 28 31  1  0
 23 32  1  0
  4 33  1  0
 33 34  2  0
 34 35  1  0
 35 36  1  0
 36 37  1  0
 36 38  1  0
 36 39  1  0
 34 40  1  0
 33 41  1  0
  2 42  1  0
  2 43  1  0
  1 44  1  0
  1 45  1  0
  1 46  1  0
 35  3  1  0
 22  5  1  0
 14  9  1  0
M  END
>  <cnnaffinity>  (1) 
-5.98038

>  <filename>  (1) 
CCc1c(-c2nc(Cc3cccnc3)nn2C(C)C(F)(F)F)ccn1C

$$$$
