
     RDKit          3D

 45 46  0  0  0  0  0  0  0  0999 V2000
    3.6912   -5.3552   24.2078 C   0  0  0  0  0  0  0  0  0  0  0  0
    4.1839   -4.9854   22.7996 C   0  0  0  0  0  0  0  0  0  0  0  0
    5.6519   -5.3417   22.6168 C   0  0  0  0  0  0  0  0  0  0  0  0
    5.9399   -6.6331   22.1518 C   0  0  0  0  0  0  0  0  0  0  0  0
    7.2468   -7.0994   22.0492 C   0  0  0  0  0  0  0  0  0  0  0  0
    8.3009   -6.2370   22.3452 C   0  0  0  0  0  0  0  0  0  0  0  0
    8.0468   -4.9450   22.8132 C   0  0  0  0  0  0  0  0  0  0  0  0
    6.7232   -4.5016   23.0071 C   0  0  0  0  0  0  0  0  0  0  0  0
    6.4580   -3.1384   23.6696 C   0  0  0  0  0  0  0  0  0  0  0  0
    6.9470   -3.0768   25.1098 C   0  0  0  0  0  0  0  0  0  0  0  0
    6.6777   -2.1119   25.5562 H   0  0  0  0  0  0  0  0  0  0  0  0
    8.0345   -3.2242   25.1804 H   0  0  0  0  0  0  0  0  0  0  0  0
    6.4712   -3.8687   25.7022 H   0  0  0  0  0  0  0  0  0  0  0  0
    7.0569   -2.0592   22.8996 N   0  0  0  0  0  0  0  0  0  0  0  0
    6.5431   -1.7009   21.6951 C   0  0  0  0  0  0  0  0  0  0  0  0
    5.5406   -2.2243   21.2286 O   0  0  0  0  0  0  0  0  0  0  0  0
    7.2634   -0.6845   21.0445 N   0  0  0  0  0  0  0  0  0  0  0  0
    8.6863   -0.4255   21.3066 C   0  0  0  0  0  0  0  0  0  0  0  0
    9.5893   -1.6045   20.9559 C   0  0  0  0  0  0  0  0  0  0  0  0
   10.6409   -1.3036   21.0225 H   0  0  0  0  0  0  0  0  0  0  0  0
    9.4309   -2.4622   21.6144 H   0  0  0  0  0  0  0  0  0  0  0  0
    9.3848   -1.9325   19.9331 H   0  0  0  0  0  0  0  0  0  0  0  0
    8.9770    0.4362   20.6977 H   0  0  0  0  0  0  0  0  0  0  0  0
    8.8254   -0.1051   22.3515 H   0  0  0  0  0  0  0  0  0  0  0  0
    6.6284   -0.0161   19.9560 C   0  0  0  0  0  0  0  0  0  0  0  0
    5.4006    0.6219   20.1618 C   0  0  0  0  0  0  0  0  0  0  0  0
    4.8177    1.2962   19.0868 C   0  0  0  0  0  0  0  0  0  0  0  0
    5.4567    1.2856   17.8404 C   0  0  0  0  0  0  0  0  0  0  0  0
    6.6209    0.6557   17.6186 N   0  0  0  0  0  0  0  0  0  0  0  0
    7.1886    0.0383   18.6627 C   0  0  0  0  0  0  0  0  0  0  0  0
    8.1391   -0.4589   18.4768 H   0  0  0  0  0  0  0  0  0  0  0  0
    5.0128    1.7996   16.9886 H   0  0  0  0  0  0  0  0  0  0  0  0
    3.8853    1.8330   19.2102 H   0  0  0  0  0  0  0  0  0  0  0  0
    4.9372    0.5811   21.1486 H   0  0  0  0  0  0  0  0  0  0  0  0
    7.8034   -1.5069   23.2764 H   0  0  0  0  0  0  0  0  0  0  0  0
    5.3695   -2.9885   23.6730 H   0  0  0  0  0  0  0  0  0  0  0  0
    8.9003   -4.3093   23.0516 H   0  0  0  0  0  0  0  0  0  0  0  0
    9.3130   -6.5828   22.1926 H   0  0  0  0  0  0  0  0  0  0  0  0
    7.4498   -8.1240   21.7544 H   0  0  0  0  0  0  0  0  0  0  0  0
    5.1036   -7.2645   21.8753 H   0  0  0  0  0  0  0  0  0  0  0  0
    3.9985   -3.9293   22.5674 H   0  0  0  0  0  0  0  0  0  0  0  0
    3.5987   -5.5542   22.0647 H   0  0  0  0  0  0  0  0  0  0  0  0
    2.6130   -5.1923   24.3167 H   0  0  0  0  0  0  0  0  0  0  0  0
    4.2093   -4.7702   24.9794 H   0  0  0  0  0  0  0  0  0  0  0  0
    3.8996   -6.4157   24.4071 H   0  0  0  0  0  0  0  0  0  0  0  0
  1  2  1  0
  2  3  1  0
  3  4  2  0
  4  5  1  0
  5  6  2  0
  6  7  1  0
  7  8  2  0
  8  9  1  0
  9 10  1  0
 10 11  1  0
 10 12  1  0
 10 13  1  0
  9 14  1  0
 14 15  1  0
 15 16  2  0
 15 17  1  0
 17 18  1  0
 18 19  1  0
 19 20  1  0
 19 21  1  0
 19 22  1  0
 18 23  1  0
 18 24  1  0
 17 25  1  0
 25 26  2  0
 26 27  1  0
 27 28  2  0
 28 29  1  0
 29 30  2  0
 30 31  1  0
 28 32  1  0
 27 33  1  0
 26 34  1  0
 14 35  1  0
  9 36  1  0
  7 37  1  0
  6 38  1  0
  5 39  1  0
  4 40  1  0
  2 41  1  0
  2 42  1  0
  1 43  1  0
  1 44  1  0
  1 45  1  0
  8  3  1  0
 30 25  1  0
M  END
>  <cnnaffinity>  (1) 
-5.0238

>  <filename>  (1) 
CCc1ccccc1C(C)NC(=O)N(CC)c1cccnc1

$$$$
