
     RDKit          3D

 48 52  0  0  0  0  0  0  0  0999 V2000
    5.5420    3.9225   22.1475 C   0  0  0  0  0  0  0  0  0  0  0  0
    7.0011    4.3918   22.1555 C   0  0  0  0  0  0  0  0  0  0  0  0
    7.6514    4.3105   23.5265 C   0  0  0  0  0  0  0  0  0  0  0  0
    7.6352    5.4315   24.3751 C   0  0  0  0  0  0  0  0  0  0  0  0
    8.2076    5.3924   25.6482 C   0  0  0  0  0  0  0  0  0  0  0  0
    8.8029    4.2136   26.0983 C   0  0  0  0  0  0  0  0  0  0  0  0
    8.8363    3.0789   25.2830 C   0  0  0  0  0  0  0  0  0  0  0  0
    8.2944    3.1403   23.9921 C   0  0  0  0  0  0  0  0  0  0  0  0
    8.5301    2.0433   23.0914 N   0  0  0  0  0  0  0  0  0  0  0  0
    7.5160    1.2764   22.6244 N   0  0  0  0  0  0  0  0  0  0  0  0
    8.1196    0.4093   21.8305 C   0  0  0  0  0  0  0  0  0  0  0  0
    7.3601   -0.6004   21.0056 C   0  0  0  0  0  0  0  0  0  0  0  0
    6.5860   -0.0112   19.8255 C   0  0  0  0  0  0  0  0  0  0  0  0
    5.3720    0.6526   20.0434 C   0  0  0  0  0  0  0  0  0  0  0  0
    4.7862    1.3524   18.9870 C   0  0  0  0  0  0  0  0  0  0  0  0
    5.4034    1.3244   17.7345 C   0  0  0  0  0  0  0  0  0  0  0  0
    6.5231    0.6303   17.4811 N   0  0  0  0  0  0  0  0  0  0  0  0
    7.0842   -0.0199   18.5085 C   0  0  0  0  0  0  0  0  0  0  0  0
    8.0006   -0.5661   18.2804 H   0  0  0  0  0  0  0  0  0  0  0  0
    4.9791    1.8711   16.8949 H   0  0  0  0  0  0  0  0  0  0  0  0
    3.8843    1.9359   19.1276 H   0  0  0  0  0  0  0  0  0  0  0  0
    4.9105    0.6269   21.0336 H   0  0  0  0  0  0  0  0  0  0  0  0
    8.0753   -1.3587   20.6712 H   0  0  0  0  0  0  0  0  0  0  0  0
    6.6598   -1.0988   21.6832 H   0  0  0  0  0  0  0  0  0  0  0  0
    9.4649    0.5388   21.7887 N   0  0  0  0  0  0  0  0  0  0  0  0
    9.6992    1.5976   22.5537 C   0  0  0  0  0  0  0  0  0  0  0  0
   11.0198    2.2356   22.7301 C   0  0  0  0  0  0  0  0  0  0  0  0
   12.1555    1.3541   22.6830 C   0  0  0  0  0  0  0  0  0  0  0  0
   13.4251    1.7799   22.6625 N   0  0  0  0  0  0  0  0  0  0  0  0
   13.5084    3.1220   22.6676 C   0  0  0  0  0  0  0  0  0  0  0  0
   14.6435    3.8583   22.5638 N   0  0  0  0  0  0  0  0  0  0  0  0
   14.3310    5.2048   22.6414 C   0  0  0  0  0  0  0  0  0  0  0  0
   12.9770    5.3506   22.7590 C   0  0  0  0  0  0  0  0  0  0  0  0
   12.4071    4.0292   22.7636 C   0  0  0  0  0  0  0  0  0  0  0  0
   11.1345    3.5825   22.8298 N   0  0  0  0  0  0  0  0  0  0  0  0
   12.4059    6.2615   22.8477 H   0  0  0  0  0  0  0  0  0  0  0  0
   15.1115    5.9649   22.6125 H   0  0  0  0  0  0  0  0  0  0  0  0
   15.5467    3.4201   22.5549 H   0  0  0  0  0  0  0  0  0  0  0  0
   11.9880    0.2792   22.6493 H   0  0  0  0  0  0  0  0  0  0  0  0
    9.3106    2.1625   25.6284 H   0  0  0  0  0  0  0  0  0  0  0  0
    9.2711    4.1884   27.0720 H   0  0  0  0  0  0  0  0  0  0  0  0
    8.1864    6.2719   26.2893 H   0  0  0  0  0  0  0  0  0  0  0  0
    7.1817    6.3531   24.0136 H   0  0  0  0  0  0  0  0  0  0  0  0
    7.0683    5.4223   21.7829 H   0  0  0  0  0  0  0  0  0  0  0  0
    7.5805    3.7711   21.4668 H   0  0  0  0  0  0  0  0  0  0  0  0
    5.4841    2.8742   22.4576 H   0  0  0  0  0  0  0  0  0  0  0  0
    5.1098    3.9993   21.1440 H   0  0  0  0  0  0  0  0  0  0  0  0
    4.9264    4.5221   22.8278 H   0  0  0  0  0  0  0  0  0  0  0  0
  1  2  1  0
  2  3  1  0
  3  4  2  0
  4  5  1  0
  5  6  2  0
  6  7  1  0
  7  8  2  0
  8  9  1  0
  9 10  1  0
 10 11  2  0
 11 12  1  0
 12 13  1  0
 13 14  2  0
 14 15  1  0
 15 16  2  0
 16 17  1  0
 17 18  2  0
 18 19  1  0
 16 20  1  0
 15 21  1  0
 14 22  1  0
 12 23  1  0
 12 24  1  0
 11 25  1  0
 25 26  2  0
 26 27  1  0
 27 28  2  0
 28 29  1  0
 29 30  2  0
 30 31  1  0
 31 32  1  0
 32 33  2  0
 33 34  1  0
 34 35  2  0
 33 36  1  0
 32 37  1  0
 31 38  1  0
 28 39  1  0
  7 40  1  0
  6 41  1  0
  5 42  1  0
  4 43  1  0
  2 44  1  0
  2 45  1  0
  1 46  1  0
  1 47  1  0
  1 48  1  0
  8  3  1  0
 26  9  1  0
 35 27  1  0
 18 13  1  0
 34 30  1  0
M  END
>  <cnnaffinity>  (1) 
-6.41893

>  <filename>  (1) 
CCc1ccccc1-n1nc(Cc2cccnc2)nc1-c1cnc2[nH]ccc2n1

$$$$
