
     RDKit          3D

 38 41  0  0  0  0  0  0  0  0999 V2000
   10.8018   -2.6158   22.3106 C   0  0  0  0  0  0  0  0  0  0  0  0
    9.3185   -3.0382   22.3162 C   0  0  0  0  0  0  0  0  0  0  0  0
    8.4047   -1.9282   21.9644 C   0  0  0  0  0  0  0  0  0  0  0  0
    7.9665   -1.6598   20.7552 N   0  0  0  0  0  0  0  0  0  0  0  0
    7.2405   -0.5235   20.9449 N   0  0  0  0  0  0  0  0  0  0  0  0
    6.5407    0.0692   19.8622 C   0  0  0  0  0  0  0  0  0  0  0  0
    5.3367    0.7632   20.0564 C   0  0  0  0  0  0  0  0  0  0  0  0
    4.7672    1.3910   18.9459 C   0  0  0  0  0  0  0  0  0  0  0  0
    5.3960    1.2924   17.7024 C   0  0  0  0  0  0  0  0  0  0  0  0
    6.5213    0.5821   17.5031 N   0  0  0  0  0  0  0  0  0  0  0  0
    7.0707   -0.0189   18.5598 C   0  0  0  0  0  0  0  0  0  0  0  0
    7.9817   -0.5867   18.3802 H   0  0  0  0  0  0  0  0  0  0  0  0
    4.9938    1.8047   16.8323 H   0  0  0  0  0  0  0  0  0  0  0  0
    3.8579    1.9759   19.0403 H   0  0  0  0  0  0  0  0  0  0  0  0
    4.8756    0.8213   21.0438 H   0  0  0  0  0  0  0  0  0  0  0  0
    7.3341   -0.1582   22.2631 C   0  0  0  0  0  0  0  0  0  0  0  0
    6.9692    1.1472   22.8289 C   0  0  0  0  0  0  0  0  0  0  0  0
    7.4463    2.2976   22.2169 C   0  0  0  0  0  0  0  0  0  0  0  0
    7.2151    3.5719   22.7749 C   0  0  0  0  0  0  0  0  0  0  0  0
    6.4971    3.6912   23.9449 C   0  0  0  0  0  0  0  0  0  0  0  0
    5.9917    2.5379   24.6069 C   0  0  0  0  0  0  0  0  0  0  0  0
    5.2773    2.6158   25.8363 C   0  0  0  0  0  0  0  0  0  0  0  0
    4.8488    1.4688   26.4495 C   0  0  0  0  0  0  0  0  0  0  0  0
    5.0474    0.2238   25.9534 N   0  0  0  0  0  0  0  0  0  0  0  0
    5.7124    0.1211   24.8158 C   0  0  0  0  0  0  0  0  0  0  0  0
    6.2309    1.2359   24.0608 C   0  0  0  0  0  0  0  0  0  0  0  0
    5.8937   -0.8891   24.4503 H   0  0  0  0  0  0  0  0  0  0  0  0
    4.3182    1.5104   27.4009 H   0  0  0  0  0  0  0  0  0  0  0  0
    5.0914    3.5816   26.2911 H   0  0  0  0  0  0  0  0  0  0  0  0
    6.3292    4.6661   24.3932 H   0  0  0  0  0  0  0  0  0  0  0  0
    7.6297    4.4434   22.2758 H   0  0  0  0  0  0  0  0  0  0  0  0
    8.0208    2.2191   21.2973 H   0  0  0  0  0  0  0  0  0  0  0  0
    8.0391   -1.0547   22.9235 N   0  0  0  0  0  0  0  0  0  0  0  0
    9.0703   -3.3380   23.3410 H   0  0  0  0  0  0  0  0  0  0  0  0
    9.0730   -3.8589   21.6449 H   0  0  0  0  0  0  0  0  0  0  0  0
   10.9175   -1.7476   22.9637 H   0  0  0  0  0  0  0  0  0  0  0  0
   11.4115   -3.4065   22.7558 H   0  0  0  0  0  0  0  0  0  0  0  0
   11.2182   -2.3472   21.3321 H   0  0  0  0  0  0  0  0  0  0  0  0
  1  2  1  0
  2  3  1  0
  3  4  2  0
  4  5  1  0
  5  6  1  0
  6  7  2  0
  7  8  1  0
  8  9  2  0
  9 10  1  0
 10 11  2  0
 11 12  1  0
  9 13  1  0
  8 14  1  0
  7 15  1  0
  5 16  1  0
 16 17  1  0
 17 18  2  0
 18 19  1  0
 19 20  2  0
 20 21  1  0
 21 22  2  0
 22 23  1  0
 23 24  2  0
 24 25  1  0
 25 26  2  0
 25 27  1  0
 23 28  1  0
 22 29  1  0
 20 30  1  0
 19 31  1  0
 18 32  1  0
 16 33  2  0
  2 34  1  0
  2 35  1  0
  1 36  1  0
  1 37  1  0
  1 38  1  0
 33  3  1  0
 11  6  1  0
 26 17  1  0
 26 21  1  0
M  END
>  <cnnaffinity>  (1) 
-5.70914

>  <filename>  (1) 
CCc1nc(-c2cccc3ccncc23)n(-c2cccnc2)n1

$$$$
