
     RDKit          3D

 53 56  0  0  0  0  0  0  0  0999 V2000
   12.5399   -1.1282   21.6374 C   0  0  0  0  0  0  0  0  0  0  0  0
   12.4400   -0.2514   22.8920 C   0  0  0  0  0  0  0  0  0  0  0  0
   12.4710    1.2497   22.6618 C   0  0  0  0  0  0  0  0  0  0  0  0
   13.6537    1.9820   22.8901 C   0  0  0  0  0  0  0  0  0  0  0  0
   13.6978    3.3766   22.7561 C   0  0  0  0  0  0  0  0  0  0  0  0
   12.5400    4.0706   22.3996 C   0  0  0  0  0  0  0  0  0  0  0  0
   11.3519    3.3709   22.2060 C   0  0  0  0  0  0  0  0  0  0  0  0
   11.3083    1.9766   22.3301 C   0  0  0  0  0  0  0  0  0  0  0  0
   10.0093    1.3654   22.2997 N   0  0  0  0  0  0  0  0  0  0  0  0
    9.6239    0.3929   21.4325 N   0  0  0  0  0  0  0  0  0  0  0  0
    8.3297    0.2681   21.6727 C   0  0  0  0  0  0  0  0  0  0  0  0
    7.4669   -0.6857   20.8936 C   0  0  0  0  0  0  0  0  0  0  0  0
    6.6818   -0.0364   19.7573 C   0  0  0  0  0  0  0  0  0  0  0  0
    5.4820    0.6303   20.0360 C   0  0  0  0  0  0  0  0  0  0  0  0
    4.8259    1.3115   19.0081 C   0  0  0  0  0  0  0  0  0  0  0  0
    5.3960    1.3032   17.7311 C   0  0  0  0  0  0  0  0  0  0  0  0
    6.5216    0.6395   17.4303 N   0  0  0  0  0  0  0  0  0  0  0  0
    7.1350   -0.0155   18.4251 C   0  0  0  0  0  0  0  0  0  0  0  0
    8.0403   -0.5584   18.1516 H   0  0  0  0  0  0  0  0  0  0  0  0
    4.9306    1.8480   16.9108 H   0  0  0  0  0  0  0  0  0  0  0  0
    3.9050    1.8558   19.1812 H   0  0  0  0  0  0  0  0  0  0  0  0
    5.0806    0.6163   21.0525 H   0  0  0  0  0  0  0  0  0  0  0  0
    8.1115   -1.4920   20.5263 H   0  0  0  0  0  0  0  0  0  0  0  0
    6.7621   -1.1330   21.6029 H   0  0  0  0  0  0  0  0  0  0  0  0
    7.8567    1.0899   22.6487 N   0  0  0  0  0  0  0  0  0  0  0  0
    8.9333    1.7576   23.0373 C   0  0  0  0  0  0  0  0  0  0  0  0
    9.0211    2.8204   24.1337 C   0  0  1  0  0  0  0  0  0  0  0  0
    8.1712    4.0731   23.8127 C   0  0  0  0  0  0  0  0  0  0  0  0
    7.5194    4.4799   25.1393 C   0  0  0  0  0  0  0  0  0  0  0  0
    7.3675    3.1629   25.8978 C   0  0  0  0  0  0  0  0  0  0  0  0
    8.5157    2.3832   25.4484 N   0  0  0  0  0  0  0  0  0  0  0  0
    9.0338    1.2657   26.0491 C   0  0  0  0  0  0  0  0  0  0  0  0
   10.0621    0.7463   25.6415 O   0  0  0  0  0  0  0  0  0  0  0  0
    8.2429    0.6942   27.2047 C   0  0  0  0  0  0  0  0  0  0  0  0
    8.7330   -0.2218   27.5293 H   0  0  0  0  0  0  0  0  0  0  0  0
    7.2177    0.4771   26.8894 H   0  0  0  0  0  0  0  0  0  0  0  0
    8.1930    1.3983   28.0398 H   0  0  0  0  0  0  0  0  0  0  0  0
    7.3898    3.3158   26.9829 H   0  0  0  0  0  0  0  0  0  0  0  0
    6.4216    2.6571   25.6426 H   0  0  0  0  0  0  0  0  0  0  0  0
    6.5549    4.9787   25.0019 H   0  0  0  0  0  0  0  0  0  0  0  0
    8.1734    5.1630   25.6958 H   0  0  0  0  0  0  0  0  0  0  0  0
    7.4082    3.8012   23.0734 H   0  0  0  0  0  0  0  0  0  0  0  0
    8.7788    4.8798   23.3840 H   0  0  0  0  0  0  0  0  0  0  0  0
   10.0730    3.0981   24.2778 H   0  0  0  0  0  0  0  0  0  0  0  0
   10.4201    3.9070   22.0569 H   0  0  0  0  0  0  0  0  0  0  0  0
   12.5331    5.1522   22.3154 H   0  0  0  0  0  0  0  0  0  0  0  0
   14.6232    3.9231   22.9195 H   0  0  0  0  0  0  0  0  0  0  0  0
   14.5390    1.4294   23.1991 H   0  0  0  0  0  0  0  0  0  0  0  0
   13.2589   -0.4946   23.5760 H   0  0  0  0  0  0  0  0  0  0  0  0
   11.5060   -0.4836   23.4167 H   0  0  0  0  0  0  0  0  0  0  0  0
   13.5456   -1.1130   21.2096 H   0  0  0  0  0  0  0  0  0  0  0  0
   11.8299   -0.7966   20.8759 H   0  0  0  0  0  0  0  0  0  0  0  0
   12.3097   -2.1749   21.8654 H   0  0  0  0  0  0  0  0  0  0  0  0
  1  2  1  0
  2  3  1  0
  3  4  2  0
  4  5  1  0
  5  6  2  0
  6  7  1  0
  7  8  2  0
  8  9  1  0
  9 10  1  0
 10 11  2  0
 11 12  1  0
 12 13  1  0
 13 14  2  0
 14 15  1  0
 15 16  2  0
 16 17  1  0
 17 18  2  0
 18 19  1  0
 16 20  1  0
 15 21  1  0
 14 22  1  0
 12 23  1  0
 12 24  1  0
 11 25  1  0
 25 26  2  0
 26 27  1  0
 27 28  1  0
 28 29  1  0
 29 30  1  0
 30 31  1  0
 31 32  1  0
 32 33  2  0
 32 34  1  0
 34 35  1  0
 34 36  1  0
 34 37  1  0
 30 38  1  0
 30 39  1  0
 29 40  1  0
 29 41  1  0
 28 42  1  0
 28 43  1  0
 27 44  1  1
  7 45  1  0
  6 46  1  0
  5 47  1  0
  4 48  1  0
  2 49  1  0
  2 50  1  0
  1 51  1  0
  1 52  1  0
  1 53  1  0
  8  3  1  0
 26  9  1  0
 31 27  1  0
 18 13  1  0
M  END
>  <cnnaffinity>  (1) 
-6.06959

>  <filename>  (1) 
CCc1ccccc1-n1nc(Cc2cccnc2)nc1[C@H]1CCCN1C(C)=O

$$$$
