
     RDKit          3D

 42 43  0  0  0  0  0  0  0  0999 V2000
    5.2923   -2.1193   27.2504 C   0  0  0  0  0  0  0  0  0  0  0  0
    4.6645   -2.4473   25.8899 C   0  0  0  0  0  0  0  0  0  0  0  0
    4.9318   -3.8805   25.4791 C   0  0  0  0  0  0  0  0  0  0  0  0
    3.9632   -4.8514   25.7969 C   0  0  0  0  0  0  0  0  0  0  0  0
    4.2022   -6.1999   25.5448 C   0  0  0  0  0  0  0  0  0  0  0  0
    3.3858   -7.2510   25.8273 O   0  0  0  0  0  0  0  0  0  0  0  0
    2.1280   -7.0227   26.4120 C   0  0  0  0  0  0  0  0  0  0  0  0
    1.6831   -8.0132   26.5065 H   0  0  0  0  0  0  0  0  0  0  0  0
    1.4978   -6.3916   25.7726 H   0  0  0  0  0  0  0  0  0  0  0  0
    2.2136   -6.5605   27.4044 H   0  0  0  0  0  0  0  0  0  0  0  0
    5.4054   -6.5844   24.9645 C   0  0  0  0  0  0  0  0  0  0  0  0
    6.3948   -5.6597   24.6793 C   0  0  0  0  0  0  0  0  0  0  0  0
    6.1570   -4.2905   24.9127 C   0  0  0  0  0  0  0  0  0  0  0  0
    7.2706   -3.3235   24.6046 C   0  0  0  0  0  0  0  0  0  0  0  0
    8.3667   -3.3949   25.1239 O   0  0  0  0  0  0  0  0  0  0  0  0
    6.9790   -2.3978   23.6339 N   0  0  0  0  0  0  0  0  0  0  0  0
    7.8900   -1.2850   23.2882 C   0  0  0  0  0  0  0  0  0  0  0  0
    7.3888   -0.2261   22.2760 C   0  0  0  0  0  0  0  0  0  0  0  0
    7.0711    0.8936   22.6174 O   0  0  0  0  0  0  0  0  0  0  0  0
    7.3628   -0.6453   20.9602 N   0  0  0  0  0  0  0  0  0  0  0  0
    6.6816    0.0080   19.8916 C   0  0  0  0  0  0  0  0  0  0  0  0
    5.4635    0.6562   20.1393 C   0  0  0  0  0  0  0  0  0  0  0  0
    4.8121    1.3008   19.0828 C   0  0  0  0  0  0  0  0  0  0  0  0
    5.4047    1.2890   17.8165 C   0  0  0  0  0  0  0  0  0  0  0  0
    6.5649    0.6617   17.5554 N   0  0  0  0  0  0  0  0  0  0  0  0
    7.1818    0.0368   18.5674 C   0  0  0  0  0  0  0  0  0  0  0  0
    8.1339   -0.4426   18.3315 H   0  0  0  0  0  0  0  0  0  0  0  0
    4.9370    1.8051   16.9817 H   0  0  0  0  0  0  0  0  0  0  0  0
    3.8761    1.8306   19.2401 H   0  0  0  0  0  0  0  0  0  0  0  0
    5.0654    0.6625   21.1514 H   0  0  0  0  0  0  0  0  0  0  0  0
    7.8524   -1.5044   20.7702 H   0  0  0  0  0  0  0  0  0  0  0  0
    8.8305   -1.6997   22.9079 H   0  0  0  0  0  0  0  0  0  0  0  0
    8.1459   -0.7050   24.1800 H   0  0  0  0  0  0  0  0  0  0  0  0
    6.0406   -2.4651   23.2728 H   0  0  0  0  0  0  0  0  0  0  0  0
    7.3515   -6.0023   24.2857 H   0  0  0  0  0  0  0  0  0  0  0  0
    5.4791   -7.6459   24.7960 H   0  0  0  0  0  0  0  0  0  0  0  0
    3.0410   -4.5410   26.2669 H   0  0  0  0  0  0  0  0  0  0  0  0
    5.0422   -1.7463   25.1382 H   0  0  0  0  0  0  0  0  0  0  0  0
    3.5800   -2.2896   25.9255 H   0  0  0  0  0  0  0  0  0  0  0  0
    5.0643   -1.0934   27.5536 H   0  0  0  0  0  0  0  0  0  0  0  0
    6.3823   -2.2307   27.2151 H   0  0  0  0  0  0  0  0  0  0  0  0
    4.9180   -2.7919   28.0308 H   0  0  0  0  0  0  0  0  0  0  0  0
  1  2  1  0
  2  3  1  0
  3  4  2  0
  4  5  1  0
  5  6  1  0
  6  7  1  0
  7  8  1  0
  7  9  1  0
  7 10  1  0
  5 11  2  0
 11 12  1  0
 12 13  2  0
 13 14  1  0
 14 15  2  0
 14 16  1  0
 16 17  1  0
 17 18  1  0
 18 19  2  0
 18 20  1  0
 20 21  1  0
 21 22  2  0
 22 23  1  0
 23 24  2  0
 24 25  1  0
 25 26  2  0
 26 27  1  0
 24 28  1  0
 23 29  1  0
 22 30  1  0
 20 31  1  0
 17 32  1  0
 17 33  1  0
 16 34  1  0
 12 35  1  0
 11 36  1  0
  4 37  1  0
  2 38  1  0
  2 39  1  0
  1 40  1  0
  1 41  1  0
  1 42  1  0
 13  3  1  0
 26 21  1  0
M  END
>  <cnnaffinity>  (1) 
-4.93168

>  <filename>  (1) 
CCc1cc(OC)ccc1C(=O)NCC(=O)Nc1cccnc1

$$$$
