
     RDKit          3D

 38 41  0  0  0  0  0  0  0  0999 V2000
   11.3944   -1.5959   22.2931 C   0  0  0  0  0  0  0  0  0  0  0  0
   10.0206   -2.2742   22.2228 C   0  0  0  0  0  0  0  0  0  0  0  0
    8.8120   -1.4329   21.9215 C   0  0  0  0  0  0  0  0  0  0  0  0
    8.5182   -0.9071   20.7529 N   0  0  0  0  0  0  0  0  0  0  0  0
    7.2218   -0.5122   20.8947 C   0  0  0  0  0  0  0  0  0  0  0  0
    6.4863    0.1377   19.8192 C   0  0  0  0  0  0  0  0  0  0  0  0
    5.2520    0.7929   19.9798 C   0  0  0  0  0  0  0  0  0  0  0  0
    4.7095    1.4243   18.8615 C   0  0  0  0  0  0  0  0  0  0  0  0
    5.3950    1.3586   17.6414 C   0  0  0  0  0  0  0  0  0  0  0  0
    6.5450    0.6905   17.4733 N   0  0  0  0  0  0  0  0  0  0  0  0
    7.0711    0.1009   18.5488 C   0  0  0  0  0  0  0  0  0  0  0  0
    7.9991   -0.4476   18.4064 H   0  0  0  0  0  0  0  0  0  0  0  0
    5.0049    1.8534   16.7548 H   0  0  0  0  0  0  0  0  0  0  0  0
    3.7773    1.9782   18.9088 H   0  0  0  0  0  0  0  0  0  0  0  0
    4.7320    0.8028   20.9413 H   0  0  0  0  0  0  0  0  0  0  0  0
    6.6971   -0.7663   22.0747 N   0  0  0  0  0  0  0  0  0  0  0  0
    7.7266   -1.3506   22.7373 N   0  0  0  0  0  0  0  0  0  0  0  0
    7.6889   -1.6217   24.1287 C   0  0  0  0  0  0  0  0  0  0  0  0
    8.6822   -1.0983   24.9337 C   0  0  0  0  0  0  0  0  0  0  0  0
    8.7249   -1.3988   26.3136 C   0  0  0  0  0  0  0  0  0  0  0  0
    7.7626   -2.2120   26.8618 C   0  0  0  0  0  0  0  0  0  0  0  0
    6.7017   -2.7308   26.0735 C   0  0  0  0  0  0  0  0  0  0  0  0
    5.6755   -3.5605   26.6143 C   0  0  0  0  0  0  0  0  0  0  0  0
    4.7301   -4.0999   25.7832 C   0  0  0  0  0  0  0  0  0  0  0  0
    4.6830   -3.8685   24.4430 N   0  0  0  0  0  0  0  0  0  0  0  0
    5.5993   -3.0740   23.9220 C   0  0  0  0  0  0  0  0  0  0  0  0
    6.6564   -2.4522   24.6700 C   0  0  0  0  0  0  0  0  0  0  0  0
    5.5511   -2.8918   22.8481 H   0  0  0  0  0  0  0  0  0  0  0  0
    3.9543   -4.7706   26.1610 H   0  0  0  0  0  0  0  0  0  0  0  0
    5.6494   -3.7771   27.6775 H   0  0  0  0  0  0  0  0  0  0  0  0
    7.8144   -2.4991   27.8978 H   0  0  0  0  0  0  0  0  0  0  0  0
    9.5211   -1.0041   26.9385 H   0  0  0  0  0  0  0  0  0  0  0  0
    9.4420   -0.4496   24.5085 H   0  0  0  0  0  0  0  0  0  0  0  0
    9.8460   -2.8347   23.1465 H   0  0  0  0  0  0  0  0  0  0  0  0
   10.0263   -3.0129   21.4200 H   0  0  0  0  0  0  0  0  0  0  0  0
   12.1501   -2.3728   22.4652 H   0  0  0  0  0  0  0  0  0  0  0  0
   11.6523   -1.0744   21.3633 H   0  0  0  0  0  0  0  0  0  0  0  0
   11.4587   -0.8818   23.1248 H   0  0  0  0  0  0  0  0  0  0  0  0
  1  2  1  0
  2  3  1  0
  3  4  2  0
  4  5  1  0
  5  6  1  0
  6  7  2  0
  7  8  1  0
  8  9  2  0
  9 10  1  0
 10 11  2  0
 11 12  1  0
  9 13  1  0
  8 14  1  0
  7 15  1  0
  5 16  2  0
 16 17  1  0
 17 18  1  0
 18 19  2  0
 19 20  1  0
 20 21  2  0
 21 22  1  0
 22 23  2  0
 23 24  1  0
 24 25  2  0
 25 26  1  0
 26 27  2  0
 26 28  1  0
 24 29  1  0
 23 30  1  0
 21 31  1  0
 20 32  1  0
 19 33  1  0
  2 34  1  0
  2 35  1  0
  1 36  1  0
  1 37  1  0
  1 38  1  0
 17  3  1  0
 27 18  1  0
 11  6  1  0
 27 22  1  0
M  END
>  <cnnaffinity>  (1) 
-5.77459

>  <filename>  (1) 
CCc1nc(-c2cccnc2)nn1-c1cccc2ccncc12

$$$$
