
     RDKit          3D

 53 56  0  0  0  0  0  0  0  0999 V2000
    5.4791    3.8187   22.4389 C   0  0  0  0  0  0  0  0  0  0  0  0
    6.9263    4.2507   22.1660 C   0  0  0  0  0  0  0  0  0  0  0  0
    7.7742    4.2298   23.4235 C   0  0  0  0  0  0  0  0  0  0  0  0
    7.6753    5.3256   24.3002 C   0  0  0  0  0  0  0  0  0  0  0  0
    8.3013    5.3253   25.5458 C   0  0  0  0  0  0  0  0  0  0  0  0
    9.0729    4.2268   25.9223 C   0  0  0  0  0  0  0  0  0  0  0  0
    9.2309    3.1379   25.0581 C   0  0  0  0  0  0  0  0  0  0  0  0
    8.5846    3.1325   23.8078 C   0  0  0  0  0  0  0  0  0  0  0  0
    8.7386    1.9994   22.9198 N   0  0  0  0  0  0  0  0  0  0  0  0
    7.6445    1.2936   22.5233 N   0  0  0  0  0  0  0  0  0  0  0  0
    8.1525    0.3376   21.7692 C   0  0  0  0  0  0  0  0  0  0  0  0
    7.3014   -0.6460   21.0175 C   0  0  0  0  0  0  0  0  0  0  0  0
    6.5568   -0.0237   19.8421 C   0  0  0  0  0  0  0  0  0  0  0  0
    5.3410    0.6398   20.0465 C   0  0  0  0  0  0  0  0  0  0  0  0
    4.7566    1.3301   18.9833 C   0  0  0  0  0  0  0  0  0  0  0  0
    5.4020    1.3158   17.7439 C   0  0  0  0  0  0  0  0  0  0  0  0
    6.5472    0.6531   17.5115 N   0  0  0  0  0  0  0  0  0  0  0  0
    7.0970    0.0024   18.5436 C   0  0  0  0  0  0  0  0  0  0  0  0
    8.0256   -0.5337   18.3346 H   0  0  0  0  0  0  0  0  0  0  0  0
    4.9818    1.8498   16.8949 H   0  0  0  0  0  0  0  0  0  0  0  0
    3.8329    1.8879   19.1063 H   0  0  0  0  0  0  0  0  0  0  0  0
    4.8738    0.6113   21.0340 H   0  0  0  0  0  0  0  0  0  0  0  0
    7.9591   -1.4541   20.6813 H   0  0  0  0  0  0  0  0  0  0  0  0
    6.5849   -1.0688   21.7297 H   0  0  0  0  0  0  0  0  0  0  0  0
    9.4990    0.3464   21.6712 N   0  0  0  0  0  0  0  0  0  0  0  0
    9.8511    1.4019   22.3859 C   0  0  0  0  0  0  0  0  0  0  0  0
   11.2363    1.9283   22.5109 C   0  0  0  0  0  0  0  0  0  0  0  0
   12.3751    1.0893   22.5606 C   0  0  0  0  0  0  0  0  0  0  0  0
   13.6235    1.6737   22.7746 C   0  0  0  0  0  0  0  0  0  0  0  0
   13.8454    2.9894   22.8571 N   0  0  0  0  0  0  0  0  0  0  0  0
   12.7794    3.7884   22.7449 C   0  0  0  0  0  0  0  0  0  0  0  0
   12.9723    5.1457   22.8545 N   0  0  0  0  0  0  0  0  0  0  0  0
   14.2442    5.7180   22.4404 C   0  0  0  0  0  0  0  0  0  0  0  0
   15.0795    5.2672   22.9878 H   0  0  0  0  0  0  0  0  0  0  0  0
   14.2386    6.7983   22.6244 H   0  0  0  0  0  0  0  0  0  0  0  0
   14.4232    5.5491   21.3698 H   0  0  0  0  0  0  0  0  0  0  0  0
   11.9162    5.9592   23.4279 C   0  0  0  0  0  0  0  0  0  0  0  0
   11.4233    5.4698   24.2802 H   0  0  0  0  0  0  0  0  0  0  0  0
   11.1211    6.1723   22.7048 H   0  0  0  0  0  0  0  0  0  0  0  0
   12.3197    6.9150   23.7710 H   0  0  0  0  0  0  0  0  0  0  0  0
   11.4683    3.3008   22.5678 C   0  0  0  0  0  0  0  0  0  0  0  0
   10.6811    4.0305   22.4448 H   0  0  0  0  0  0  0  0  0  0  0  0
   14.5012    1.0352   22.8776 H   0  0  0  0  0  0  0  0  0  0  0  0
   12.3017    0.0142   22.4299 H   0  0  0  0  0  0  0  0  0  0  0  0
    9.8377    2.2856   25.3535 H   0  0  0  0  0  0  0  0  0  0  0  0
    9.5342    4.2351   26.9034 H   0  0  0  0  0  0  0  0  0  0  0  0
    8.1610    6.1566   26.2330 H   0  0  0  0  0  0  0  0  0  0  0  0
    7.0691    6.1770   23.9959 H   0  0  0  0  0  0  0  0  0  0  0  0
    7.3714    3.5884   21.4214 H   0  0  0  0  0  0  0  0  0  0  0  0
    6.9347    5.2679   21.7512 H   0  0  0  0  0  0  0  0  0  0  0  0
    5.0170    4.4450   23.2128 H   0  0  0  0  0  0  0  0  0  0  0  0
    4.8680    3.8981   21.5333 H   0  0  0  0  0  0  0  0  0  0  0  0
    5.4556    2.7795   22.7834 H   0  0  0  0  0  0  0  0  0  0  0  0
  1  2  1  0
  2  3  1  0
  3  4  2  0
  4  5  1  0
  5  6  2  0
  6  7  1  0
  7  8  2  0
  8  9  1  0
  9 10  1  0
 10 11  2  0
 11 12  1  0
 12 13  1  0
 13 14  2  0
 14 15  1  0
 15 16  2  0
 16 17  1  0
 17 18  2  0
 18 19  1  0
 16 20  1  0
 15 21  1  0
 14 22  1  0
 12 23  1  0
 12 24  1  0
 11 25  1  0
 25 26  2  0
 26 27  1  0
 27 28  2  0
 28 29  1  0
 29 30  2  0
 30 31  1  0
 31 32  1  0
 32 33  1  0
 33 34  1  0
 33 35  1  0
 33 36  1  0
 32 37  1  0
 37 38  1  0
 37 39  1  0
 37 40  1  0
 31 41  2  0
 41 42  1  0
 29 43  1  0
 28 44  1  0
  7 45  1  0
  6 46  1  0
  5 47  1  0
  4 48  1  0
  2 49  1  0
  2 50  1  0
  1 51  1  0
  1 52  1  0
  1 53  1  0
  8  3  1  0
 26  9  1  0
 41 27  1  0
 18 13  1  0
M  END
>  <cnnaffinity>  (1) 
-6.23332

>  <filename>  (1) 
CCc1ccccc1-n1nc(Cc2cccnc2)nc1-c1ccnc(N(C)C)c1

$$$$
