
     RDKit          3D

 48 52  0  0  0  0  0  0  0  0999 V2000
    9.2269    0.1051   26.0272 C   0  0  0  0  0  0  0  0  0  0  0  0
    9.9485    1.3240   25.4417 C   0  0  0  0  0  0  0  0  0  0  0  0
    9.0690    2.5294   25.1159 C   0  0  0  0  0  0  0  0  0  0  0  0
    8.6608    3.3851   26.1546 C   0  0  0  0  0  0  0  0  0  0  0  0
    8.0592    4.6208   25.8969 C   0  0  0  0  0  0  0  0  0  0  0  0
    7.8383    5.0318   24.5805 C   0  0  0  0  0  0  0  0  0  0  0  0
    8.1664    4.1669   23.5324 C   0  0  0  0  0  0  0  0  0  0  0  0
    8.6830    2.8966   23.8087 C   0  0  0  0  0  0  0  0  0  0  0  0
    8.7677    1.9663   22.7175 N   0  0  0  0  0  0  0  0  0  0  0  0
    7.6779    1.2452   22.3527 N   0  0  0  0  0  0  0  0  0  0  0  0
    8.1796    0.3594   21.5167 C   0  0  0  0  0  0  0  0  0  0  0  0
    7.3200   -0.6676   20.8365 C   0  0  0  0  0  0  0  0  0  0  0  0
    6.5353   -0.0834   19.6705 C   0  0  0  0  0  0  0  0  0  0  0  0
    5.3562    0.6329   19.9130 C   0  0  0  0  0  0  0  0  0  0  0  0
    4.7566    1.3231   18.8577 C   0  0  0  0  0  0  0  0  0  0  0  0
    5.3612    1.2697   17.5986 C   0  0  0  0  0  0  0  0  0  0  0  0
    6.4659    0.5560   17.3336 N   0  0  0  0  0  0  0  0  0  0  0  0
    7.0279   -0.1008   18.3552 C   0  0  0  0  0  0  0  0  0  0  0  0
    7.9328   -0.6632   18.1214 H   0  0  0  0  0  0  0  0  0  0  0  0
    4.9443    1.8265   16.7627 H   0  0  0  0  0  0  0  0  0  0  0  0
    3.8624    1.9196   19.0038 H   0  0  0  0  0  0  0  0  0  0  0  0
    4.9488    0.6715   20.9259 H   0  0  0  0  0  0  0  0  0  0  0  0
    6.6313   -1.0731   21.5876 H   0  0  0  0  0  0  0  0  0  0  0  0
    7.9827   -1.4766   20.5189 H   0  0  0  0  0  0  0  0  0  0  0  0
    9.5179    0.4495   21.3209 N   0  0  0  0  0  0  0  0  0  0  0  0
    9.8663    1.4786   22.0836 C   0  0  0  0  0  0  0  0  0  0  0  0
   11.2163    2.0623   22.2962 C   0  0  0  0  0  0  0  0  0  0  0  0
   11.4569    3.4364   22.4593 C   0  0  0  0  0  0  0  0  0  0  0  0
   12.7465    3.9158   22.7655 C   0  0  0  0  0  0  0  0  0  0  0  0
   13.8243    3.1525   22.9408 N   0  0  0  0  0  0  0  0  0  0  0  0
   13.5891    1.8484   22.7447 C   0  0  0  0  0  0  0  0  0  0  0  0
   12.3640    1.2322   22.4051 C   0  0  0  0  0  0  0  0  0  0  0  0
   12.7089   -0.1507   22.3205 C   0  0  0  0  0  0  0  0  0  0  0  0
   13.9861   -0.3629   22.5644 N   0  0  0  0  0  0  0  0  0  0  0  0
   14.5007    0.8612   22.8128 N   0  0  0  0  0  0  0  0  0  0  0  0
   15.4604    1.0208   23.0655 H   0  0  0  0  0  0  0  0  0  0  0  0
   12.0580   -0.9853   22.0993 H   0  0  0  0  0  0  0  0  0  0  0  0
   12.8997    4.9841   22.8839 H   0  0  0  0  0  0  0  0  0  0  0  0
   10.6605    4.1639   22.3658 H   0  0  0  0  0  0  0  0  0  0  0  0
    8.0525    4.4661   22.4950 H   0  0  0  0  0  0  0  0  0  0  0  0
    7.3948    5.9989   24.3539 H   0  0  0  0  0  0  0  0  0  0  0  0
    7.7941    5.2741   26.7230 H   0  0  0  0  0  0  0  0  0  0  0  0
    8.8157    3.0614   27.1777 H   0  0  0  0  0  0  0  0  0  0  0  0
   10.7196    1.6507   26.1490 H   0  0  0  0  0  0  0  0  0  0  0  0
   10.5134    1.0164   24.5568 H   0  0  0  0  0  0  0  0  0  0  0  0
    9.9493   -0.7008   26.2066 H   0  0  0  0  0  0  0  0  0  0  0  0
    8.7391    0.3406   26.9808 H   0  0  0  0  0  0  0  0  0  0  0  0
    8.4659   -0.2768   25.3366 H   0  0  0  0  0  0  0  0  0  0  0  0
  1  2  1  0
  2  3  1  0
  3  4  2  0
  4  5  1  0
  5  6  2  0
  6  7  1  0
  7  8  2  0
  8  9  1  0
  9 10  1  0
 10 11  2  0
 11 12  1  0
 12 13  1  0
 13 14  2  0
 14 15  1  0
 15 16  2  0
 16 17  1  0
 17 18  2  0
 18 19  1  0
 16 20  1  0
 15 21  1  0
 14 22  1  0
 12 23  1  0
 12 24  1  0
 11 25  1  0
 25 26  2  0
 26 27  1  0
 27 28  2  0
 28 29  1  0
 29 30  2  0
 30 31  1  0
 31 32  2  0
 32 33  1  0
 33 34  2  0
 34 35  1  0
 35 36  1  0
 33 37  1  0
 29 38  1  0
 28 39  1  0
  7 40  1  0
  6 41  1  0
  5 42  1  0
  4 43  1  0
  2 44  1  0
  2 45  1  0
  1 46  1  0
  1 47  1  0
  1 48  1  0
  8  3  1  0
 26  9  1  0
 32 27  1  0
 18 13  1  0
 35 31  1  0
M  END
>  <cnnaffinity>  (1) 
-6.87228

>  <filename>  (1) 
CCc1ccccc1-n1nc(Cc2cccnc2)nc1-c1ccnc2[nH]ncc12

$$$$
