
     RDKit          3D

 35 37  0  0  0  0  0  0  0  0999 V2000
   10.6631   -2.2495   22.5743 C   0  0  0  0  0  0  0  0  0  0  0  0
    9.2308   -2.8290   22.5743 C   0  0  0  0  0  0  0  0  0  0  0  0
    8.1919   -1.7977   22.2546 C   0  0  0  0  0  0  0  0  0  0  0  0
    7.7730   -1.5210   21.0396 N   0  0  0  0  0  0  0  0  0  0  0  0
    7.0555   -0.3723   21.2078 N   0  0  0  0  0  0  0  0  0  0  0  0
    6.4669    0.2300   20.0645 C   0  0  0  0  0  0  0  0  0  0  0  0
    5.2823    0.9775   20.1159 C   0  0  0  0  0  0  0  0  0  0  0  0
    4.7943    1.5182   18.9184 C   0  0  0  0  0  0  0  0  0  0  0  0
    5.4988    1.3025   17.7312 C   0  0  0  0  0  0  0  0  0  0  0  0
    6.6279    0.5748   17.6732 N   0  0  0  0  0  0  0  0  0  0  0  0
    7.0853    0.0468   18.8102 C   0  0  0  0  0  0  0  0  0  0  0  0
    7.9913   -0.5552   18.7503 H   0  0  0  0  0  0  0  0  0  0  0  0
    5.1460    1.7167   16.7887 H   0  0  0  0  0  0  0  0  0  0  0  0
    3.8884    2.1146   18.8977 H   0  0  0  0  0  0  0  0  0  0  0  0
    4.7549    1.1244   21.0587 H   0  0  0  0  0  0  0  0  0  0  0  0
    7.1656    0.0234   22.5180 C   0  0  0  0  0  0  0  0  0  0  0  0
    6.9982    1.4040   23.1170 C   0  0  0  0  0  0  0  0  0  0  0  0
    8.3498    1.8732   23.6793 C   0  0  0  0  0  0  0  0  0  0  0  0
    8.6543    1.7976   25.0481 C   0  0  0  0  0  0  0  0  0  0  0  0
    9.8773    1.9417   25.5694 N   0  0  0  0  0  0  0  0  0  0  0  0
   10.8911    2.1597   24.7260 C   0  0  0  0  0  0  0  0  0  0  0  0
   10.7332    2.2812   23.3501 C   0  0  0  0  0  0  0  0  0  0  0  0
    9.4427    2.1396   22.8395 C   0  0  0  0  0  0  0  0  0  0  0  0
    9.2064    2.2645   21.1286 Cl  0  0  0  0  0  0  0  0  0  0  0  0
   11.5795    2.4741   22.7007 H   0  0  0  0  0  0  0  0  0  0  0  0
   11.8764    2.2478   25.1794 H   0  0  0  0  0  0  0  0  0  0  0  0
    7.8536    1.5911   25.7592 H   0  0  0  0  0  0  0  0  0  0  0  0
    6.6200    2.1173   22.3753 H   0  0  0  0  0  0  0  0  0  0  0  0
    6.2682    1.3291   23.9295 H   0  0  0  0  0  0  0  0  0  0  0  0
    7.7838   -0.9255   23.2062 N   0  0  0  0  0  0  0  0  0  0  0  0
    9.0035   -3.2041   23.5752 H   0  0  0  0  0  0  0  0  0  0  0  0
    9.1086   -3.6512   21.8662 H   0  0  0  0  0  0  0  0  0  0  0  0
   11.3857   -2.9961   22.9181 H   0  0  0  0  0  0  0  0  0  0  0  0
   10.7225   -1.4186   23.2886 H   0  0  0  0  0  0  0  0  0  0  0  0
   10.9970   -1.8801   21.5963 H   0  0  0  0  0  0  0  0  0  0  0  0
  1  2  1  0
  2  3  1  0
  3  4  2  0
  4  5  1  0
  5  6  1  0
  6  7  2  0
  7  8  1  0
  8  9  2  0
  9 10  1  0
 10 11  2  0
 11 12  1  0
  9 13  1  0
  8 14  1  0
  7 15  1  0
  5 16  1  0
 16 17  1  0
 17 18  1  0
 18 19  2  0
 19 20  1  0
 20 21  2  0
 21 22  1  0
 22 23  2  0
 23 24  1  0
 22 25  1  0
 21 26  1  0
 19 27  1  0
 17 28  1  0
 17 29  1  0
 16 30  2  0
  2 31  1  0
  2 32  1  0
  1 33  1  0
  1 34  1  0
  1 35  1  0
 30  3  1  0
 11  6  1  0
 23 18  1  0
M  END
>  <cnnaffinity>  (1) 
-5.81372

>  <filename>  (1) 
CCc1nc(Cc2cnccc2Cl)n(-c2cccnc2)n1

$$$$
