
     RDKit          3D

 38 40  0  0  0  0  0  0  0  0999 V2000
   11.2325   -1.6065   22.6651 C   0  0  0  0  0  0  0  0  0  0  0  0
   10.0317   -2.4520   22.2156 C   0  0  0  0  0  0  0  0  0  0  0  0
    8.7612   -1.7071   21.9721 C   0  0  0  0  0  0  0  0  0  0  0  0
    8.4227   -1.2529   20.7805 N   0  0  0  0  0  0  0  0  0  0  0  0
    7.2402   -0.6304   21.0029 C   0  0  0  0  0  0  0  0  0  0  0  0
    6.5257    0.0492   19.9302 C   0  0  0  0  0  0  0  0  0  0  0  0
    5.3104    0.7266   20.1132 C   0  0  0  0  0  0  0  0  0  0  0  0
    4.7483    1.3609   19.0093 C   0  0  0  0  0  0  0  0  0  0  0  0
    5.4175    1.3089   17.7783 C   0  0  0  0  0  0  0  0  0  0  0  0
    6.5764    0.6583   17.5948 N   0  0  0  0  0  0  0  0  0  0  0  0
    7.1096    0.0476   18.6565 C   0  0  0  0  0  0  0  0  0  0  0  0
    8.0492   -0.4752   18.5080 H   0  0  0  0  0  0  0  0  0  0  0  0
    5.0081    1.8093   16.9031 H   0  0  0  0  0  0  0  0  0  0  0  0
    3.8174    1.9110   19.0851 H   0  0  0  0  0  0  0  0  0  0  0  0
    4.8375    0.7591   21.0984 H   0  0  0  0  0  0  0  0  0  0  0  0
    6.8215   -0.6903   22.2517 N   0  0  0  0  0  0  0  0  0  0  0  0
    7.8044   -1.3849   22.8716 N   0  0  0  0  0  0  0  0  0  0  0  0
    7.6411   -1.7890   24.2641 C   0  0  0  0  0  0  0  0  0  0  0  0
    6.9328   -3.1464   24.4056 C   0  0  0  0  0  0  0  0  0  0  0  0
    6.8487   -3.6031   25.8433 C   0  0  0  0  0  0  0  0  0  0  0  0
    5.7512   -3.2892   26.6520 C   0  0  0  0  0  0  0  0  0  0  0  0
    5.6587   -3.8321   27.9366 C   0  0  0  0  0  0  0  0  0  0  0  0
    6.5920   -4.6318   28.4728 N   0  0  0  0  0  0  0  0  0  0  0  0
    7.6675   -4.8972   27.7189 C   0  0  0  0  0  0  0  0  0  0  0  0
    7.8458   -4.3985   26.4229 C   0  0  0  0  0  0  0  0  0  0  0  0
    8.7548   -4.6418   25.8863 H   0  0  0  0  0  0  0  0  0  0  0  0
    8.4137   -5.5602   28.1573 H   0  0  0  0  0  0  0  0  0  0  0  0
    4.7796   -3.6347   28.5516 H   0  0  0  0  0  0  0  0  0  0  0  0
    4.9663   -2.6275   26.2996 H   0  0  0  0  0  0  0  0  0  0  0  0
    5.9221   -3.0713   23.9780 H   0  0  0  0  0  0  0  0  0  0  0  0
    7.4756   -3.8961   23.8111 H   0  0  0  0  0  0  0  0  0  0  0  0
    8.6287   -1.8218   24.7398 H   0  0  0  0  0  0  0  0  0  0  0  0
    7.0597   -1.0100   24.7615 H   0  0  0  0  0  0  0  0  0  0  0  0
    9.8455   -3.2799   22.9146 H   0  0  0  0  0  0  0  0  0  0  0  0
   10.2655   -2.8791   21.2433 H   0  0  0  0  0  0  0  0  0  0  0  0
   11.0852   -1.2238   23.6823 H   0  0  0  0  0  0  0  0  0  0  0  0
   12.1421   -2.2162   22.6142 H   0  0  0  0  0  0  0  0  0  0  0  0
   11.3953   -0.7480   22.0049 H   0  0  0  0  0  0  0  0  0  0  0  0
  1  2  1  0
  2  3  1  0
  3  4  2  0
  4  5  1  0
  5  6  1  0
  6  7  2  0
  7  8  1  0
  8  9  2  0
  9 10  1  0
 10 11  2  0
 11 12  1  0
  9 13  1  0
  8 14  1  0
  7 15  1  0
  5 16  2  0
 16 17  1  0
 17 18  1  0
 18 19  1  0
 19 20  1  0
 20 21  2  0
 21 22  1  0
 22 23  2  0
 23 24  1  0
 24 25  2  0
 25 26  1  0
 24 27  1  0
 22 28  1  0
 21 29  1  0
 19 30  1  0
 19 31  1  0
 18 32  1  0
 18 33  1  0
  2 34  1  0
  2 35  1  0
  1 36  1  0
  1 37  1  0
  1 38  1  0
 17  3  1  0
 25 20  1  0
 11  6  1  0
M  END
>  <cnnaffinity>  (1) 
-5.4337

>  <filename>  (1) 
CCc1nc(-c2cccnc2)nn1CCc1ccncc1

$$$$
