
     RDKit          3D

 48 52  0  0  0  0  0  0  0  0999 V2000
    9.2957    0.0726   26.0055 C   0  0  0  0  0  0  0  0  0  0  0  0
    9.9921    1.3113   25.4230 C   0  0  0  0  0  0  0  0  0  0  0  0
    9.1251    2.5283   25.0887 C   0  0  0  0  0  0  0  0  0  0  0  0
    8.7240    3.3860   26.1278 C   0  0  0  0  0  0  0  0  0  0  0  0
    8.1626    4.6411   25.8767 C   0  0  0  0  0  0  0  0  0  0  0  0
    7.9618    5.0544   24.5555 C   0  0  0  0  0  0  0  0  0  0  0  0
    8.2401    4.1729   23.5029 C   0  0  0  0  0  0  0  0  0  0  0  0
    8.7504    2.8964   23.7738 C   0  0  0  0  0  0  0  0  0  0  0  0
    8.8164    1.9329   22.7002 N   0  0  0  0  0  0  0  0  0  0  0  0
    7.7054    1.2231   22.3716 N   0  0  0  0  0  0  0  0  0  0  0  0
    8.1716    0.3168   21.5350 C   0  0  0  0  0  0  0  0  0  0  0  0
    7.3001   -0.7073   20.8600 C   0  0  0  0  0  0  0  0  0  0  0  0
    6.5181   -0.1046   19.7010 C   0  0  0  0  0  0  0  0  0  0  0  0
    5.3360    0.6040   19.9524 C   0  0  0  0  0  0  0  0  0  0  0  0
    4.7474    1.3271   18.9126 C   0  0  0  0  0  0  0  0  0  0  0  0
    5.3632    1.3111   17.6579 C   0  0  0  0  0  0  0  0  0  0  0  0
    6.4733    0.6085   17.3838 N   0  0  0  0  0  0  0  0  0  0  0  0
    7.0248   -0.0806   18.3902 C   0  0  0  0  0  0  0  0  0  0  0  0
    7.9286   -0.6411   18.1453 H   0  0  0  0  0  0  0  0  0  0  0  0
    4.9525    1.8908   16.8340 H   0  0  0  0  0  0  0  0  0  0  0  0
    3.8552    1.9243   19.0684 H   0  0  0  0  0  0  0  0  0  0  0  0
    4.9146    0.6109   20.9604 H   0  0  0  0  0  0  0  0  0  0  0  0
    7.9478   -1.5259   20.5298 H   0  0  0  0  0  0  0  0  0  0  0  0
    6.6157   -1.1179   21.6109 H   0  0  0  0  0  0  0  0  0  0  0  0
    9.5009    0.3847   21.3024 N   0  0  0  0  0  0  0  0  0  0  0  0
    9.8978    1.3899   22.0674 C   0  0  0  0  0  0  0  0  0  0  0  0
   11.2546    1.9381   22.2619 C   0  0  0  0  0  0  0  0  0  0  0  0
   11.5067    3.3142   22.4652 C   0  0  0  0  0  0  0  0  0  0  0  0
   12.7931    3.7853   22.7508 C   0  0  0  0  0  0  0  0  0  0  0  0
   13.8835    3.0108   22.8646 N   0  0  0  0  0  0  0  0  0  0  0  0
   13.6200    1.7244   22.6591 C   0  0  0  0  0  0  0  0  0  0  0  0
   12.3892    1.1014   22.3475 C   0  0  0  0  0  0  0  0  0  0  0  0
   12.5622   -0.2701   22.2573 N   0  0  0  0  0  0  0  0  0  0  0  0
   13.8355   -0.4521   22.4736 C   0  0  0  0  0  0  0  0  0  0  0  0
   14.5219    0.7042   22.7139 N   0  0  0  0  0  0  0  0  0  0  0  0
   15.5044    0.8634   22.8203 H   0  0  0  0  0  0  0  0  0  0  0  0
   14.3107   -1.4232   22.4904 H   0  0  0  0  0  0  0  0  0  0  0  0
   12.9377    4.8465   22.9212 H   0  0  0  0  0  0  0  0  0  0  0  0
   10.7019    4.0359   22.4167 H   0  0  0  0  0  0  0  0  0  0  0  0
    8.0805    4.4689   22.4697 H   0  0  0  0  0  0  0  0  0  0  0  0
    7.5712    6.0467   24.3462 H   0  0  0  0  0  0  0  0  0  0  0  0
    7.8942    5.3005   26.6988 H   0  0  0  0  0  0  0  0  0  0  0  0
    8.8493    3.0389   27.1492 H   0  0  0  0  0  0  0  0  0  0  0  0
   10.7510    1.6223   26.1531 H   0  0  0  0  0  0  0  0  0  0  0  0
   10.5578    1.0006   24.5392 H   0  0  0  0  0  0  0  0  0  0  0  0
    8.5344   -0.3433   25.3356 H   0  0  0  0  0  0  0  0  0  0  0  0
    8.8247    0.2786   26.9739 H   0  0  0  0  0  0  0  0  0  0  0  0
   10.0526   -0.7078   26.1583 H   0  0  0  0  0  0  0  0  0  0  0  0
  1  2  1  0
  2  3  1  0
  3  4  2  0
  4  5  1  0
  5  6  2  0
  6  7  1  0
  7  8  2  0
  8  9  1  0
  9 10  1  0
 10 11  2  0
 11 12  1  0
 12 13  1  0
 13 14  2  0
 14 15  1  0
 15 16  2  0
 16 17  1  0
 17 18  2  0
 18 19  1  0
 16 20  1  0
 15 21  1  0
 14 22  1  0
 12 23  1  0
 12 24  1  0
 11 25  1  0
 25 26  2  0
 26 27  1  0
 27 28  2  0
 28 29  1  0
 29 30  2  0
 30 31  1  0
 31 32  2  0
 32 33  1  0
 33 34  2  0
 34 35  1  0
 35 36  1  0
 34 37  1  0
 29 38  1  0
 28 39  1  0
  7 40  1  0
  6 41  1  0
  5 42  1  0
  4 43  1  0
  2 44  1  0
  2 45  1  0
  1 46  1  0
  1 47  1  0
  1 48  1  0
  8  3  1  0
 26  9  1  0
 32 27  1  0
 18 13  1  0
 35 31  1  0
M  END
>  <cnnaffinity>  (1) 
-6.85233

>  <filename>  (1) 
CCc1ccccc1-n1nc(Cc2cccnc2)nc1-c1ccnc2[nH]cnc12

$$$$
