
     RDKit          3D

 55 59  0  0  0  0  0  0  0  0999 V2000
    6.6592    5.8212   21.3114 C   0  0  0  0  0  0  0  0  0  0  0  0
    6.9930    4.5800   22.1347 C   0  0  0  0  0  0  0  0  0  0  0  0
    7.0790    4.9194   23.6070 C   0  0  0  0  0  0  0  0  0  0  0  0
    7.3469    3.7567   24.4858 N   0  0  0  0  0  4  0  0  0  0  0  0
    7.2576    4.1417   25.9225 C   0  0  0  0  0  0  0  0  0  0  0  0
    8.0704    3.1009   26.6868 C   0  0  0  0  0  0  0  0  0  0  0  0
    8.8537    2.2878   25.6453 C   0  0  0  0  0  0  0  0  0  0  0  0
    8.6922    3.0205   24.2978 C   0  0  1  0  0  0  0  0  0  0  0  0
    8.7013    2.0802   23.1103 C   0  0  0  0  0  0  0  0  0  0  0  0
    7.6897    1.3245   22.6995 N   0  0  0  0  0  0  0  0  0  0  0  0
    8.2633    0.5022   21.7764 C   0  0  0  0  0  0  0  0  0  0  0  0
    7.5304   -0.5325   20.9602 C   0  0  0  0  0  0  0  0  0  0  0  0
    6.7320    0.0392   19.7914 C   0  0  0  0  0  0  0  0  0  0  0  0
    5.5150    0.6863   20.0366 C   0  0  0  0  0  0  0  0  0  0  0  0
    4.8509    1.3082   18.9777 C   0  0  0  0  0  0  0  0  0  0  0  0
    5.4254    1.2579   17.7054 C   0  0  0  0  0  0  0  0  0  0  0  0
    6.5719    0.6135   17.4378 N   0  0  0  0  0  0  0  0  0  0  0  0
    7.1959    0.0187   18.4618 C   0  0  0  0  0  0  0  0  0  0  0  0
    8.1309   -0.4904   18.2208 H   0  0  0  0  0  0  0  0  0  0  0  0
    4.9475    1.7561   16.8639 H   0  0  0  0  0  0  0  0  0  0  0  0
    3.9211    1.8442   19.1274 H   0  0  0  0  0  0  0  0  0  0  0  0
    5.1120    0.7107   21.0503 H   0  0  0  0  0  0  0  0  0  0  0  0
    6.8665   -1.0866   21.6343 H   0  0  0  0  0  0  0  0  0  0  0  0
    8.2891   -1.2339   20.5995 H   0  0  0  0  0  0  0  0  0  0  0  0
    9.5589    0.6862   21.6132 N   0  0  0  0  0  0  0  0  0  0  0  0
    9.8328    1.7369   22.4335 N   0  0  0  0  0  0  0  0  0  0  0  0
   11.1157    2.3331   22.4922 C   0  0  0  0  0  0  0  0  0  0  0  0
   11.3152    3.7130   22.4284 C   0  0  0  0  0  0  0  0  0  0  0  0
   12.6076    4.2718   22.5192 C   0  0  0  0  0  0  0  0  0  0  0  0
   13.7161    3.4682   22.7712 C   0  0  0  0  0  0  0  0  0  0  0  0
   13.5393    2.0684   22.8021 C   0  0  0  0  0  0  0  0  0  0  0  0
   12.2577    1.5243   22.6155 C   0  0  0  0  0  0  0  0  0  0  0  0
   12.4476    0.1633   22.6287 N   0  0  0  0  0  0  0  0  0  0  0  0
   13.7781   -0.0513   22.8262 C   0  0  0  0  0  0  0  0  0  0  0  0
   14.4687    1.0473   22.9365 N   0  0  0  0  0  0  0  0  0  0  0  0
   14.1924   -1.0491   22.8854 H   0  0  0  0  0  0  0  0  0  0  0  0
   11.7203   -0.5218   22.5278 H   0  0  0  0  0  0  0  0  0  0  0  0
   14.7028    3.8845   22.9221 H   0  0  0  0  0  0  0  0  0  0  0  0
   12.7272    5.3473   22.4021 H   0  0  0  0  0  0  0  0  0  0  0  0
   10.4672    4.3734   22.2951 H   0  0  0  0  0  0  0  0  0  0  0  0
    9.4625    3.7880   24.1847 H   0  0  0  0  0  0  0  0  0  0  0  0
    9.9095    2.1642   25.9034 H   0  0  0  0  0  0  0  0  0  0  0  0
    8.4229    1.2847   25.5642 H   0  0  0  0  0  0  0  0  0  0  0  0
    8.7277    3.6435   27.3556 H   0  0  0  0  0  0  0  0  0  0  0  0
    7.4376    2.4537   27.3010 H   0  0  0  0  0  0  0  0  0  0  0  0
    7.7155    5.1333   26.0433 H   0  0  0  0  0  0  0  0  0  0  0  0
    6.2166    4.2214   26.2519 H   0  0  0  0  0  0  0  0  0  0  0  0
    6.6293    3.0120   24.2807 H   0  0  0  0  0  0  0  0  0  0  0  0
    7.8767    5.6676   23.7429 H   0  0  0  0  0  0  0  0  0  0  0  0
    6.1471    5.4133   23.9232 H   0  0  0  0  0  0  0  0  0  0  0  0
    7.9414    4.1429   21.7966 H   0  0  0  0  0  0  0  0  0  0  0  0
    6.2388    3.8016   21.9880 H   0  0  0  0  0  0  0  0  0  0  0  0
    5.6788    6.2390   21.5686 H   0  0  0  0  0  0  0  0  0  0  0  0
    7.4055    6.6111   21.4510 H   0  0  0  0  0  0  0  0  0  0  0  0
    6.6401    5.5847   20.2511 H   0  0  0  0  0  0  0  0  0  0  0  0
  1  2  1  0
  2  3  1  0
  3  4  1  0
  4  5  1  0
  5  6  1  0
  6  7  1  0
  7  8  1  0
  8  9  1  0
  9 10  2  0
 10 11  1  0
 11 12  1  0
 12 13  1  0
 13 14  2  0
 14 15  1  0
 15 16  2  0
 16 17  1  0
 17 18  2  0
 18 19  1  0
 16 20  1  0
 15 21  1  0
 14 22  1  0
 12 23  1  0
 12 24  1  0
 11 25  2  0
 25 26  1  0
 26 27  1  0
 27 28  2  0
 28 29  1  0
 29 30  2  0
 30 31  1  0
 31 32  2  0
 32 33  1  0
 33 34  1  0
 34 35  2  0
 34 36  1  0
 33 37  1  0
 30 38  1  0
 29 39  1  0
 28 40  1  0
  8 41  1  6
  7 42  1  0
  7 43  1  0
  6 44  1  0
  6 45  1  0
  5 46  1  0
  5 47  1  0
  4 48  1  0
  3 49  1  0
  3 50  1  0
  2 51  1  0
  2 52  1  0
  1 53  1  0
  1 54  1  0
  1 55  1  0
  8  4  1  0
 26  9  1  0
 32 27  1  0
 18 13  1  0
 35 31  1  0
M  CHG  1   4   1
M  END
>  <cnnaffinity>  (1) 
-6.52172

>  <filename>  (1) 
CCC[NH+]1CCC[C@H]1c1nc(Cc2cccnc2)nn1-c1cccc2nc[nH]c12

$$$$
