
     RDKit          3D

 39 40  0  0  0  0  0  0  0  0999 V2000
    6.1209   -4.2457   20.5870 C   0  0  0  0  0  0  0  0  0  0  0  0
    5.9010   -2.7489   20.8034 C   0  0  0  0  0  0  0  0  0  0  0  0
    7.2200   -2.0551   21.1352 C   0  0  0  0  0  0  0  0  0  0  0  0
    7.1211   -0.5320   21.3392 C   0  0  0  0  0  0  0  0  0  0  0  0
    8.4314   -0.0002   21.6200 N   0  0  0  0  0  0  0  0  0  0  0  0
    9.1681   -0.1984   22.7629 C   0  0  0  0  0  0  0  0  0  0  0  0
    8.7208   -0.8965   23.9004 C   0  0  0  0  0  0  0  0  0  0  0  0
    9.5430   -0.9814   25.0325 C   0  0  0  0  0  0  0  0  0  0  0  0
   10.8159   -0.3999   25.0307 C   0  0  0  0  0  0  0  0  0  0  0  0
   11.2675    0.1980   23.8518 C   0  0  0  0  0  0  0  0  0  0  0  0
   12.5827    0.6606   23.8829 O   0  0  0  0  0  0  0  0  0  0  0  0
   13.3143    0.6641   22.7503 C   0  0  0  0  0  0  0  0  0  0  0  0
   12.8359    1.5354   21.8382 F   0  0  0  0  0  0  0  0  0  0  0  0
   13.3891   -0.5367   22.1568 F   0  0  0  0  0  0  0  0  0  0  0  0
   14.5400    1.0437   23.0758 F   0  0  0  0  0  0  0  0  0  0  0  0
   10.4639    0.3338   22.7389 C   0  0  0  0  0  0  0  0  0  0  0  0
   10.8316    0.8307   21.8520 H   0  0  0  0  0  0  0  0  0  0  0  0
   11.4641   -0.3793   25.8980 H   0  0  0  0  0  0  0  0  0  0  0  0
    9.1878   -1.4996   25.9221 H   0  0  0  0  0  0  0  0  0  0  0  0
    7.7496   -1.3819   23.8767 H   0  0  0  0  0  0  0  0  0  0  0  0
    8.8186    0.6663   20.9764 H   0  0  0  0  0  0  0  0  0  0  0  0
    6.5568    0.1948   20.1311 C   0  0  0  0  0  0  0  0  0  0  0  0
    5.3154    0.8483   20.1673 C   0  0  0  0  0  0  0  0  0  0  0  0
    4.8188    1.4211   18.9930 C   0  0  0  0  0  0  0  0  0  0  0  0
    5.5744    1.3112   17.8216 C   0  0  0  0  0  0  0  0  0  0  0  0
    6.7700    0.7010   17.7651 N   0  0  0  0  0  0  0  0  0  0  0  0
    7.2479    0.1852   18.9086 C   0  0  0  0  0  0  0  0  0  0  0  0
    8.2356   -0.2773   18.8427 H   0  0  0  0  0  0  0  0  0  0  0  0
    5.1937    1.7111   16.8835 H   0  0  0  0  0  0  0  0  0  0  0  0
    3.8735    1.9573   18.9827 H   0  0  0  0  0  0  0  0  0  0  0  0
    4.7621    0.9273   21.1059 H   0  0  0  0  0  0  0  0  0  0  0  0
    6.4584   -0.3509   22.2052 H   0  0  0  0  0  0  0  0  0  0  0  0
    7.9617   -2.2392   20.3512 H   0  0  0  0  0  0  0  0  0  0  0  0
    7.6525   -2.4991   22.0423 H   0  0  0  0  0  0  0  0  0  0  0  0
    5.1974   -2.5952   21.6330 H   0  0  0  0  0  0  0  0  0  0  0  0
    5.4556   -2.2797   19.9099 H   0  0  0  0  0  0  0  0  0  0  0  0
    5.2138   -4.8374   20.7222 H   0  0  0  0  0  0  0  0  0  0  0  0
    6.4970   -4.4525   19.5838 H   0  0  0  0  0  0  0  0  0  0  0  0
    6.8584   -4.6394   21.2980 H   0  0  0  0  0  0  0  0  0  0  0  0
  1  2  1  0
  2  3  1  0
  3  4  1  0
  4  5  1  0
  5  6  1  0
  6  7  2  0
  7  8  1  0
  8  9  2  0
  9 10  1  0
 10 11  1  0
 11 12  1  0
 12 13  1  0
 12 14  1  0
 12 15  1  0
 10 16  2  0
 16 17  1  0
  9 18  1  0
  8 19  1  0
  7 20  1  0
  5 21  1  0
  4 22  1  0
 22 23  2  0
 23 24  1  0
 24 25  2  0
 25 26  1  0
 26 27  2  0
 27 28  1  0
 25 29  1  0
 24 30  1  0
 23 31  1  0
  4 32  1  0
  3 33  1  0
  3 34  1  0
  2 35  1  0
  2 36  1  0
  1 37  1  0
  1 38  1  0
  1 39  1  0
 16  6  1  0
 27 22  1  0
M  END
>  <cnnaffinity>  (1) 
-5.45386

>  <filename>  (1) 
CCCC(Nc1cccc(OC(F)(F)F)c1)c1cccnc1

$$$$
