
     RDKit          3D

 38 39  0  0  0  0  0  0  0  0999 V2000
    4.9953    1.7480   17.0118 H   0  0  0  0  0  0  0  0  0  0  0  0
    5.4485    1.2695   17.8770 C   0  0  0  0  0  0  0  0  0  0  0  0
    6.6112    0.6313   17.6701 N   0  0  0  0  0  0  0  0  0  0  0  0
    7.1825    0.0286   18.7156 C   0  0  0  0  0  0  0  0  0  0  0  0
    8.1218   -0.4872   18.5170 H   0  0  0  0  0  0  0  0  0  0  0  0
    6.6403    0.0528   20.0035 C   0  0  0  0  0  0  0  0  0  0  0  0
    7.4100   -0.6691   21.0537 C   0  0  0  0  0  0  0  0  0  0  0  0
    8.1133   -1.6339   20.7873 O   0  0  0  0  0  0  0  0  0  0  0  0
    7.3014   -0.1895   22.3281 N   0  0  0  0  0  0  0  0  0  0  0  0
    7.1070    1.1580   22.8879 C   0  0  0  0  0  0  0  0  0  0  0  0
    6.0538    1.4762   22.8983 H   0  0  0  0  0  0  0  0  0  0  0  0
    7.6992    1.9541   22.4104 H   0  0  0  0  0  0  0  0  0  0  0  0
    7.7141    0.6241   24.2243 C   0  0  0  0  0  0  0  0  0  0  0  0
    8.5974    1.1649   24.5682 H   0  0  0  0  0  0  0  0  0  0  0  0
    6.7867    0.5588   25.4180 C   0  0  0  0  0  0  0  0  0  0  0  0
    7.0769    1.0838   26.4805 O   0  0  0  0  0  0  0  0  0  0  0  0
    5.6122   -0.0943   25.2229 N   0  0  0  0  0  0  0  0  0  0  0  0
    5.4767   -0.5414   24.3305 H   0  0  0  0  0  0  0  0  0  0  0  0
    4.6626   -0.3287   26.3030 C   0  0  0  0  0  0  0  0  0  0  0  0
    3.7013   -0.6141   25.8585 H   0  0  0  0  0  0  0  0  0  0  0  0
    4.5090    0.6225   26.8231 H   0  0  0  0  0  0  0  0  0  0  0  0
    5.1279   -1.3807   27.3204 C   0  0  0  0  0  0  0  0  0  0  0  0
    5.3197   -2.3261   26.7989 H   0  0  0  0  0  0  0  0  0  0  0  0
    6.0902   -1.0555   27.7329 H   0  0  0  0  0  0  0  0  0  0  0  0
    4.1361   -1.6183   28.4675 C   0  0  0  0  0  0  0  0  0  0  0  0
    3.1662   -1.9245   28.0542 H   0  0  0  0  0  0  0  0  0  0  0  0
    3.9569   -0.6735   28.9992 H   0  0  0  0  0  0  0  0  0  0  0  0
    4.6135   -2.6669   29.4745 C   0  0  0  0  0  0  0  0  0  0  0  0
    3.8842   -2.8349   30.2752 H   0  0  0  0  0  0  0  0  0  0  0  0
    5.5447   -2.3511   29.9530 H   0  0  0  0  0  0  0  0  0  0  0  0
    4.7994   -3.6341   28.9931 H   0  0  0  0  0  0  0  0  0  0  0  0
    8.0321   -0.7079   23.4802 C   0  0  0  0  0  0  0  0  0  0  0  0
    7.6130   -1.6541   23.8512 H   0  0  0  0  0  0  0  0  0  0  0  0
    9.1022   -0.8636   23.2857 H   0  0  0  0  0  0  0  0  0  0  0  0
    5.4103    0.6992   20.2069 C   0  0  0  0  0  0  0  0  0  0  0  0
    4.9263    0.7121   21.1853 H   0  0  0  0  0  0  0  0  0  0  0  0
    4.8081    1.3185   19.1186 C   0  0  0  0  0  0  0  0  0  0  0  0
    3.8614    1.8355   19.2313 H   0  0  0  0  0  0  0  0  0  0  0  0
  1  2  1  0
  2  3  2  0
  3  4  1  0
  4  5  1  0
  4  6  2  0
  6  7  1  0
  7  8  2  0
  7  9  1  0
  9 10  1  0
 10 11  1  0
 10 12  1  0
 10 13  1  0
 13 14  1  0
 13 15  1  0
 15 16  2  0
 15 17  1  0
 17 18  1  0
 17 19  1  0
 19 20  1  0
 19 21  1  0
 19 22  1  0
 22 23  1  0
 22 24  1  0
 22 25  1  0
 25 26  1  0
 25 27  1  0
 25 28  1  0
 28 29  1  0
 28 30  1  0
 28 31  1  0
 13 32  1  0
 32 33  1  0
 32 34  1  0
  6 35  1  0
 35 36  1  0
 35 37  2  0
 37 38  1  0
 37  2  1  0
 32  9  1  0
M  END
>  <cnnaffinity>  (1) 
-4.43523

>  <filename>  (1) 
CCCCNC(=O)C1CN(C(=O)c2cccnc2)C1

$$$$
