
     RDKit          3D

 43 44  0  0  0  0  0  0  0  0999 V2000
    5.0235    1.8033   17.0133 H   0  0  0  0  0  0  0  0  0  0  0  0
    5.4881    1.2589   17.8330 C   0  0  0  0  0  0  0  0  0  0  0  0
    6.6187    0.5993   17.5385 N   0  0  0  0  0  0  0  0  0  0  0  0
    7.2001   -0.0965   18.5267 C   0  0  0  0  0  0  0  0  0  0  0  0
    8.1260   -0.6130   18.2697 H   0  0  0  0  0  0  0  0  0  0  0  0
    6.7084   -0.1544   19.8383 C   0  0  0  0  0  0  0  0  0  0  0  0
    7.4739   -0.8644   20.9112 C   0  0  0  0  0  0  0  0  0  0  0  0
    7.3225   -2.2949   20.9669 N   0  0  0  0  0  0  0  0  0  0  0  0
    8.0635   -2.8899   20.6512 H   0  0  0  0  0  0  0  0  0  0  0  0
    6.1618   -2.8891   21.3627 C   0  0  0  0  0  0  0  0  0  0  0  0
    5.1632   -2.2502   21.6096 O   0  0  0  0  0  0  0  0  0  0  0  0
    6.1812   -4.3986   21.4867 C   0  0  0  0  0  0  0  0  0  0  0  0
    5.1376   -4.7020   21.6253 H   0  0  0  0  0  0  0  0  0  0  0  0
    6.5234   -4.8011   20.5246 H   0  0  0  0  0  0  0  0  0  0  0  0
    7.0426   -4.9739   22.6306 C   0  0  0  0  0  0  0  0  0  0  0  0
    8.1011   -4.8282   22.3769 H   0  0  0  0  0  0  0  0  0  0  0  0
    6.8690   -6.0586   22.6440 H   0  0  0  0  0  0  0  0  0  0  0  0
    6.8003   -4.4066   24.0426 C   0  0  0  0  0  0  0  0  0  0  0  0
    7.5582   -4.8344   24.7155 H   0  0  0  0  0  0  0  0  0  0  0  0
    7.0114   -3.3258   24.0418 H   0  0  0  0  0  0  0  0  0  0  0  0
    5.4058   -4.6264   24.6579 C   0  0  0  0  0  0  0  0  0  0  0  0
    5.4020   -4.1422   25.6443 H   0  0  0  0  0  0  0  0  0  0  0  0
    4.6683   -4.0745   24.0585 H   0  0  0  0  0  0  0  0  0  0  0  0
    4.9579   -6.0855   24.8339 C   0  0  0  0  0  0  0  0  0  0  0  0
    5.7451   -6.6511   25.3513 H   0  0  0  0  0  0  0  0  0  0  0  0
    4.8442   -6.5657   23.8537 H   0  0  0  0  0  0  0  0  0  0  0  0
    3.6460   -6.2497   25.6100 C   0  0  0  0  0  0  0  0  0  0  0  0
    2.8485   -5.6774   25.1204 H   0  0  0  0  0  0  0  0  0  0  0  0
    3.7558   -5.8073   26.6080 H   0  0  0  0  0  0  0  0  0  0  0  0
    3.1874   -7.7008   25.7609 C   0  0  0  0  0  0  0  0  0  0  0  0
    3.0945   -8.1989   24.7898 H   0  0  0  0  0  0  0  0  0  0  0  0
    2.2102   -7.7563   26.2523 H   0  0  0  0  0  0  0  0  0  0  0  0
    3.8887   -8.2865   26.3630 H   0  0  0  0  0  0  0  0  0  0  0  0
    7.6690   -0.1863   22.2446 C   0  0  0  0  0  0  0  0  0  0  0  0
    7.6421   -0.8410   23.1073 H   0  0  0  0  0  0  0  0  0  0  0  0
    7.2205    0.7905   22.4062 H   0  0  0  0  0  0  0  0  0  0  0  0
    8.8240   -0.3312   21.2990 C   0  0  0  0  0  0  0  0  0  0  0  0
    9.5871   -1.0617   21.5456 H   0  0  0  0  0  0  0  0  0  0  0  0
    9.1815    0.5652   20.7989 H   0  0  0  0  0  0  0  0  0  0  0  0
    5.5014    0.5009   20.1089 C   0  0  0  0  0  0  0  0  0  0  0  0
    5.0769    0.4075   21.1090 H   0  0  0  0  0  0  0  0  0  0  0  0
    4.8853    1.2334   19.0959 C   0  0  0  0  0  0  0  0  0  0  0  0
    3.9637    1.7750   19.2753 H   0  0  0  0  0  0  0  0  0  0  0  0
  1  2  1  0
  2  3  2  0
  3  4  1  0
  4  5  1  0
  4  6  2  0
  6  7  1  0
  7  8  1  0
  8  9  1  0
  8 10  1  0
 10 11  2  0
 10 12  1  0
 12 13  1  0
 12 14  1  0
 12 15  1  0
 15 16  1  0
 15 17  1  0
 15 18  1  0
 18 19  1  0
 18 20  1  0
 18 21  1  0
 21 22  1  0
 21 23  1  0
 21 24  1  0
 24 25  1  0
 24 26  1  0
 24 27  1  0
 27 28  1  0
 27 29  1  0
 27 30  1  0
 30 31  1  0
 30 32  1  0
 30 33  1  0
  7 34  1  0
 34 35  1  0
 34 36  1  0
 34 37  1  0
 37 38  1  0
 37 39  1  0
  6 40  1  0
 40 41  1  0
 40 42  2  0
 42 43  1  0
 42  2  1  0
 37  7  1  0
M  END
>  <cnnaffinity>  (1) 
-5.08539

>  <filename>  (1) 
CCCCCCCC(=O)NC1(c2cccnc2)CC1

$$$$
