
     RDKit          3D

 39 39  0  0  0  0  0  0  0  0999 V2000
    7.7115   -1.7712   20.6938 H   0  0  0  0  0  0  0  0  0  0  0  0
    7.4244   -0.7399   20.8754 C   0  0  0  0  0  0  0  0  0  0  0  0
    7.8225   -0.1534   22.0585 C   0  0  0  0  0  0  0  0  0  0  0  0
    8.8310   -1.1976   23.3040 Br  0  0  0  0  0  0  0  0  0  0  0  0
    7.6196    1.3205   22.3271 C   0  0  0  0  0  0  0  0  0  0  0  0
    7.8783    1.5471   23.3670 H   0  0  0  0  0  0  0  0  0  0  0  0
    6.5714    1.5963   22.1815 H   0  0  0  0  0  0  0  0  0  0  0  0
    8.5038    2.1422   21.3795 C   0  0  0  0  0  0  0  0  0  0  0  0
    8.2367    1.9072   20.3431 H   0  0  0  0  0  0  0  0  0  0  0  0
    8.3266    3.2108   21.5392 H   0  0  0  0  0  0  0  0  0  0  0  0
    9.9862    1.8231   21.6144 C   0  0  0  0  0  0  0  0  0  0  0  0
   10.1567    0.7616   21.4022 H   0  0  0  0  0  0  0  0  0  0  0  0
   10.6037    2.4047   20.9220 H   0  0  0  0  0  0  0  0  0  0  0  0
   10.3959    2.1256   23.0663 C   0  0  0  0  0  0  0  0  0  0  0  0
    9.7293    1.5896   23.7447 H   0  0  0  0  0  0  0  0  0  0  0  0
   10.2724    3.1996   23.2618 H   0  0  0  0  0  0  0  0  0  0  0  0
   11.8451    1.6712   23.3528 C   0  0  0  0  0  0  0  0  0  0  0  0
   12.1725    2.0173   24.3369 H   0  0  0  0  0  0  0  0  0  0  0  0
   11.8844    0.5721   23.3501 H   0  0  0  0  0  0  0  0  0  0  0  0
   12.8142    2.2092   22.3040 C   0  0  0  0  0  0  0  0  0  0  0  0
   12.5476    1.7365   21.3601 H   0  0  0  0  0  0  0  0  0  0  0  0
   13.8444    1.9167   22.5385 H   0  0  0  0  0  0  0  0  0  0  0  0
   12.7061    3.7313   22.1339 C   0  0  0  0  0  0  0  0  0  0  0  0
   11.6562    4.0173   22.2387 H   0  0  0  0  0  0  0  0  0  0  0  0
   13.0339    4.0118   21.1269 H   0  0  0  0  0  0  0  0  0  0  0  0
   13.5436    4.5012   23.1515 C   0  0  0  0  0  0  0  0  0  0  0  0
   13.1834    4.3110   24.1645 H   0  0  0  0  0  0  0  0  0  0  0  0
   14.5964    4.2019   23.0800 H   0  0  0  0  0  0  0  0  0  0  0  0
   13.4654    5.5738   22.9461 H   0  0  0  0  0  0  0  0  0  0  0  0
    6.7038   -0.0120   19.8272 C   0  0  0  0  0  0  0  0  0  0  0  0
    7.1779   -0.0209   18.5066 C   0  0  0  0  0  0  0  0  0  0  0  0
    8.0927   -0.5650   18.2948 H   0  0  0  0  0  0  0  0  0  0  0  0
    6.5655    0.6332   17.4992 N   0  0  0  0  0  0  0  0  0  0  0  0
    5.4457    1.3198   17.7888 C   0  0  0  0  0  0  0  0  0  0  0  0
    4.9341    1.8500   16.9905 H   0  0  0  0  0  0  0  0  0  0  0  0
    4.9059    1.3725   19.0794 C   0  0  0  0  0  0  0  0  0  0  0  0
    3.9983    1.9368   19.2600 H   0  0  0  0  0  0  0  0  0  0  0  0
    5.5451    0.7038   20.1240 C   0  0  0  0  0  0  0  0  0  0  0  0
    5.1489    0.7237   21.1379 H   0  0  0  0  0  0  0  0  0  0  0  0
  1  2  1  0
  2  3  2  3
  3  4  1  0
  3  5  1  0
  5  6  1  0
  5  7  1  0
  5  8  1  0
  8  9  1  0
  8 10  1  0
  8 11  1  0
 11 12  1  0
 11 13  1  0
 11 14  1  0
 14 15  1  0
 14 16  1  0
 14 17  1  0
 17 18  1  0
 17 19  1  0
 17 20  1  0
 20 21  1  0
 20 22  1  0
 20 23  1  0
 23 24  1  0
 23 25  1  0
 23 26  1  0
 26 27  1  0
 26 28  1  0
 26 29  1  0
  2 30  1  0
 30 31  2  0
 31 32  1  0
 31 33  1  0
 33 34  2  0
 34 35  1  0
 34 36  1  0
 36 37  1  0
 36 38  2  0
 38 39  1  0
 38 30  1  0
M  END
>  <cnnaffinity>  (1) 
-5.07953

>  <filename>  (1) 
CCCCCCCCC(Br)=Cc1cccnc1

$$$$
