
     RDKit          3D

 41 42  0  0  0  0  0  0  0  0999 V2000
    4.9184    1.7802   16.9965 H   0  0  0  0  0  0  0  0  0  0  0  0
    5.4025    1.2908   17.8405 C   0  0  0  0  0  0  0  0  0  0  0  0
    6.5701    0.6750   17.5865 N   0  0  0  0  0  0  0  0  0  0  0  0
    7.1813    0.0527   18.5966 C   0  0  0  0  0  0  0  0  0  0  0  0
    8.1276   -0.4365   18.3753 H   0  0  0  0  0  0  0  0  0  0  0  0
    6.6535    0.0164   19.9022 C   0  0  0  0  0  0  0  0  0  0  0  0
    7.3522   -0.6437   20.9636 N   0  0  0  0  0  0  0  0  0  0  0  0
    8.1218   -1.7441   20.7363 N   0  0  0  0  0  0  0  0  0  0  0  0
    8.5947   -2.1144   21.8609 N   0  0  0  0  0  0  0  0  0  0  0  0
    8.1828   -1.3053   22.8737 N   0  0  0  0  0  0  0  0  0  0  0  0
    7.4195   -0.4010   22.2993 C   0  0  0  0  0  0  0  0  0  0  0  0
    6.7998    0.6404   22.8360 O   0  0  0  0  0  0  0  0  0  0  0  0
    6.8558    0.8312   24.2652 C   0  0  0  0  0  0  0  0  0  0  0  0
    7.8845    0.7138   24.6206 H   0  0  0  0  0  0  0  0  0  0  0  0
    6.5685    1.8746   24.4038 H   0  0  0  0  0  0  0  0  0  0  0  0
    5.9000   -0.1036   24.9887 C   0  0  0  0  0  0  0  0  0  0  0  0
    4.8724    0.1273   24.6804 H   0  0  0  0  0  0  0  0  0  0  0  0
    6.1062   -1.1269   24.6552 H   0  0  0  0  0  0  0  0  0  0  0  0
    6.0172   -0.0353   26.5178 C   0  0  0  0  0  0  0  0  0  0  0  0
    5.3494   -0.7889   26.9586 H   0  0  0  0  0  0  0  0  0  0  0  0
    7.0338   -0.3314   26.8098 H   0  0  0  0  0  0  0  0  0  0  0  0
    5.6930    1.3227   27.1503 C   0  0  0  0  0  0  0  0  0  0  0  0
    6.3962    2.0877   26.7934 H   0  0  0  0  0  0  0  0  0  0  0  0
    5.8619    1.2545   28.2340 H   0  0  0  0  0  0  0  0  0  0  0  0
    4.2635    1.7976   26.9046 C   0  0  0  0  0  0  0  0  0  0  0  0
    4.1038    1.9787   25.8328 H   0  0  0  0  0  0  0  0  0  0  0  0
    3.5604    0.9988   27.1790 H   0  0  0  0  0  0  0  0  0  0  0  0
    3.9145    3.0594   27.6801 C   0  0  0  0  0  0  0  0  0  0  0  0
    4.0577    2.8794   28.7552 H   0  0  0  0  0  0  0  0  0  0  0  0
    4.6214    3.8585   27.4162 H   0  0  0  0  0  0  0  0  0  0  0  0
    2.4895    3.5390   27.4325 C   0  0  0  0  0  0  0  0  0  0  0  0
    1.7868    2.7387   27.6990 H   0  0  0  0  0  0  0  0  0  0  0  0
    2.3510    3.7206   26.3589 H   0  0  0  0  0  0  0  0  0  0  0  0
    2.1520    4.8021   28.2140 C   0  0  0  0  0  0  0  0  0  0  0  0
    2.2586    4.6332   29.2918 H   0  0  0  0  0  0  0  0  0  0  0  0
    2.8285    5.6204   27.9410 H   0  0  0  0  0  0  0  0  0  0  0  0
    1.1262    5.1308   28.0216 H   0  0  0  0  0  0  0  0  0  0  0  0
    5.4344    0.6488   20.1646 C   0  0  0  0  0  0  0  0  0  0  0  0
    5.0124    0.6343   21.1688 H   0  0  0  0  0  0  0  0  0  0  0  0
    4.8058    1.3041   19.1040 C   0  0  0  0  0  0  0  0  0  0  0  0
    3.8768    1.8399   19.2605 H   0  0  0  0  0  0  0  0  0  0  0  0
  1  2  1  0
  2  3  2  0
  3  4  1  0
  4  5  1  0
  4  6  2  0
  6  7  1  0
  7  8  1  0
  8  9  2  0
  9 10  1  0
 10 11  2  0
 11 12  1  0
 12 13  1  0
 13 14  1  0
 13 15  1  0
 13 16  1  0
 16 17  1  0
 16 18  1  0
 16 19  1  0
 19 20  1  0
 19 21  1  0
 19 22  1  0
 22 23  1  0
 22 24  1  0
 22 25  1  0
 25 26  1  0
 25 27  1  0
 25 28  1  0
 28 29  1  0
 28 30  1  0
 28 31  1  0
 31 32  1  0
 31 33  1  0
 31 34  1  0
 34 35  1  0
 34 36  1  0
 34 37  1  0
  6 38  1  0
 38 39  1  0
 38 40  2  0
 40 41  1  0
 40  2  1  0
 11  7  1  0
M  END
>  <cnnaffinity>  (1) 
-5.07928

>  <filename>  (1) 
CCCCCCCCOc1nnnn1-c1cccnc1

$$$$
