
     RDKit          3D

 42 43  0  0  0  0  0  0  0  0999 V2000
    9.2972    2.2522   22.7561 C   0  0  0  0  0  0  0  0  0  0  0  0
    8.8376    1.3135   21.6420 C   0  0  0  0  0  0  0  0  0  0  0  0
    7.8634    0.2297   22.1207 C   0  0  0  0  0  0  0  0  0  0  0  0
    7.4271   -0.7266   20.9827 C   0  0  0  0  0  0  0  0  0  0  0  0
    6.6493   -1.8620   21.4198 N   0  0  0  0  0  0  0  0  0  0  0  0
    7.1179   -2.8689   22.2449 C   0  0  0  0  0  0  0  0  0  0  0  0
    8.4810   -3.0761   22.5173 C   0  0  0  0  0  0  0  0  0  0  0  0
    8.8761   -4.1478   23.3238 C   0  0  0  0  0  0  0  0  0  0  0  0
    7.9265   -5.0171   23.8657 C   0  0  0  0  0  0  0  0  0  0  0  0
    6.5551   -4.8021   23.6297 C   0  0  0  0  0  0  0  0  0  0  0  0
    5.4835   -5.6637   24.2710 C   0  0  0  0  0  0  0  0  0  0  0  0
    5.0208   -5.2149   25.6664 C   0  0  0  0  0  0  0  0  0  0  0  0
    6.0486   -5.1590   26.6311 O   0  0  0  0  0  0  0  0  0  0  0  0
    6.4023   -6.0532   26.7469 H   0  0  0  0  0  0  0  0  0  0  0  0
    4.6135   -4.1993   25.6094 H   0  0  0  0  0  0  0  0  0  0  0  0
    4.1915   -5.8682   25.9874 H   0  0  0  0  0  0  0  0  0  0  0  0
    4.5959   -5.6811   23.6298 H   0  0  0  0  0  0  0  0  0  0  0  0
    5.8042   -6.7057   24.3274 H   0  0  0  0  0  0  0  0  0  0  0  0
    6.1716   -3.7364   22.8110 C   0  0  0  0  0  0  0  0  0  0  0  0
    5.1207   -3.5400   22.6062 H   0  0  0  0  0  0  0  0  0  0  0  0
    8.2499   -5.8503   24.4864 H   0  0  0  0  0  0  0  0  0  0  0  0
    9.9332   -4.2791   23.5424 H   0  0  0  0  0  0  0  0  0  0  0  0
    9.2093   -2.3781   22.1200 H   0  0  0  0  0  0  0  0  0  0  0  0
    5.6598   -1.6904   21.4972 H   0  0  0  0  0  0  0  0  0  0  0  0
    6.6347   -0.0206   19.9049 C   0  0  0  0  0  0  0  0  0  0  0  0
    5.4175    0.6339   20.1415 C   0  0  0  0  0  0  0  0  0  0  0  0
    4.7999    1.2959   19.0795 C   0  0  0  0  0  0  0  0  0  0  0  0
    5.4128    1.2756   17.8225 C   0  0  0  0  0  0  0  0  0  0  0  0
    6.5596    0.6321   17.5711 N   0  0  0  0  0  0  0  0  0  0  0  0
    7.1423    0.0042   18.6019 C   0  0  0  0  0  0  0  0  0  0  0  0
    8.0832   -0.5017   18.3759 H   0  0  0  0  0  0  0  0  0  0  0  0
    4.9700    1.8231   16.9938 H   0  0  0  0  0  0  0  0  0  0  0  0
    3.8741    1.8350   19.2209 H   0  0  0  0  0  0  0  0  0  0  0  0
    4.9649    0.6468   21.1367 H   0  0  0  0  0  0  0  0  0  0  0  0
    8.3424   -1.1273   20.5266 H   0  0  0  0  0  0  0  0  0  0  0  0
    8.3176   -0.3510   22.9363 H   0  0  0  0  0  0  0  0  0  0  0  0
    6.9668    0.6991   22.5458 H   0  0  0  0  0  0  0  0  0  0  0  0
    8.3526    1.8891   20.8405 H   0  0  0  0  0  0  0  0  0  0  0  0
    9.7262    0.8447   21.1959 H   0  0  0  0  0  0  0  0  0  0  0  0
    9.7996    1.7000   23.5594 H   0  0  0  0  0  0  0  0  0  0  0  0
   10.0039    3.0032   22.3853 H   0  0  0  0  0  0  0  0  0  0  0  0
    8.4524    2.7900   23.2002 H   0  0  0  0  0  0  0  0  0  0  0  0
  1  2  1  0
  2  3  1  0
  3  4  1  0
  4  5  1  0
  5  6  1  0
  6  7  2  0
  7  8  1  0
  8  9  2  0
  9 10  1  0
 10 11  1  0
 11 12  1  0
 12 13  1  0
 13 14  1  0
 12 15  1  0
 12 16  1  0
 11 17  1  0
 11 18  1  0
 10 19  2  0
 19 20  1  0
  9 21  1  0
  8 22  1  0
  7 23  1  0
  5 24  1  0
  4 25  1  0
 25 26  2  0
 26 27  1  0
 27 28  2  0
 28 29  1  0
 29 30  2  0
 30 31  1  0
 28 32  1  0
 27 33  1  0
 26 34  1  0
  4 35  1  0
  3 36  1  0
  3 37  1  0
  2 38  1  0
  2 39  1  0
  1 40  1  0
  1 41  1  0
  1 42  1  0
 19  6  1  0
 30 25  1  0
M  END
>  <cnnaffinity>  (1) 
-5.31312

>  <filename>  (1) 
CCCC(Nc1cccc(CCO)c1)c1cccnc1

$$$$
