
     RDKit          3D

 41 42  0  0  0  0  0  0  0  0999 V2000
    5.0057    1.9265   16.6919 H   0  0  0  0  0  0  0  0  0  0  0  0
    5.4051    1.4186   17.5685 C   0  0  0  0  0  0  0  0  0  0  0  0
    6.5525    0.7486   17.3939 N   0  0  0  0  0  0  0  0  0  0  0  0
    7.0707    0.1249   18.4537 C   0  0  0  0  0  0  0  0  0  0  0  0
    8.0125   -0.3954   18.2945 H   0  0  0  0  0  0  0  0  0  0  0  0
    6.4787    0.1251   19.7286 C   0  0  0  0  0  0  0  0  0  0  0  0
    7.1392   -0.6380   20.8130 C   0  0  0  0  0  0  0  0  0  0  0  0
    8.0806   -1.5503   20.4772 N   0  0  0  0  0  0  0  0  0  0  0  0
    8.6479   -2.2684   21.4323 N   0  0  0  0  0  0  0  0  0  0  0  0
    8.2832   -2.0516   22.7104 C   0  0  0  0  0  0  0  0  0  0  0  0
    9.0119   -2.8042   23.7849 C   0  0  0  0  0  0  0  0  0  0  0  0
    9.2487   -3.8125   23.4323 H   0  0  0  0  0  0  0  0  0  0  0  0
    8.3541   -2.8985   24.6553 H   0  0  0  0  0  0  0  0  0  0  0  0
   10.3211   -2.0989   24.1969 C   0  0  0  0  0  0  0  0  0  0  0  0
   10.8641   -2.7926   24.8495 H   0  0  0  0  0  0  0  0  0  0  0  0
   10.9599   -1.9914   23.3070 H   0  0  0  0  0  0  0  0  0  0  0  0
   10.1131   -0.7475   24.9184 C   0  0  0  0  0  0  0  0  0  0  0  0
    9.1789   -0.8136   25.5002 H   0  0  0  0  0  0  0  0  0  0  0  0
   10.9248   -0.6021   25.6479 H   0  0  0  0  0  0  0  0  0  0  0  0
   10.0453    0.5130   24.0328 C   0  0  0  0  0  0  0  0  0  0  0  0
   11.0172    0.6471   23.5295 H   0  0  0  0  0  0  0  0  0  0  0  0
    9.2903    0.3823   23.2453 H   0  0  0  0  0  0  0  0  0  0  0  0
    9.7197    1.7936   24.8286 C   0  0  0  0  0  0  0  0  0  0  0  0
   10.4138    1.8778   25.6763 H   0  0  0  0  0  0  0  0  0  0  0  0
    8.7164    1.6978   25.2734 H   0  0  0  0  0  0  0  0  0  0  0  0
    9.7909    3.0617   23.9635 C   0  0  0  0  0  0  0  0  0  0  0  0
   10.8183    3.1699   23.5860 H   0  0  0  0  0  0  0  0  0  0  0  0
    9.1620    2.9010   23.0754 H   0  0  0  0  0  0  0  0  0  0  0  0
    9.3676    4.3816   24.6270 C   0  0  0  0  0  0  0  0  0  0  0  0
    8.3597    4.2670   25.0499 H   0  0  0  0  0  0  0  0  0  0  0  0
   10.0326    4.6088   25.4708 H   0  0  0  0  0  0  0  0  0  0  0  0
    9.3794    5.5597   23.6437 C   0  0  0  0  0  0  0  0  0  0  0  0
    9.0719    6.4983   24.1154 H   0  0  0  0  0  0  0  0  0  0  0  0
   10.3799    5.7203   23.2241 H   0  0  0  0  0  0  0  0  0  0  0  0
    8.6970    5.3824   22.8035 H   0  0  0  0  0  0  0  0  0  0  0  0
    7.3553   -1.1222   23.0582 N   0  0  0  0  0  0  0  0  0  0  0  0
    6.7714   -0.4253   22.0972 N   0  0  0  0  0  0  0  0  0  0  0  0
    5.2754    0.8319   19.9033 C   0  0  0  0  0  0  0  0  0  0  0  0
    4.7804    0.8858   20.8747 H   0  0  0  0  0  0  0  0  0  0  0  0
    4.7350    1.4822   18.7948 C   0  0  0  0  0  0  0  0  0  0  0  0
    3.8174    2.0551   18.8645 H   0  0  0  0  0  0  0  0  0  0  0  0
  1  2  1  0
  2  3  2  0
  3  4  1  0
  4  5  1  0
  4  6  2  0
  6  7  1  0
  7  8  2  0
  8  9  1  0
  9 10  2  0
 10 11  1  0
 11 12  1  0
 11 13  1  0
 11 14  1  0
 14 15  1  0
 14 16  1  0
 14 17  1  0
 17 18  1  0
 17 19  1  0
 17 20  1  0
 20 21  1  0
 20 22  1  0
 20 23  1  0
 23 24  1  0
 23 25  1  0
 23 26  1  0
 26 27  1  0
 26 28  1  0
 26 29  1  0
 29 30  1  0
 29 31  1  0
 29 32  1  0
 32 33  1  0
 32 34  1  0
 32 35  1  0
 10 36  1  0
 36 37  2  0
  6 38  1  0
 38 39  1  0
 38 40  2  0
 40 41  1  0
 40  2  1  0
 37  7  1  0
M  END
>  <cnnaffinity>  (1) 
-5.67469

>  <filename>  (1) 
CCCCCCCCc1nnc(-c2cccnc2)nn1

$$$$
