
     RDKit          3D

 41 44  0  0  0  0  0  0  0  0999 V2000
   12.4452   -1.7699   22.0167 C   0  0  0  0  0  0  0  0  0  0  0  0
   11.0141   -1.2155   21.9948 C   0  0  0  0  0  0  0  0  0  0  0  0
    9.8827   -2.2606   22.1050 C   0  0  0  0  0  0  0  0  0  0  0  0
    8.5538   -1.6263   21.8452 C   0  0  0  0  0  0  0  0  0  0  0  0
    8.1938   -1.1807   20.6623 N   0  0  0  0  0  0  0  0  0  0  0  0
    7.0005   -0.5708   20.8924 C   0  0  0  0  0  0  0  0  0  0  0  0
    6.3235    0.1433   19.8183 C   0  0  0  0  0  0  0  0  0  0  0  0
    5.1180    0.8515   19.9583 C   0  0  0  0  0  0  0  0  0  0  0  0
    4.6167    1.4964   18.8290 C   0  0  0  0  0  0  0  0  0  0  0  0
    5.3262    1.4153   17.6248 C   0  0  0  0  0  0  0  0  0  0  0  0
    6.4727    0.7356   17.4837 N   0  0  0  0  0  0  0  0  0  0  0  0
    6.9567    0.1248   18.5659 C   0  0  0  0  0  0  0  0  0  0  0  0
    7.8973   -0.4077   18.4386 H   0  0  0  0  0  0  0  0  0  0  0  0
    4.9551    1.9164   16.7342 H   0  0  0  0  0  0  0  0  0  0  0  0
    3.6959    2.0686   18.8606 H   0  0  0  0  0  0  0  0  0  0  0  0
    4.5978    0.9022   20.9181 H   0  0  0  0  0  0  0  0  0  0  0  0
    6.5739   -0.6573   22.1351 N   0  0  0  0  0  0  0  0  0  0  0  0
    7.5882   -1.3245   22.7495 N   0  0  0  0  0  0  0  0  0  0  0  0
    7.6009   -1.6113   24.1384 C   0  0  0  0  0  0  0  0  0  0  0  0
    8.6194   -1.0971   24.9155 C   0  0  0  0  0  0  0  0  0  0  0  0
    8.6939   -1.4014   26.2930 C   0  0  0  0  0  0  0  0  0  0  0  0
    7.7383   -2.2105   26.8567 C   0  0  0  0  0  0  0  0  0  0  0  0
    6.6624   -2.7404   26.0944 C   0  0  0  0  0  0  0  0  0  0  0  0
    5.6440   -3.5695   26.6533 C   0  0  0  0  0  0  0  0  0  0  0  0
    4.6960   -4.1176   25.8297 C   0  0  0  0  0  0  0  0  0  0  0  0
    4.6359   -3.9127   24.4896 N   0  0  0  0  0  0  0  0  0  0  0  0
    5.5436   -3.1166   23.9572 C   0  0  0  0  0  0  0  0  0  0  0  0
    6.5947   -2.4672   24.6925 C   0  0  0  0  0  0  0  0  0  0  0  0
    5.4763   -2.9608   22.8848 H   0  0  0  0  0  0  0  0  0  0  0  0
    3.9272   -4.7844   26.2146 H   0  0  0  0  0  0  0  0  0  0  0  0
    5.6219   -3.7815   27.7159 H   0  0  0  0  0  0  0  0  0  0  0  0
    7.8169   -2.4750   27.8948 H   0  0  0  0  0  0  0  0  0  0  0  0
    9.4995   -1.0028   26.9076 H   0  0  0  0  0  0  0  0  0  0  0  0
    9.3757   -0.4543   24.4739 H   0  0  0  0  0  0  0  0  0  0  0  0
    9.9889   -3.0084   21.3212 H   0  0  0  0  0  0  0  0  0  0  0  0
    9.9039   -2.8024   23.0585 H   0  0  0  0  0  0  0  0  0  0  0  0
   10.9063   -0.4829   22.8065 H   0  0  0  0  0  0  0  0  0  0  0  0
   10.8406   -0.6645   21.0595 H   0  0  0  0  0  0  0  0  0  0  0  0
   12.8408   -1.8550   21.0007 H   0  0  0  0  0  0  0  0  0  0  0  0
   12.5109   -2.7620   22.4822 H   0  0  0  0  0  0  0  0  0  0  0  0
   13.1264   -1.1006   22.5590 H   0  0  0  0  0  0  0  0  0  0  0  0
  1  2  1  0
  2  3  1  0
  3  4  1  0
  4  5  2  0
  5  6  1  0
  6  7  1  0
  7  8  2  0
  8  9  1  0
  9 10  2  0
 10 11  1  0
 11 12  2  0
 12 13  1  0
 10 14  1  0
  9 15  1  0
  8 16  1  0
  6 17  2  0
 17 18  1  0
 18 19  1  0
 19 20  2  0
 20 21  1  0
 21 22  2  0
 22 23  1  0
 23 24  2  0
 24 25  1  0
 25 26  2  0
 26 27  1  0
 27 28  2  0
 27 29  1  0
 25 30  1  0
 24 31  1  0
 22 32  1  0
 21 33  1  0
 20 34  1  0
  3 35  1  0
  3 36  1  0
  2 37  1  0
  2 38  1  0
  1 39  1  0
  1 40  1  0
  1 41  1  0
 18  4  1  0
 28 19  1  0
 12  7  1  0
 28 23  1  0
M  END
>  <cnnaffinity>  (1) 
-6.01826

>  <filename>  (1) 
CCCc1nc(-c2cccnc2)nn1-c1cccc2ccncc12

$$$$
