
     RDKit          3D

 38 39  0  0  0  0  0  0  0  0999 V2000
    5.8631   -1.3628   22.1720 H   0  0  0  0  0  0  0  0  0  0  0  0
    6.9270   -1.3059   21.9734 C   0  0  0  0  0  0  0  0  0  0  0  0
    7.4764   -0.6994   20.9122 C   0  0  0  0  0  0  0  0  0  0  0  0
    6.7495    0.0325   19.8596 C   0  0  0  0  0  0  0  0  0  0  0  0
    7.2538    0.0771   18.5447 C   0  0  0  0  0  0  0  0  0  0  0  0
    8.1887   -0.4310   18.3097 H   0  0  0  0  0  0  0  0  0  0  0  0
    6.6516    0.6897   17.5200 N   0  0  0  0  0  0  0  0  0  0  0  0
    5.4859    1.3043   17.7669 C   0  0  0  0  0  0  0  0  0  0  0  0
    5.0080    1.7858   16.9160 H   0  0  0  0  0  0  0  0  0  0  0  0
    4.8809    1.3270   19.0281 C   0  0  0  0  0  0  0  0  0  0  0  0
    3.9305    1.8343   19.1571 H   0  0  0  0  0  0  0  0  0  0  0  0
    5.5226    0.6870   20.0907 C   0  0  0  0  0  0  0  0  0  0  0  0
    5.0884    0.7075   21.0894 H   0  0  0  0  0  0  0  0  0  0  0  0
    8.9738   -0.9717   20.8789 C   0  0  0  0  0  0  0  0  0  0  0  0
    9.5686   -0.0904   20.6170 H   0  0  0  0  0  0  0  0  0  0  0  0
    9.1883   -1.7475   20.1311 H   0  0  0  0  0  0  0  0  0  0  0  0
    9.2947   -1.5014   22.2945 C   0  0  0  0  0  0  0  0  0  0  0  0
    9.6375   -0.6813   22.9402 H   0  0  0  0  0  0  0  0  0  0  0  0
   10.0816   -2.2624   22.2778 H   0  0  0  0  0  0  0  0  0  0  0  0
    7.9379   -2.0276   22.8486 C   0  0  2  0  0  0  0  0  0  0  0  0
    7.8009   -1.7115   23.8892 H   0  0  0  0  0  0  0  0  0  0  0  0
    7.7974   -3.5709   22.8277 C   0  0  0  0  0  0  0  0  0  0  0  0
    8.0096   -4.2384   21.8279 O   0  0  0  0  0  0  0  0  0  0  0  0
    7.4352   -4.1261   24.0288 N   0  0  0  0  0  0  0  0  0  0  0  0
    7.1915   -3.4765   24.7537 H   0  0  0  0  0  0  0  0  0  0  0  0
    6.9569   -5.4961   24.1956 C   0  0  0  0  0  0  0  0  0  0  0  0
    7.6084   -6.1780   23.6407 H   0  0  0  0  0  0  0  0  0  0  0  0
    7.0730   -5.7463   25.2585 H   0  0  0  0  0  0  0  0  0  0  0  0
    5.4916   -5.6843   23.7673 C   0  0  0  0  0  0  0  0  0  0  0  0
    4.8665   -5.0584   24.4182 H   0  0  0  0  0  0  0  0  0  0  0  0
    5.3721   -5.2979   22.7459 H   0  0  0  0  0  0  0  0  0  0  0  0
    4.9831   -7.1317   23.8211 C   0  0  0  0  0  0  0  0  0  0  0  0
    5.5940   -7.7518   23.1512 H   0  0  0  0  0  0  0  0  0  0  0  0
    5.1169   -7.5355   24.8334 H   0  0  0  0  0  0  0  0  0  0  0  0
    3.5111   -7.2809   23.4433 C   0  0  0  0  0  0  0  0  0  0  0  0
    3.3135   -6.9060   22.4330 H   0  0  0  0  0  0  0  0  0  0  0  0
    2.8682   -6.7336   24.1419 H   0  0  0  0  0  0  0  0  0  0  0  0
    3.2048   -8.3312   23.4691 H   0  0  0  0  0  0  0  0  0  0  0  0
  1  2  1  0
  2  3  2  0
  3  4  1  0
  4  5  2  0
  5  6  1  0
  5  7  1  0
  7  8  2  0
  8  9  1  0
  8 10  1  0
 10 11  1  0
 10 12  2  0
 12 13  1  0
  3 14  1  0
 14 15  1  0
 14 16  1  0
 14 17  1  0
 17 18  1  0
 17 19  1  0
 17 20  1  0
 20 21  1  1
 20 22  1  0
 22 23  2  0
 22 24  1  0
 24 25  1  0
 24 26  1  0
 26 27  1  0
 26 28  1  0
 26 29  1  0
 29 30  1  0
 29 31  1  0
 29 32  1  0
 32 33  1  0
 32 34  1  0
 32 35  1  0
 35 36  1  0
 35 37  1  0
 35 38  1  0
 20  2  1  0
 12  4  1  0
M  END
>  <cnnaffinity>  (1) 
-4.66937

>  <filename>  (1) 
CCCCNC(=O)[C@@H]1C=C(c2cccnc2)CC1

$$$$
