
     RDKit          3D

 35 36  0  0  0  0  0  0  0  0999 V2000
    4.9529    1.8151   16.9752 H   0  0  0  0  0  0  0  0  0  0  0  0
    5.4137    1.3012   17.8195 C   0  0  0  0  0  0  0  0  0  0  0  0
    6.5710    0.6640   17.5705 N   0  0  0  0  0  0  0  0  0  0  0  0
    7.1509    0.0419   18.6062 C   0  0  0  0  0  0  0  0  0  0  0  0
    8.0836   -0.4727   18.3779 H   0  0  0  0  0  0  0  0  0  0  0  0
    6.6375   -0.0132   19.9203 C   0  0  0  0  0  0  0  0  0  0  0  0
    7.3770   -0.7215   21.0068 C   0  0  0  0  0  0  0  0  0  0  0  0
    8.7893   -0.5849   21.1333 C   0  0  0  0  0  0  0  0  0  0  0  0
    9.3349    0.0740   20.4592 H   0  0  0  0  0  0  0  0  0  0  0  0
    9.4620   -1.2439   22.1181 C   0  0  0  0  0  0  0  0  0  0  0  0
   10.5268   -1.1693   22.2509 H   0  0  0  0  0  0  0  0  0  0  0  0
    8.8173   -2.1231   23.0836 C   0  0  0  0  0  0  0  0  0  0  0  0
    9.4454   -2.6958   23.9612 O   0  0  0  0  0  0  0  0  0  0  0  0
    7.3930   -2.2260   22.9100 N   0  0  0  0  0  0  0  0  0  0  0  0
    6.6073   -3.1287   23.6892 N   0  0  0  0  0  0  0  0  0  0  0  0
    5.6385   -3.0511   23.3730 H   0  0  0  0  0  0  0  0  0  0  0  0
    6.6471   -2.8706   25.1407 C   0  0  0  0  0  0  0  0  0  0  0  0
    5.9027   -3.5554   25.5712 H   0  0  0  0  0  0  0  0  0  0  0  0
    7.6238   -3.1813   25.5348 H   0  0  0  0  0  0  0  0  0  0  0  0
    6.3549   -1.4225   25.5495 C   0  0  0  0  0  0  0  0  0  0  0  0
    5.3852   -1.0969   25.1393 H   0  0  0  0  0  0  0  0  0  0  0  0
    7.1201   -0.7827   25.0859 H   0  0  0  0  0  0  0  0  0  0  0  0
    6.3579   -1.2436   27.0725 C   0  0  0  0  0  0  0  0  0  0  0  0
    7.3208   -1.5967   27.4726 H   0  0  0  0  0  0  0  0  0  0  0  0
    5.5782   -1.8806   27.5198 H   0  0  0  0  0  0  0  0  0  0  0  0
    6.1372    0.1970   27.5255 C   0  0  0  0  0  0  0  0  0  0  0  0
    5.1799    0.5902   27.1631 H   0  0  0  0  0  0  0  0  0  0  0  0
    6.1327    0.2518   28.6188 H   0  0  0  0  0  0  0  0  0  0  0  0
    6.9305    0.8596   27.1597 H   0  0  0  0  0  0  0  0  0  0  0  0
    6.7374   -1.5382   21.9051 C   0  0  0  0  0  0  0  0  0  0  0  0
    5.6650   -1.6958   21.8572 H   0  0  0  0  0  0  0  0  0  0  0  0
    5.4139    0.6427   20.1428 C   0  0  0  0  0  0  0  0  0  0  0  0
    4.9614    0.6539   21.1361 H   0  0  0  0  0  0  0  0  0  0  0  0
    4.8048    1.3143   19.0787 C   0  0  0  0  0  0  0  0  0  0  0  0
    3.8714    1.8513   19.2087 H   0  0  0  0  0  0  0  0  0  0  0  0
  1  2  1  0
  2  3  2  0
  3  4  1  0
  4  5  1  0
  4  6  2  0
  6  7  1  0
  7  8  1  0
  8  9  1  0
  8 10  2  0
 10 11  1  0
 10 12  1  0
 12 13  2  0
 12 14  1  0
 14 15  1  0
 15 16  1  0
 15 17  1  0
 17 18  1  0
 17 19  1  0
 17 20  1  0
 20 21  1  0
 20 22  1  0
 20 23  1  0
 23 24  1  0
 23 25  1  0
 23 26  1  0
 26 27  1  0
 26 28  1  0
 26 29  1  0
 14 30  1  0
 30 31  1  0
  6 32  1  0
 32 33  1  0
 32 34  2  0
 34 35  1  0
 34  2  1  0
 30  7  2  0
M  END
>  <cnnaffinity>  (1) 
-4.98429

>  <filename>  (1) 
CCCCNn1cc(-c2cccnc2)ccc1=O

$$$$
