
     RDKit          3D

 39 40  0  0  0  0  0  0  0  0999 V2000
   10.0723    1.8734   22.0824 C   0  0  0  0  0  0  0  0  0  0  0  0
    8.6818    1.3276   21.7632 C   0  0  0  0  0  0  0  0  0  0  0  0
    8.7567   -0.1366   21.2893 C   0  0  0  0  0  0  0  0  0  0  0  0
    7.3542   -0.7333   21.0891 C   0  0  0  0  0  0  0  0  0  0  0  0
    7.4260   -2.1510   20.7172 N   0  0  0  0  0  0  0  0  0  0  0  0
    7.0161   -3.1891   21.5685 C   0  0  0  0  0  0  0  0  0  0  0  0
    7.2247   -3.0796   22.9444 C   0  0  0  0  0  0  0  0  0  0  0  0
    6.8267   -4.0967   23.8256 C   0  0  0  0  0  0  0  0  0  0  0  0
    6.2456   -5.2686   23.3428 C   0  0  0  0  0  0  0  0  0  0  0  0
    5.8030   -6.2349   24.2161 O   0  0  0  0  0  0  0  0  0  0  0  0
    5.1770   -7.3717   23.5851 C   0  0  0  0  0  0  0  0  0  0  0  0
    4.9117   -8.1414   24.3081 H   0  0  0  0  0  0  0  0  0  0  0  0
    5.8675   -7.8212   22.8667 H   0  0  0  0  0  0  0  0  0  0  0  0
    4.2692   -7.0790   23.0493 H   0  0  0  0  0  0  0  0  0  0  0  0
    6.0740   -5.3967   21.9612 C   0  0  0  0  0  0  0  0  0  0  0  0
    6.3906   -4.3493   21.0882 C   0  0  0  0  0  0  0  0  0  0  0  0
    5.7870   -4.4664   19.2900 Br  0  0  0  0  0  0  0  0  0  0  0  0
    5.6333   -6.3179   21.6008 H   0  0  0  0  0  0  0  0  0  0  0  0
    6.9551   -3.9718   24.8940 H   0  0  0  0  0  0  0  0  0  0  0  0
    7.6821   -2.1755   23.3178 H   0  0  0  0  0  0  0  0  0  0  0  0
    7.4451   -2.3529   19.7202 H   0  0  0  0  0  0  0  0  0  0  0  0
    6.6327   -0.0375   19.9709 C   0  0  0  0  0  0  0  0  0  0  0  0
    5.4246    0.6343   20.1889 C   0  0  0  0  0  0  0  0  0  0  0  0
    4.8434    1.2769   19.0983 C   0  0  0  0  0  0  0  0  0  0  0  0
    5.4732    1.2432   17.8503 C   0  0  0  0  0  0  0  0  0  0  0  0
    6.6264    0.5821   17.6417 N   0  0  0  0  0  0  0  0  0  0  0  0
    7.1945   -0.0481   18.6842 C   0  0  0  0  0  0  0  0  0  0  0  0
    8.1379   -0.5632   18.5161 H   0  0  0  0  0  0  0  0  0  0  0  0
    5.0146    1.7719   17.0203 H   0  0  0  0  0  0  0  0  0  0  0  0
    3.9157    1.8245   19.2079 H   0  0  0  0  0  0  0  0  0  0  0  0
    4.9654    0.6705   21.1780 H   0  0  0  0  0  0  0  0  0  0  0  0
    6.7921   -0.6250   22.0223 H   0  0  0  0  0  0  0  0  0  0  0  0
    9.3015   -0.7268   22.0347 H   0  0  0  0  0  0  0  0  0  0  0  0
    9.3112   -0.1897   20.3468 H   0  0  0  0  0  0  0  0  0  0  0  0
    8.0589    1.3989   22.6608 H   0  0  0  0  0  0  0  0  0  0  0  0
    8.2185    1.9455   20.9873 H   0  0  0  0  0  0  0  0  0  0  0  0
   10.7068    1.8494   21.1914 H   0  0  0  0  0  0  0  0  0  0  0  0
    9.9984    2.9099   22.4306 H   0  0  0  0  0  0  0  0  0  0  0  0
   10.5433    1.2749   22.8690 H   0  0  0  0  0  0  0  0  0  0  0  0
  1  2  1  0
  2  3  1  0
  3  4  1  0
  4  5  1  0
  5  6  1  0
  6  7  2  0
  7  8  1  0
  8  9  2  0
  9 10  1  0
 10 11  1  0
 11 12  1  0
 11 13  1  0
 11 14  1  0
  9 15  1  0
 15 16  2  0
 16 17  1  0
 15 18  1  0
  8 19  1  0
  7 20  1  0
  5 21  1  0
  4 22  1  0
 22 23  2  0
 23 24  1  0
 24 25  2  0
 25 26  1  0
 26 27  2  0
 27 28  1  0
 25 29  1  0
 24 30  1  0
 23 31  1  0
  4 32  1  0
  3 33  1  0
  3 34  1  0
  2 35  1  0
  2 36  1  0
  1 37  1  0
  1 38  1  0
  1 39  1  0
 16  6  1  0
 27 22  1  0
M  END
>  <cnnaffinity>  (1) 
-4.72195

>  <filename>  (1) 
CCCC(Nc1ccc(OC)cc1Br)c1cccnc1

$$$$
