
     RDKit          3D

 30 31  0  0  0  0  0  0  0  0999 V2000
    4.9158    1.7872   16.9861 H   0  0  0  0  0  0  0  0  0  0  0  0
    5.3975    1.2988   17.8265 C   0  0  0  0  0  0  0  0  0  0  0  0
    6.5595    0.6800   17.5640 N   0  0  0  0  0  0  0  0  0  0  0  0
    7.1628    0.0725   18.5913 C   0  0  0  0  0  0  0  0  0  0  0  0
    8.1083   -0.4216   18.3713 H   0  0  0  0  0  0  0  0  0  0  0  0
    6.6400    0.0108   19.8949 C   0  0  0  0  0  0  0  0  0  0  0  0
    7.3602   -0.7075   20.9742 C   0  0  0  0  0  0  0  0  0  0  0  0
    8.7711   -0.5712   21.1273 C   0  0  0  0  0  0  0  0  0  0  0  0
    9.2939    0.1083   20.4491 H   0  0  0  0  0  0  0  0  0  0  0  0
    9.4635   -1.2256   22.1177 C   0  0  0  0  0  0  0  0  0  0  0  0
   10.9349   -1.0416   22.3262 C   0  0  0  0  0  0  0  0  0  0  0  0
   11.4065   -0.7245   21.3838 H   0  0  0  0  0  0  0  0  0  0  0  0
   11.3739   -2.0079   22.5943 H   0  0  0  0  0  0  0  0  0  0  0  0
   11.2554   -0.0079   23.4173 C   0  0  0  0  0  0  0  0  0  0  0  0
   12.3336   -0.0266   23.6127 H   0  0  0  0  0  0  0  0  0  0  0  0
   10.7710   -0.3198   24.3497 H   0  0  0  0  0  0  0  0  0  0  0  0
   10.8299    1.4121   23.0518 C   0  0  0  0  0  0  0  0  0  0  0  0
   11.1442    2.1321   23.8137 H   0  0  0  0  0  0  0  0  0  0  0  0
   11.2733    1.7222   22.0981 H   0  0  0  0  0  0  0  0  0  0  0  0
    9.7420    1.4915   22.9439 H   0  0  0  0  0  0  0  0  0  0  0  0
    8.7332   -2.0753   23.0679 C   0  0  0  0  0  0  0  0  0  0  0  0
    9.1739   -2.7096   24.0136 O   0  0  0  0  0  0  0  0  0  0  0  0
    7.3621   -2.1686   22.8262 N   0  0  0  0  0  0  0  0  0  0  0  0
    6.9279   -2.7608   23.5129 H   0  0  0  0  0  0  0  0  0  0  0  0
    6.6785   -1.5168   21.8396 C   0  0  0  0  0  0  0  0  0  0  0  0
    5.6030   -1.6793   21.7528 H   0  0  0  0  0  0  0  0  0  0  0  0
    5.4202    0.6534   20.1457 C   0  0  0  0  0  0  0  0  0  0  0  0
    5.0026    0.6478   21.1565 H   0  0  0  0  0  0  0  0  0  0  0  0
    4.7986    1.3212   19.0927 C   0  0  0  0  0  0  0  0  0  0  0  0
    3.8661    1.8510   19.2502 H   0  0  0  0  0  0  0  0  0  0  0  0
  1  2  1  0
  2  3  2  0
  3  4  1  0
  4  5  1  0
  4  6  2  0
  6  7  1  0
  7  8  1  0
  8  9  1  0
  8 10  2  0
 10 11  1  0
 11 12  1  0
 11 13  1  0
 11 14  1  0
 14 15  1  0
 14 16  1  0
 14 17  1  0
 17 18  1  0
 17 19  1  0
 17 20  1  0
 10 21  1  0
 21 22  2  0
 21 23  1  0
 23 24  1  0
 23 25  1  0
 25 26  1  0
  6 27  1  0
 27 28  1  0
 27 29  2  0
 29 30  1  0
 29  2  1  0
 25  7  2  0
M  END
>  <cnnaffinity>  (1) 
-5.03367

>  <filename>  (1) 
CCCc1cc(-c2cccnc2)c[nH]c1=O

$$$$
