
     RDKit          3D

 32 33  0  0  0  0  0  0  0  0999 V2000
    4.9254    1.7913   16.9853 H   0  0  0  0  0  0  0  0  0  0  0  0
    5.3951    1.2964   17.8326 C   0  0  0  0  0  0  0  0  0  0  0  0
    6.5587    0.6729   17.5838 N   0  0  0  0  0  0  0  0  0  0  0  0
    7.1667    0.0531   18.6011 C   0  0  0  0  0  0  0  0  0  0  0  0
    8.1206   -0.4197   18.3676 H   0  0  0  0  0  0  0  0  0  0  0  0
    6.6588    0.0276   19.9127 C   0  0  0  0  0  0  0  0  0  0  0  0
    7.3649   -0.6557   20.9493 N   0  0  0  0  0  0  0  0  0  0  0  0
    7.6520   -2.0049   20.8960 C   0  0  0  0  0  0  0  0  0  0  0  0
    7.2675   -2.5522   20.0574 H   0  0  0  0  0  0  0  0  0  0  0  0
    8.2851   -2.3918   22.0522 C   0  0  0  0  0  0  0  0  0  0  0  0
    8.6505   -3.3848   22.2890 H   0  0  0  0  0  0  0  0  0  0  0  0
    8.3723   -1.2346   22.8773 C   0  0  0  0  0  0  0  0  0  0  0  0
    8.7764   -1.1127   23.8733 H   0  0  0  0  0  0  0  0  0  0  0  0
    7.8184   -0.1924   22.1763 C   0  0  0  0  0  0  0  0  0  0  0  0
    7.6807    1.1420   22.5693 N   0  0  0  0  0  0  0  0  0  0  0  0
    7.0946    1.7508   22.0203 H   0  0  0  0  0  0  0  0  0  0  0  0
    8.3784    1.7008   23.6169 C   0  0  0  0  0  0  0  0  0  0  0  0
    9.2835    1.1210   24.1827 O   0  0  0  0  0  0  0  0  0  0  0  0
    7.9064    3.0738   24.0729 C   0  0  0  0  0  0  0  0  0  0  0  0
    7.7504    3.7585   23.2261 H   0  0  0  0  0  0  0  0  0  0  0  0
    8.7357    3.4716   24.6640 H   0  0  0  0  0  0  0  0  0  0  0  0
    6.6401    3.0095   24.9521 C   0  0  0  0  0  0  0  0  0  0  0  0
    6.8184    2.3342   25.8015 H   0  0  0  0  0  0  0  0  0  0  0  0
    5.8189    2.5626   24.3755 H   0  0  0  0  0  0  0  0  0  0  0  0
    6.2201    4.3825   25.4766 C   0  0  0  0  0  0  0  0  0  0  0  0
    7.0002    4.8325   26.1036 H   0  0  0  0  0  0  0  0  0  0  0  0
    6.0214    5.0779   24.6526 H   0  0  0  0  0  0  0  0  0  0  0  0
    5.3083    4.3164   26.0813 H   0  0  0  0  0  0  0  0  0  0  0  0
    5.4348    0.6613   20.1613 C   0  0  0  0  0  0  0  0  0  0  0  0
    5.0037    0.6261   21.1648 H   0  0  0  0  0  0  0  0  0  0  0  0
    4.8008    1.3122   19.0983 C   0  0  0  0  0  0  0  0  0  0  0  0
    3.8709    1.8436   19.2492 H   0  0  0  0  0  0  0  0  0  0  0  0
  1  2  1  0
  2  3  2  0
  3  4  1  0
  4  5  1  0
  4  6  2  0
  6  7  1  0
  7  8  1  0
  8  9  1  0
  8 10  2  0
 10 11  1  0
 10 12  1  0
 12 13  1  0
 12 14  2  0
 14 15  1  0
 15 16  1  0
 15 17  1  0
 17 18  2  0
 17 19  1  0
 19 20  1  0
 19 21  1  0
 19 22  1  0
 22 23  1  0
 22 24  1  0
 22 25  1  0
 25 26  1  0
 25 27  1  0
 25 28  1  0
  6 29  1  0
 29 30  1  0
 29 31  2  0
 31 32  1  0
 31  2  1  0
 14  7  1  0
M  END
>  <cnnaffinity>  (1) 
-4.72967

>  <filename>  (1) 
CCCC(=O)Nc1cccn1-c1cccnc1

$$$$
