
     RDKit          3D

 42 43  0  0  0  0  0  0  0  0999 V2000
    4.9192    1.8144   16.9644 H   0  0  0  0  0  0  0  0  0  0  0  0
    5.3863    1.3066   17.8097 C   0  0  0  0  0  0  0  0  0  0  0  0
    6.5460    0.6861   17.5478 N   0  0  0  0  0  0  0  0  0  0  0  0
    7.1642    0.0776   18.5682 C   0  0  0  0  0  0  0  0  0  0  0  0
    8.0992   -0.4161   18.3155 H   0  0  0  0  0  0  0  0  0  0  0  0
    6.6744    0.0265   19.8857 C   0  0  0  0  0  0  0  0  0  0  0  0
    7.4146   -0.6897   20.9474 C   0  0  0  0  0  0  0  0  0  0  0  0
    8.7737   -0.7605   21.0683 C   0  0  0  0  0  0  0  0  0  0  0  0
    9.5119   -0.3034   20.4268 H   0  0  0  0  0  0  0  0  0  0  0  0
    9.2658   -1.6747   22.4409 S   0  0  0  0  0  0  0  0  0  0  0  0
    7.6172   -1.9982   22.8880 C   0  0  0  0  0  0  0  0  0  0  0  0
    7.2593   -2.7208   24.1598 C   0  0  0  0  0  0  0  0  0  0  0  0
    7.9212   -3.5845   24.3079 H   0  0  0  0  0  0  0  0  0  0  0  0
    6.2440   -3.1244   24.0377 H   0  0  0  0  0  0  0  0  0  0  0  0
    7.2810   -1.8023   25.4009 C   0  0  0  0  0  0  0  0  0  0  0  0
    8.2811   -1.3579   25.5084 H   0  0  0  0  0  0  0  0  0  0  0  0
    7.1282   -2.4270   26.2920 H   0  0  0  0  0  0  0  0  0  0  0  0
    6.2140   -0.6961   25.3691 C   0  0  0  0  0  0  0  0  0  0  0  0
    5.2280   -1.1478   25.1825 H   0  0  0  0  0  0  0  0  0  0  0  0
    6.4038   -0.0241   24.5149 H   0  0  0  0  0  0  0  0  0  0  0  0
    6.1500    0.1200   26.6661 C   0  0  0  0  0  0  0  0  0  0  0  0
    6.0488   -0.5646   27.5252 H   0  0  0  0  0  0  0  0  0  0  0  0
    5.2374    0.7325   26.6677 H   0  0  0  0  0  0  0  0  0  0  0  0
    7.3684    1.0265   26.8891 C   0  0  0  0  0  0  0  0  0  0  0  0
    7.4739    1.7071   26.0275 H   0  0  0  0  0  0  0  0  0  0  0  0
    8.2846    0.4176   26.8991 H   0  0  0  0  0  0  0  0  0  0  0  0
    7.2922    1.8504   28.1821 C   0  0  0  0  0  0  0  0  0  0  0  0
    7.0859    1.1807   29.0341 H   0  0  0  0  0  0  0  0  0  0  0  0
    8.2766    2.2922   28.3803 H   0  0  0  0  0  0  0  0  0  0  0  0
    6.2488    2.9768   28.1528 C   0  0  0  0  0  0  0  0  0  0  0  0
    6.4283    3.6023   27.2639 H   0  0  0  0  0  0  0  0  0  0  0  0
    5.2446    2.5499   28.0124 H   0  0  0  0  0  0  0  0  0  0  0  0
    6.2836    3.8406   29.4176 C   0  0  0  0  0  0  0  0  0  0  0  0
    6.0901    3.2409   30.3155 H   0  0  0  0  0  0  0  0  0  0  0  0
    5.5384    4.6421   29.3887 H   0  0  0  0  0  0  0  0  0  0  0  0
    7.2669    4.3083   29.5495 H   0  0  0  0  0  0  0  0  0  0  0  0
    6.7724   -1.4280   21.9876 C   0  0  0  0  0  0  0  0  0  0  0  0
    5.7004   -1.5503   21.9978 H   0  0  0  0  0  0  0  0  0  0  0  0
    5.4471    0.6649   20.1313 C   0  0  0  0  0  0  0  0  0  0  0  0
    5.0281    0.6577   21.1375 H   0  0  0  0  0  0  0  0  0  0  0  0
    4.7965    1.3193   19.0809 C   0  0  0  0  0  0  0  0  0  0  0  0
    3.8601    1.8491   19.2279 H   0  0  0  0  0  0  0  0  0  0  0  0
  1  2  1  0
  2  3  2  0
  3  4  1  0
  4  5  1  0
  4  6  2  0
  6  7  1  0
  7  8  2  0
  8  9  1  0
  8 10  1  0
 10 11  1  0
 11 12  1  0
 12 13  1  0
 12 14  1  0
 12 15  1  0
 15 16  1  0
 15 17  1  0
 15 18  1  0
 18 19  1  0
 18 20  1  0
 18 21  1  0
 21 22  1  0
 21 23  1  0
 21 24  1  0
 24 25  1  0
 24 26  1  0
 24 27  1  0
 27 28  1  0
 27 29  1  0
 27 30  1  0
 30 31  1  0
 30 32  1  0
 30 33  1  0
 33 34  1  0
 33 35  1  0
 33 36  1  0
 11 37  2  0
 37 38  1  0
  6 39  1  0
 39 40  1  0
 39 41  2  0
 41 42  1  0
 41  2  1  0
 37  7  1  0
M  END
>  <cnnaffinity>  (1) 
-5.1046

>  <filename>  (1) 
CCCCCCCCc1cc(-c2cccnc2)cs1

$$$$
