
     RDKit          3D

 42 43  0  0  0  0  0  0  0  0999 V2000
    4.9194    1.8075   16.9688 H   0  0  0  0  0  0  0  0  0  0  0  0
    5.3907    1.3049   17.8148 C   0  0  0  0  0  0  0  0  0  0  0  0
    6.5528    0.6863   17.5564 N   0  0  0  0  0  0  0  0  0  0  0  0
    7.1690    0.0856   18.5864 C   0  0  0  0  0  0  0  0  0  0  0  0
    8.1066   -0.4157   18.3483 H   0  0  0  0  0  0  0  0  0  0  0  0
    6.6709    0.0377   19.9004 C   0  0  0  0  0  0  0  0  0  0  0  0
    7.3736   -0.6919   20.9866 C   0  0  0  0  0  0  0  0  0  0  0  0
    8.6585   -0.4461   21.3933 C   0  0  0  0  0  0  0  0  0  0  0  0
    9.5438    0.6778   20.9333 C   0  0  0  0  0  0  0  0  0  0  0  0
   10.5677    0.5337   21.2988 H   0  0  0  0  0  0  0  0  0  0  0  0
    9.5845    0.6448   19.8400 H   0  0  0  0  0  0  0  0  0  0  0  0
    9.0187    2.0705   21.3303 C   0  0  0  0  0  0  0  0  0  0  0  0
    9.7062    2.8156   20.9211 H   0  0  0  0  0  0  0  0  0  0  0  0
    8.0516    2.2324   20.8347 H   0  0  0  0  0  0  0  0  0  0  0  0
    8.8634    2.2903   22.8389 C   0  0  0  0  0  0  0  0  0  0  0  0
    8.3937    3.2709   23.0044 H   0  0  0  0  0  0  0  0  0  0  0  0
    8.1534    1.5440   23.2220 H   0  0  0  0  0  0  0  0  0  0  0  0
   10.1638    2.2290   23.6626 C   0  0  0  0  0  0  0  0  0  0  0  0
   10.6398    1.2451   23.5344 H   0  0  0  0  0  0  0  0  0  0  0  0
    9.8851    2.2748   24.7241 H   0  0  0  0  0  0  0  0  0  0  0  0
   11.1875    3.3447   23.3476 C   0  0  0  0  0  0  0  0  0  0  0  0
   11.6183    3.7325   24.2833 H   0  0  0  0  0  0  0  0  0  0  0  0
   10.6666    4.2019   22.8896 H   0  0  0  0  0  0  0  0  0  0  0  0
   12.3595    2.9163   22.4453 C   0  0  0  0  0  0  0  0  0  0  0  0
   11.9719    2.5497   21.4793 H   0  0  0  0  0  0  0  0  0  0  0  0
   12.8612    2.0508   22.9044 H   0  0  0  0  0  0  0  0  0  0  0  0
   13.3731    4.0529   22.2187 C   0  0  0  0  0  0  0  0  0  0  0  0
   14.3258    3.6640   21.8462 H   0  0  0  0  0  0  0  0  0  0  0  0
   13.6426    4.4928   23.1912 H   0  0  0  0  0  0  0  0  0  0  0  0
   12.8581    5.1408   21.2669 C   0  0  0  0  0  0  0  0  0  0  0  0
   13.6479    5.8578   21.0227 H   0  0  0  0  0  0  0  0  0  0  0  0
   12.4960    4.7077   20.3245 H   0  0  0  0  0  0  0  0  0  0  0  0
   12.0189    5.6989   21.7002 H   0  0  0  0  0  0  0  0  0  0  0  0
    9.1042   -1.5031   22.6917 S   0  0  0  0  0  0  0  0  0  0  0  0
    7.5598   -2.2600   22.7008 C   0  0  0  0  0  0  0  0  0  0  0  0
    7.3513   -3.0417   23.4208 H   0  0  0  0  0  0  0  0  0  0  0  0
    6.7482   -1.7307   21.7476 C   0  0  0  0  0  0  0  0  0  0  0  0
    5.7351   -2.0514   21.5416 H   0  0  0  0  0  0  0  0  0  0  0  0
    5.4398    0.6649   20.1362 C   0  0  0  0  0  0  0  0  0  0  0  0
    5.0162    0.6394   21.1414 H   0  0  0  0  0  0  0  0  0  0  0  0
    4.7993    1.3200   19.0838 C   0  0  0  0  0  0  0  0  0  0  0  0
    3.8647    1.8466   19.2302 H   0  0  0  0  0  0  0  0  0  0  0  0
  1  2  1  0
  2  3  2  0
  3  4  1  0
  4  5  1  0
  4  6  2  0
  6  7  1  0
  7  8  2  0
  8  9  1  0
  9 10  1  0
  9 11  1  0
  9 12  1  0
 12 13  1  0
 12 14  1  0
 12 15  1  0
 15 16  1  0
 15 17  1  0
 15 18  1  0
 18 19  1  0
 18 20  1  0
 18 21  1  0
 21 22  1  0
 21 23  1  0
 21 24  1  0
 24 25  1  0
 24 26  1  0
 24 27  1  0
 27 28  1  0
 27 29  1  0
 27 30  1  0
 30 31  1  0
 30 32  1  0
 30 33  1  0
  8 34  1  0
 34 35  1  0
 35 36  1  0
 35 37  2  0
 37 38  1  0
  6 39  1  0
 39 40  1  0
 39 41  2  0
 41 42  1  0
 41  2  1  0
 37  7  1  0
M  END
>  <cnnaffinity>  (1) 
-5.29775

>  <filename>  (1) 
CCCCCCCCc1sccc1-c1cccnc1

$$$$
