
     RDKit          3D

 27 28  0  0  0  0  0  0  0  0999 V2000
    4.9110    1.7808   16.9972 H   0  0  0  0  0  0  0  0  0  0  0  0
    5.4012    1.2939   17.8406 C   0  0  0  0  0  0  0  0  0  0  0  0
    6.5630    0.6763   17.5811 N   0  0  0  0  0  0  0  0  0  0  0  0
    7.1811    0.0622   18.5960 C   0  0  0  0  0  0  0  0  0  0  0  0
    8.1214   -0.4379   18.3755 H   0  0  0  0  0  0  0  0  0  0  0  0
    6.6772    0.0188   19.9096 C   0  0  0  0  0  0  0  0  0  0  0  0
    7.3689   -0.6765   20.9637 N   0  0  0  0  0  0  0  0  0  0  0  0
    8.6270   -0.3979   21.4881 C   0  0  0  0  0  0  0  0  0  0  0  0
    9.4515    0.7669   21.0570 C   0  0  0  0  0  0  0  0  0  0  0  0
   10.4629    0.6000   21.4372 H   0  0  0  0  0  0  0  0  0  0  0  0
    9.5148    0.7836   19.9660 H   0  0  0  0  0  0  0  0  0  0  0  0
    8.8973    2.1024   21.5746 C   0  0  0  0  0  0  0  0  0  0  0  0
    7.8775    2.2524   21.1971 H   0  0  0  0  0  0  0  0  0  0  0  0
    9.5058    2.9103   21.1618 H   0  0  0  0  0  0  0  0  0  0  0  0
    8.9082    2.1859   23.0966 C   0  0  0  0  0  0  0  0  0  0  0  0
    8.5783    3.1721   23.4342 H   0  0  0  0  0  0  0  0  0  0  0  0
    8.2466    1.4374   23.5462 H   0  0  0  0  0  0  0  0  0  0  0  0
    9.9173    2.0126   23.4897 H   0  0  0  0  0  0  0  0  0  0  0  0
    8.9413   -1.2148   22.4426 N   0  0  0  0  0  0  0  0  0  0  0  0
    7.8466   -2.0250   22.5362 N   0  0  0  0  0  0  0  0  0  0  0  0
    7.7734   -2.7718   23.2014 H   0  0  0  0  0  0  0  0  0  0  0  0
    6.8630   -1.7593   21.6609 C   0  0  0  0  0  0  0  0  0  0  0  0
    5.4406   -2.6029   21.4609 S   0  0  0  0  0  0  0  0  0  0  0  0
    5.4539    0.6446   20.1666 C   0  0  0  0  0  0  0  0  0  0  0  0
    5.0201    0.6106   21.1698 H   0  0  0  0  0  0  0  0  0  0  0  0
    4.8144    1.3079   19.1116 C   0  0  0  0  0  0  0  0  0  0  0  0
    3.8795    1.8388   19.2639 H   0  0  0  0  0  0  0  0  0  0  0  0
  1  2  1  0
  2  3  2  0
  3  4  1  0
  4  5  1  0
  4  6  2  0
  6  7  1  0
  7  8  1  0
  8  9  1  0
  9 10  1  0
  9 11  1  0
  9 12  1  0
 12 13  1  0
 12 14  1  0
 12 15  1  0
 15 16  1  0
 15 17  1  0
 15 18  1  0
  8 19  2  0
 19 20  1  0
 20 21  1  0
 20 22  1  0
 22 23  2  0
  6 24  1  0
 24 25  1  0
 24 26  2  0
 26 27  1  0
 26  2  1  0
 22  7  1  0
M  END
>  <cnnaffinity>  (1) 
-4.49954

>  <filename>  (1) 
CCCc1n[nH]c(=S)n1-c1cccnc1

$$$$
