
     RDKit          3D

 41 44  0  0  0  0  0  0  0  0999 V2000
    8.3603   -5.8440   23.0558 C   0  0  0  0  0  0  0  0  0  0  0  0
    7.7242   -4.4983   22.7095 C   0  0  0  0  0  0  0  0  0  0  0  0
    8.7153   -3.5061   22.0640 C   0  0  0  0  0  0  0  0  0  0  0  0
    8.2050   -2.1172   21.8800 C   0  0  0  0  0  0  0  0  0  0  0  0
    7.8364   -1.6953   20.6930 N   0  0  0  0  0  0  0  0  0  0  0  0
    7.3181   -0.4704   20.9397 N   0  0  0  0  0  0  0  0  0  0  0  0
    6.5931    0.1543   19.8960 C   0  0  0  0  0  0  0  0  0  0  0  0
    5.3829    0.8229   20.1025 C   0  0  0  0  0  0  0  0  0  0  0  0
    4.7734    1.4018   18.9858 C   0  0  0  0  0  0  0  0  0  0  0  0
    5.3981    1.3124   17.7380 C   0  0  0  0  0  0  0  0  0  0  0  0
    6.5393    0.6293   17.5335 N   0  0  0  0  0  0  0  0  0  0  0  0
    7.0968    0.0374   18.5888 C   0  0  0  0  0  0  0  0  0  0  0  0
    7.9818   -0.5698   18.4127 H   0  0  0  0  0  0  0  0  0  0  0  0
    4.9540    1.7757   16.8609 H   0  0  0  0  0  0  0  0  0  0  0  0
    3.8206    1.9109   19.0741 H   0  0  0  0  0  0  0  0  0  0  0  0
    4.9458    0.8873   21.1013 H   0  0  0  0  0  0  0  0  0  0  0  0
    7.4666   -0.1766   22.2717 C   0  0  0  0  0  0  0  0  0  0  0  0
    7.1256    1.1480   22.8698 C   0  0  0  0  0  0  0  0  0  0  0  0
    7.5486    2.3289   22.2705 C   0  0  0  0  0  0  0  0  0  0  0  0
    7.2376    3.6006   22.8172 C   0  0  0  0  0  0  0  0  0  0  0  0
    6.4991    3.7023   23.9760 C   0  0  0  0  0  0  0  0  0  0  0  0
    6.0405    2.5282   24.6334 C   0  0  0  0  0  0  0  0  0  0  0  0
    5.2811    2.5800   25.8381 C   0  0  0  0  0  0  0  0  0  0  0  0
    4.8432    1.4151   26.4161 C   0  0  0  0  0  0  0  0  0  0  0  0
    5.0913    0.1851   25.9008 N   0  0  0  0  0  0  0  0  0  0  0  0
    5.8044    0.1122   24.7924 C   0  0  0  0  0  0  0  0  0  0  0  0
    6.3398    1.2406   24.0810 C   0  0  0  0  0  0  0  0  0  0  0  0
    6.0158   -0.8800   24.3920 H   0  0  0  0  0  0  0  0  0  0  0  0
    4.2522    1.4294   27.3335 H   0  0  0  0  0  0  0  0  0  0  0  0
    5.0479    3.5362   26.2929 H   0  0  0  0  0  0  0  0  0  0  0  0
    6.2465    4.6695   24.4024 H   0  0  0  0  0  0  0  0  0  0  0  0
    7.5858    4.4947   22.3041 H   0  0  0  0  0  0  0  0  0  0  0  0
    8.1325    2.2842   21.3559 H   0  0  0  0  0  0  0  0  0  0  0  0
    8.0049   -1.2284   22.8827 N   0  0  0  0  0  0  0  0  0  0  0  0
    9.6460   -3.4500   22.6403 H   0  0  0  0  0  0  0  0  0  0  0  0
    8.9369   -3.8374   21.0476 H   0  0  0  0  0  0  0  0  0  0  0  0
    7.2890   -4.0610   23.6172 H   0  0  0  0  0  0  0  0  0  0  0  0
    6.8981   -4.6698   22.0071 H   0  0  0  0  0  0  0  0  0  0  0  0
    9.0333   -5.7654   23.9199 H   0  0  0  0  0  0  0  0  0  0  0  0
    8.9270   -6.2354   22.2034 H   0  0  0  0  0  0  0  0  0  0  0  0
    7.5921   -6.5841   23.3028 H   0  0  0  0  0  0  0  0  0  0  0  0
  1  2  1  0
  2  3  1  0
  3  4  1  0
  4  5  2  0
  5  6  1  0
  6  7  1  0
  7  8  2  0
  8  9  1  0
  9 10  2  0
 10 11  1  0
 11 12  2  0
 12 13  1  0
 10 14  1  0
  9 15  1  0
  8 16  1  0
  6 17  1  0
 17 18  1  0
 18 19  2  0
 19 20  1  0
 20 21  2  0
 21 22  1  0
 22 23  2  0
 23 24  1  0
 24 25  2  0
 25 26  1  0
 26 27  2  0
 26 28  1  0
 24 29  1  0
 23 30  1  0
 21 31  1  0
 20 32  1  0
 19 33  1  0
 17 34  2  0
  3 35  1  0
  3 36  1  0
  2 37  1  0
  2 38  1  0
  1 39  1  0
  1 40  1  0
  1 41  1  0
 34  4  1  0
 12  7  1  0
 27 18  1  0
 27 22  1  0
M  END
>  <cnnaffinity>  (1) 
-5.12423

>  <filename>  (1) 
CCCc1nc(-c2cccc3ccncc23)n(-c2cccnc2)n1

$$$$
