
     RDKit          3D

 42 45  0  0  0  0  0  0  0  0999 V2000
    7.6062   -4.2594   25.1066 C   0  0  0  0  0  0  0  0  0  0  0  0
    6.7696   -4.3322   23.8297 C   0  0  0  0  0  0  0  0  0  0  0  0
    7.5733   -4.6692   22.5669 C   0  0  0  0  0  0  0  0  0  0  0  0
    8.5927   -3.6090   22.0927 C   0  0  0  0  0  0  0  0  0  0  0  0
    8.0915   -2.2148   21.9257 C   0  0  0  0  0  0  0  0  0  0  0  0
    7.6800   -1.8291   20.7412 N   0  0  0  0  0  0  0  0  0  0  0  0
    7.2960   -0.5518   20.9362 N   0  0  0  0  0  0  0  0  0  0  0  0
    6.5995    0.0782   19.8758 C   0  0  0  0  0  0  0  0  0  0  0  0
    5.3647    0.6975   20.0799 C   0  0  0  0  0  0  0  0  0  0  0  0
    4.7724    1.3263   18.9840 C   0  0  0  0  0  0  0  0  0  0  0  0
    5.4165    1.2884   17.7443 C   0  0  0  0  0  0  0  0  0  0  0  0
    6.5657    0.6209   17.5329 N   0  0  0  0  0  0  0  0  0  0  0  0
    7.1267    0.0082   18.5757 C   0  0  0  0  0  0  0  0  0  0  0  0
    8.0325   -0.5669   18.3934 H   0  0  0  0  0  0  0  0  0  0  0  0
    4.9991    1.8062   16.8844 H   0  0  0  0  0  0  0  0  0  0  0  0
    3.8204    1.8326   19.0838 H   0  0  0  0  0  0  0  0  0  0  0  0
    4.8956    0.6878   21.0638 H   0  0  0  0  0  0  0  0  0  0  0  0
    7.5541   -0.1961   22.2422 C   0  0  0  0  0  0  0  0  0  0  0  0
    7.4007    1.1468   22.7991 C   0  0  0  0  0  0  0  0  0  0  0  0
    7.2745    1.4301   24.1670 C   0  0  0  0  0  0  0  0  0  0  0  0
    7.2556    0.6658   25.3605 C   0  0  0  0  0  0  0  0  0  0  0  0
    7.1064    1.3126   26.5655 C   0  0  0  0  0  0  0  0  0  0  0  0
    6.9575    2.7392   26.6085 C   0  0  0  0  0  0  0  0  0  0  0  0
    6.9600    3.4725   25.4549 C   0  0  0  0  0  0  0  0  0  0  0  0
    7.1231    2.8156   24.2397 N   0  0  0  0  0  0  0  0  0  0  0  0
    7.1772    3.2711   22.9437 C   0  0  0  0  0  0  0  0  0  0  0  0
    7.3499    2.3139   22.0743 N   0  0  0  0  0  0  0  0  0  0  0  0
    7.0536    4.3194   22.7047 H   0  0  0  0  0  0  0  0  0  0  0  0
    6.8411    4.5516   25.4193 H   0  0  0  0  0  0  0  0  0  0  0  0
    6.8432    3.2448   27.5631 H   0  0  0  0  0  0  0  0  0  0  0  0
    7.1026    0.7434   27.4901 H   0  0  0  0  0  0  0  0  0  0  0  0
    7.3680   -0.4069   25.2661 H   0  0  0  0  0  0  0  0  0  0  0  0
    8.0252   -1.2724   22.8833 N   0  0  0  0  0  0  0  0  0  0  0  0
    9.4649   -3.5742   22.7551 H   0  0  0  0  0  0  0  0  0  0  0  0
    8.9127   -3.8796   21.0832 H   0  0  0  0  0  0  0  0  0  0  0  0
    8.1248   -5.6123   22.7199 H   0  0  0  0  0  0  0  0  0  0  0  0
    6.8659   -4.8595   21.7492 H   0  0  0  0  0  0  0  0  0  0  0  0
    5.9942   -5.1034   23.9437 H   0  0  0  0  0  0  0  0  0  0  0  0
    6.2389   -3.3781   23.6885 H   0  0  0  0  0  0  0  0  0  0  0  0
    8.1361   -5.2046   25.2838 H   0  0  0  0  0  0  0  0  0  0  0  0
    8.3553   -3.4592   25.0426 H   0  0  0  0  0  0  0  0  0  0  0  0
    6.9662   -4.0603   25.9750 H   0  0  0  0  0  0  0  0  0  0  0  0
  1  2  1  0
  2  3  1  0
  3  4  1  0
  4  5  1  0
  5  6  2  0
  6  7  1  0
  7  8  1  0
  8  9  2  0
  9 10  1  0
 10 11  2  0
 11 12  1  0
 12 13  2  0
 13 14  1  0
 11 15  1  0
 10 16  1  0
  9 17  1  0
  7 18  1  0
 18 19  1  0
 19 20  2  0
 20 21  1  0
 21 22  2  0
 22 23  1  0
 23 24  2  0
 24 25  1  0
 25 26  1  0
 26 27  2  0
 26 28  1  0
 24 29  1  0
 23 30  1  0
 22 31  1  0
 21 32  1  0
 18 33  2  0
  4 34  1  0
  4 35  1  0
  3 36  1  0
  3 37  1  0
  2 38  1  0
  2 39  1  0
  1 40  1  0
  1 41  1  0
  1 42  1  0
 33  5  1  0
 13  8  1  0
 27 19  1  0
 25 20  1  0
M  END
>  <cnnaffinity>  (1) 
-5.7805

>  <filename>  (1) 
CCCCc1nc(-c2ncn3ccccc23)n(-c2cccnc2)n1

$$$$
