
     RDKit          3D

 30 31  0  0  0  0  0  0  0  0999 V2000
    5.0139    1.7030   16.8192 H   0  0  0  0  0  0  0  0  0  0  0  0
    5.4604    1.1316   17.6292 C   0  0  0  0  0  0  0  0  0  0  0  0
    6.6208    0.5171   17.3519 N   0  0  0  0  0  0  0  0  0  0  0  0
    7.2299   -0.1505   18.3419 C   0  0  0  0  0  0  0  0  0  0  0  0
    8.1789   -0.6356   18.1004 H   0  0  0  0  0  0  0  0  0  0  0  0
    6.7067   -0.2337   19.6483 C   0  0  0  0  0  0  0  0  0  0  0  0
    7.3977   -0.9026   20.7167 N   0  0  0  0  0  0  0  0  0  0  0  0
    8.4020   -0.3701   21.5210 C   0  0  0  0  0  0  0  0  0  0  0  0
    9.2019    0.8566   21.2083 C   0  0  0  0  0  0  0  0  0  0  0  0
   10.2364    0.4965   21.1164 H   0  0  0  0  0  0  0  0  0  0  0  0
    8.9267    1.1891   20.1984 H   0  0  0  0  0  0  0  0  0  0  0  0
    9.1609    1.9939   22.2571 C   0  0  0  0  0  0  0  0  0  0  0  0
    9.5131    1.4868   23.1828 H   0  0  0  0  0  0  0  0  0  0  0  0
   10.1260    2.5687   21.9988 H   0  0  0  0  0  0  0  0  0  0  0  0
    7.8848    2.6061   22.5047 C   0  0  0  0  0  0  0  0  0  0  0  0
    7.4823    1.5984   23.3634 H   0  0  0  0  0  0  0  0  0  0  0  0
    8.0513    3.2051   23.5864 H   0  0  0  0  0  0  0  0  0  0  0  0
    7.8211    2.9031   22.3462 C   0  0  0  0  0  0  0  0  0  0  0  0
    6.8257    4.0695   22.1582 H   0  0  0  0  0  0  0  0  0  0  0  0
    8.2468    4.0381   21.3651 H   0  0  0  0  0  0  0  0  0  0  0  0
    7.0171    2.1349   21.6948 H   0  0  0  0  0  0  0  0  0  0  0  0
    8.6615   -1.1586   22.5280 N   0  0  0  0  0  0  0  0  0  0  0  0
    7.7787   -2.1825   22.3721 N   0  0  0  0  0  0  0  0  0  0  0  0
    7.7321   -2.9710   22.9960 H   0  0  0  0  0  0  0  0  0  0  0  0
    6.9937   -2.0997   21.2861 C   0  0  0  0  0  0  0  0  0  0  0  0
    5.8642   -3.2121   20.7832 S   0  0  0  0  0  0  0  0  0  0  0  0
    5.4752    0.3665   19.9136 C   0  0  0  0  0  0  0  0  0  0  0  0
    5.0451    0.2822   20.9152 H   0  0  0  0  0  0  0  0  0  0  0  0
    4.8428    1.0717   18.8817 C   0  0  0  0  0  0  0  0  0  0  0  0
    3.9065    1.5904   19.0482 H   0  0  0  0  0  0  0  0  0  0  0  0
  1  2  1  0
  2  3  2  0
  3  4  1  0
  4  5  1  0
  4  6  2  0
  6  7  1  0
  7  8  1  0
  8  9  1  0
  9 10  1  0
  9 11  1  0
  9 12  1  0
 12 13  1  0
 12 14  1  0
 12 15  1  0
 15 16  1  0
 15 17  1  0
 15 18  1  0
 18 19  1  0
 18 20  1  0
 18 21  1  0
  8 22  2  0
 22 23  1  0
 23 24  1  0
 23 25  1  0
 25 26  2  0
  6 27  1  0
 27 28  1  0
 27 29  2  0
 29 30  1  0
 29  2  1  0
 25  7  1  0
M  END
>  <cnnaffinity>  (1) 
-4.88903

>  <filename>  (1) 
CCCCc1n[nH]c(=S)n1-c1cccnc1

$$$$
