
     RDKit          3D

 33 34  0  0  0  0  0  0  0  0999 V2000
    5.0013    1.8484   17.0279 H   0  0  0  0  0  0  0  0  0  0  0  0
    5.4464    1.2916   17.8484 C   0  0  0  0  0  0  0  0  0  0  0  0
    6.5916    0.6477   17.5745 N   0  0  0  0  0  0  0  0  0  0  0  0
    7.1600   -0.0351   18.5758 C   0  0  0  0  0  0  0  0  0  0  0  0
    8.0895   -0.5570   18.3579 H   0  0  0  0  0  0  0  0  0  0  0  0
    6.6276   -0.1231   19.8776 C   0  0  0  0  0  0  0  0  0  0  0  0
    7.3125   -0.8543   20.9129 N   0  0  0  0  0  0  0  0  0  0  0  0
    8.4870   -0.4832   21.5629 C   0  0  0  0  0  0  0  0  0  0  0  0
    9.3354    0.6277   21.0293 C   0  0  0  0  0  0  0  0  0  0  0  0
    8.6960    1.5006   20.8668 H   0  0  0  0  0  0  0  0  0  0  0  0
    9.6592    0.3176   20.0278 H   0  0  0  0  0  0  0  0  0  0  0  0
   10.5542    1.0390   21.8575 C   0  0  0  0  0  0  0  0  0  0  0  0
   11.0221    1.8846   21.3376 H   0  0  0  0  0  0  0  0  0  0  0  0
   10.2396    1.4257   22.8383 H   0  0  0  0  0  0  0  0  0  0  0  0
   11.6020   -0.0587   22.0503 C   0  0  0  0  0  0  0  0  0  0  0  0
   11.8866   -0.4894   21.0835 H   0  0  0  0  0  0  0  0  0  0  0  0
   11.1435   -0.8801   22.6127 H   0  0  0  0  0  0  0  0  0  0  0  0
   12.8678    0.4278   22.7615 C   0  0  0  0  0  0  0  0  0  0  0  0
   13.6350   -0.3539   22.6879 H   0  0  0  0  0  0  0  0  0  0  0  0
   13.2711    1.3041   22.2309 H   0  0  0  0  0  0  0  0  0  0  0  0
   12.6329    0.7680   24.2369 C   0  0  0  0  0  0  0  0  0  0  0  0
   13.5708    0.7771   24.7990 H   0  0  0  0  0  0  0  0  0  0  0  0
   11.9737    0.0222   24.6983 H   0  0  0  0  0  0  0  0  0  0  0  0
   12.1540    1.7446   24.3667 H   0  0  0  0  0  0  0  0  0  0  0  0
    8.7298   -1.2579   22.5763 N   0  0  0  0  0  0  0  0  0  0  0  0
    7.6967   -2.1422   22.5670 N   0  0  0  0  0  0  0  0  0  0  0  0
    7.6298   -2.9241   23.2010 H   0  0  0  0  0  0  0  0  0  0  0  0
    6.8112   -1.9692   21.5714 C   0  0  0  0  0  0  0  0  0  0  0  0
    5.4832   -2.9149   21.2493 S   0  0  0  0  0  0  0  0  0  0  0  0
    5.4276    0.5457   20.1508 C   0  0  0  0  0  0  0  0  0  0  0  0
    4.9900    0.5249   21.1525 H   0  0  0  0  0  0  0  0  0  0  0  0
    4.8333    1.2678   19.1077 C   0  0  0  0  0  0  0  0  0  0  0  0
    3.9185    1.8286   19.2650 H   0  0  0  0  0  0  0  0  0  0  0  0
  1  2  1  0
  2  3  2  0
  3  4  1  0
  4  5  1  0
  4  6  2  0
  6  7  1  0
  7  8  1  0
  8  9  1  0
  9 10  1  0
  9 11  1  0
  9 12  1  0
 12 13  1  0
 12 14  1  0
 12 15  1  0
 15 16  1  0
 15 17  1  0
 15 18  1  0
 18 19  1  0
 18 20  1  0
 18 21  1  0
 21 22  1  0
 21 23  1  0
 21 24  1  0
  8 25  2  0
 25 26  1  0
 26 27  1  0
 26 28  1  0
 28 29  2  0
  6 30  1  0
 30 31  1  0
 30 32  2  0
 32 33  1  0
 32  2  1  0
 28  7  1  0
M  END
>  <cnnaffinity>  (1) 
-5.06658

>  <filename>  (1) 
CCCCCc1n[nH]c(=S)n1-c1cccnc1

$$$$
