
     RDKit          3D

 32 33  0  0  0  0  0  0  0  0999 V2000
    4.9088    1.8117   16.9674 H   0  0  0  0  0  0  0  0  0  0  0  0
    5.3858    1.3108   17.8092 C   0  0  0  0  0  0  0  0  0  0  0  0
    6.5499    0.6972   17.5451 N   0  0  0  0  0  0  0  0  0  0  0  0
    7.1704    0.0953   18.5716 C   0  0  0  0  0  0  0  0  0  0  0  0
    8.1069   -0.4110   18.3382 H   0  0  0  0  0  0  0  0  0  0  0  0
    6.6748    0.0425   19.8901 C   0  0  0  0  0  0  0  0  0  0  0  0
    7.3707   -0.6793   20.9891 C   0  0  0  0  0  0  0  0  0  0  0  0
    6.7659   -1.6976   21.8032 C   0  0  0  0  0  0  0  0  0  0  0  0
    5.7471   -2.0551   21.6668 H   0  0  0  0  0  0  0  0  0  0  0  0
    7.5059   -2.2547   22.7191 N   0  0  0  0  0  0  0  0  0  0  0  0
    9.0115   -1.5659   22.6694 S   0  0  0  0  0  0  0  0  0  0  0  0
    8.6643   -0.4701   21.3899 C   0  0  0  0  0  0  0  0  0  0  0  0
    9.5818    0.6165   20.9080 C   0  0  0  0  0  0  0  0  0  0  0  0
    9.6137    0.5535   19.8155 H   0  0  0  0  0  0  0  0  0  0  0  0
   10.6021    0.4561   21.2800 H   0  0  0  0  0  0  0  0  0  0  0  0
    9.0950    2.0388   21.2535 C   0  0  0  0  0  0  0  0  0  0  0  0
    8.1547    2.2259   20.7168 H   0  0  0  0  0  0  0  0  0  0  0  0
    9.8291    2.7453   20.8545 H   0  0  0  0  0  0  0  0  0  0  0  0
    8.8946    2.3065   22.7506 C   0  0  0  0  0  0  0  0  0  0  0  0
    8.5120    3.3303   22.8763 H   0  0  0  0  0  0  0  0  0  0  0  0
    8.0990    1.6421   23.1174 H   0  0  0  0  0  0  0  0  0  0  0  0
   10.1563    2.1393   23.6166 C   0  0  0  0  0  0  0  0  0  0  0  0
   10.5287    1.1067   23.5466 H   0  0  0  0  0  0  0  0  0  0  0  0
    9.8620    2.2693   24.6662 H   0  0  0  0  0  0  0  0  0  0  0  0
   11.2848    3.1214   23.2694 C   0  0  0  0  0  0  0  0  0  0  0  0
   10.9180    4.1567   23.2581 H   0  0  0  0  0  0  0  0  0  0  0  0
   11.7106    2.9192   22.2779 H   0  0  0  0  0  0  0  0  0  0  0  0
   12.1040    3.0631   23.9953 H   0  0  0  0  0  0  0  0  0  0  0  0
    5.4424    0.6640   20.1289 C   0  0  0  0  0  0  0  0  0  0  0  0
    5.0253    0.6338   21.1379 H   0  0  0  0  0  0  0  0  0  0  0  0
    4.7979    1.3198   19.0795 C   0  0  0  0  0  0  0  0  0  0  0  0
    3.8643    1.8466   19.2311 H   0  0  0  0  0  0  0  0  0  0  0  0
  1  2  1  0
  2  3  2  0
  3  4  1  0
  4  5  1  0
  4  6  2  0
  6  7  1  0
  7  8  1  0
  8  9  1  0
  8 10  2  0
 10 11  1  0
 11 12  1  0
 12 13  1  0
 13 14  1  0
 13 15  1  0
 13 16  1  0
 16 17  1  0
 16 18  1  0
 16 19  1  0
 19 20  1  0
 19 21  1  0
 19 22  1  0
 22 23  1  0
 22 24  1  0
 22 25  1  0
 25 26  1  0
 25 27  1  0
 25 28  1  0
  6 29  1  0
 29 30  1  0
 29 31  2  0
 31 32  1  0
 31  2  1  0
 12  7  2  0
M  END
>  <cnnaffinity>  (1) 
-5.13144

>  <filename>  (1) 
CCCCCc1sncc1-c1cccnc1

$$$$
