
     RDKit          3D

 43 44  0  0  0  0  0  0  0  0999 V2000
    4.9832    1.8958   16.9680 H   0  0  0  0  0  0  0  0  0  0  0  0
    5.4316    1.3501   17.7959 C   0  0  0  0  0  0  0  0  0  0  0  0
    6.6027    0.7482   17.5362 N   0  0  0  0  0  0  0  0  0  0  0  0
    7.1864    0.0907   18.5462 C   0  0  0  0  0  0  0  0  0  0  0  0
    8.1335   -0.3949   18.3058 H   0  0  0  0  0  0  0  0  0  0  0  0
    6.6459   -0.0360   19.8484 C   0  0  0  0  0  0  0  0  0  0  0  0
    7.3517   -0.7474   20.9442 C   0  0  0  0  0  0  0  0  0  0  0  0
    8.6028   -0.5111   21.3982 C   0  0  0  0  0  0  0  0  0  0  0  0
    9.5095    0.5920   20.9430 C   0  0  0  0  0  0  0  0  0  0  0  0
    9.5990    0.5174   19.8529 H   0  0  0  0  0  0  0  0  0  0  0  0
   10.5225    0.4326   21.3389 H   0  0  0  0  0  0  0  0  0  0  0  0
    9.0041    2.0182   21.2822 C   0  0  0  0  0  0  0  0  0  0  0  0
    8.0824    2.1962   20.7078 H   0  0  0  0  0  0  0  0  0  0  0  0
    9.7442    2.7378   20.9042 H   0  0  0  0  0  0  0  0  0  0  0  0
    8.7588    2.2514   22.7845 C   0  0  0  0  0  0  0  0  0  0  0  0
    8.1585    1.4154   23.1726 H   0  0  0  0  0  0  0  0  0  0  0  0
    9.7242    2.1922   23.3112 H   0  0  0  0  0  0  0  0  0  0  0  0
    8.0542    3.5671   23.1785 C   0  0  0  0  0  0  0  0  0  0  0  0
    7.0706    3.6137   22.6889 H   0  0  0  0  0  0  0  0  0  0  0  0
    7.8225    3.5031   24.2546 H   0  0  0  0  0  0  0  0  0  0  0  0
    8.8517    4.8628   22.8905 C   0  0  0  0  0  0  0  0  0  0  0  0
    8.4173    5.7030   23.4623 H   0  0  0  0  0  0  0  0  0  0  0  0
    8.7567    5.1391   21.8281 H   0  0  0  0  0  0  0  0  0  0  0  0
   10.3512    4.7546   23.2009 C   0  0  0  0  0  0  0  0  0  0  0  0
   10.7713    3.9067   22.6356 H   0  0  0  0  0  0  0  0  0  0  0  0
   10.4987    4.5316   24.2712 H   0  0  0  0  0  0  0  0  0  0  0  0
   11.1526    5.9905   22.7963 C   0  0  0  0  0  0  0  0  0  0  0  0
   11.2074    6.0167   21.6975 H   0  0  0  0  0  0  0  0  0  0  0  0
   10.6316    6.9130   23.0828 H   0  0  0  0  0  0  0  0  0  0  0  0
   12.5640    5.9997   23.3810 C   0  0  0  0  0  0  0  0  0  0  0  0
   12.5525    5.9378   24.4742 H   0  0  0  0  0  0  0  0  0  0  0  0
   13.1181    6.9061   23.1238 H   0  0  0  0  0  0  0  0  0  0  0  0
   13.1433    5.1460   23.0200 H   0  0  0  0  0  0  0  0  0  0  0  0
    8.8847   -1.4506   22.5399 C   0  0  0  0  0  0  0  0  0  0  0  0
    9.1166   -0.9200   23.4773 H   0  0  0  0  0  0  0  0  0  0  0  0
    9.7163   -2.1398   22.3357 H   0  0  0  0  0  0  0  0  0  0  0  0
    7.6946   -2.1985   22.7090 O   0  0  0  0  0  0  0  0  0  0  0  0
    6.7626   -1.8458   21.7732 C   0  0  0  0  0  0  0  0  0  0  0  0
    5.7070   -2.4121   21.6848 O   0  0  0  0  0  0  0  0  0  0  0  0
    5.3973    0.5687   20.0733 C   0  0  0  0  0  0  0  0  0  0  0  0
    4.9319    0.4858   21.0579 H   0  0  0  0  0  0  0  0  0  0  0  0
    4.7938    1.2868   19.0387 C   0  0  0  0  0  0  0  0  0  0  0  0
    3.8528    1.8063   19.1786 H   0  0  0  0  0  0  0  0  0  0  0  0
  1  2  1  0
  2  3  2  0
  3  4  1  0
  4  5  1  0
  4  6  2  0
  6  7  1  0
  7  8  2  0
  8  9  1  0
  9 10  1  0
  9 11  1  0
  9 12  1  0
 12 13  1  0
 12 14  1  0
 12 15  1  0
 15 16  1  0
 15 17  1  0
 15 18  1  0
 18 19  1  0
 18 20  1  0
 18 21  1  0
 21 22  1  0
 21 23  1  0
 21 24  1  0
 24 25  1  0
 24 26  1  0
 24 27  1  0
 27 28  1  0
 27 29  1  0
 27 30  1  0
 30 31  1  0
 30 32  1  0
 30 33  1  0
  8 34  1  0
 34 35  1  0
 34 36  1  0
 34 37  1  0
 37 38  1  0
 38 39  2  0
  6 40  1  0
 40 41  1  0
 40 42  2  0
 42 43  1  0
 42  2  1  0
 38  7  1  0
M  END
>  <cnnaffinity>  (1) 
-5.04434

>  <filename>  (1) 
CCCCCCCCC1=C(c2cccnc2)C(=O)OC1

$$$$
