
     RDKit          3D

 45 46  0  0  0  0  0  0  0  0999 V2000
    4.9171    1.7982   16.9783 H   0  0  0  0  0  0  0  0  0  0  0  0
    5.3958    1.3038   17.8219 C   0  0  0  0  0  0  0  0  0  0  0  0
    6.5598    0.6874   17.5596 N   0  0  0  0  0  0  0  0  0  0  0  0
    7.1824    0.0827   18.5787 C   0  0  0  0  0  0  0  0  0  0  0  0
    8.1188   -0.4240   18.3464 H   0  0  0  0  0  0  0  0  0  0  0  0
    6.6684    0.0332   19.8885 C   0  0  0  0  0  0  0  0  0  0  0  0
    7.3502   -0.6715   20.9423 N   0  0  0  0  0  0  0  0  0  0  0  0
    8.6332   -0.2801   21.2751 C   0  0  0  0  0  0  0  0  0  0  0  0
    9.0073    0.5668   20.7044 H   0  0  0  0  0  0  0  0  0  0  0  0
    9.3581   -0.8874   22.2568 C   0  0  0  0  0  0  0  0  0  0  0  0
   10.7350   -0.4030   22.6641 C   0  0  0  0  0  0  0  0  0  0  0  0
   11.2248    0.1332   21.8360 H   0  0  0  0  0  0  0  0  0  0  0  0
   11.3774   -1.2635   22.8871 H   0  0  0  0  0  0  0  0  0  0  0  0
   10.6818    0.5318   23.8855 C   0  0  0  0  0  0  0  0  0  0  0  0
   10.2042    0.0074   24.7276 H   0  0  0  0  0  0  0  0  0  0  0  0
   11.7065    0.7611   24.2204 H   0  0  0  0  0  0  0  0  0  0  0  0
    9.9208    1.8359   23.6123 C   0  0  0  0  0  0  0  0  0  0  0  0
   10.3643    2.3403   22.7394 H   0  0  0  0  0  0  0  0  0  0  0  0
    8.8719    1.6247   23.3509 H   0  0  0  0  0  0  0  0  0  0  0  0
    9.9974    2.7860   24.8003 C   0  0  0  0  0  0  0  0  0  0  0  0
    9.6946    2.2646   25.7205 H   0  0  0  0  0  0  0  0  0  0  0  0
   11.0675    3.0258   24.8853 H   0  0  0  0  0  0  0  0  0  0  0  0
    9.1709    4.0684   24.6592 C   0  0  0  0  0  0  0  0  0  0  0  0
    9.0946    4.5684   25.6349 H   0  0  0  0  0  0  0  0  0  0  0  0
    8.1366    3.8041   24.3833 H   0  0  0  0  0  0  0  0  0  0  0  0
    9.7340    5.0474   23.6221 C   0  0  0  0  0  0  0  0  0  0  0  0
   10.7667    5.3100   23.9016 H   0  0  0  0  0  0  0  0  0  0  0  0
    9.8102    4.5398   22.6502 H   0  0  0  0  0  0  0  0  0  0  0  0
    8.9109    6.3329   23.4643 C   0  0  0  0  0  0  0  0  0  0  0  0
    7.8604    6.0642   23.2753 H   0  0  0  0  0  0  0  0  0  0  0  0
    9.2482    6.8633   22.5638 H   0  0  0  0  0  0  0  0  0  0  0  0
    8.9980    7.2722   24.6734 C   0  0  0  0  0  0  0  0  0  0  0  0
   10.0417    7.5096   24.9126 H   0  0  0  0  0  0  0  0  0  0  0  0
    8.4763    8.2167   24.4854 H   0  0  0  0  0  0  0  0  0  0  0  0
    8.5568    6.8269   25.5732 H   0  0  0  0  0  0  0  0  0  0  0  0
    8.7382   -1.9582   22.9823 C   0  0  0  0  0  0  0  0  0  0  0  0
    9.2972   -2.4242   23.7951 H   0  0  0  0  0  0  0  0  0  0  0  0
    7.4812   -2.3740   22.6705 C   0  0  0  0  0  0  0  0  0  0  0  0
    6.9670   -3.1861   23.1635 H   0  0  0  0  0  0  0  0  0  0  0  0
    6.7005   -1.7659   21.6078 C   0  0  0  0  0  0  0  0  0  0  0  0
    5.5946   -2.1688   21.2800 O   0  0  0  0  0  0  0  0  0  0  0  0
    5.4498    0.6651   20.1469 C   0  0  0  0  0  0  0  0  0  0  0  0
    5.0299    0.6050   21.1504 H   0  0  0  0  0  0  0  0  0  0  0  0
    4.8104    1.3224   19.0927 C   0  0  0  0  0  0  0  0  0  0  0  0
    3.8728    1.8424   19.2445 H   0  0  0  0  0  0  0  0  0  0  0  0
  1  2  1  0
  2  3  2  0
  3  4  1  0
  4  5  1  0
  4  6  2  0
  6  7  1  0
  7  8  1  0
  8  9  1  0
  8 10  2  0
 10 11  1  0
 11 12  1  0
 11 13  1  0
 11 14  1  0
 14 15  1  0
 14 16  1  0
 14 17  1  0
 17 18  1  0
 17 19  1  0
 17 20  1  0
 20 21  1  0
 20 22  1  0
 20 23  1  0
 23 24  1  0
 23 25  1  0
 23 26  1  0
 26 27  1  0
 26 28  1  0
 26 29  1  0
 29 30  1  0
 29 31  1  0
 29 32  1  0
 32 33  1  0
 32 34  1  0
 32 35  1  0
 10 36  1  0
 36 37  1  0
 36 38  2  0
 38 39  1  0
 38 40  1  0
 40 41  2  0
  6 42  1  0
 42 43  1  0
 42 44  2  0
 44 45  1  0
 44  2  1  0
 40  7  1  0
M  END
>  <cnnaffinity>  (1) 
-5.82593

>  <filename>  (1) 
CCCCCCCCc1ccc(=O)n(-c2cccnc2)c1

$$$$
