
     RDKit          3D

 48 50  0  0  0  0  0  0  0  0999 V2000
    4.9404    1.7887   17.0065 H   0  0  0  0  0  0  0  0  0  0  0  0
    5.4105    1.2810   17.8427 C   0  0  0  0  0  0  0  0  0  0  0  0
    6.5705    0.6599   17.5796 N   0  0  0  0  0  0  0  0  0  0  0  0
    7.1875    0.0452   18.5972 C   0  0  0  0  0  0  0  0  0  0  0  0
    8.1338   -0.4235   18.3400 H   0  0  0  0  0  0  0  0  0  0  0  0
    6.7009   -0.0107   19.9438 C   0  0  0  0  0  0  0  0  0  0  0  0
    7.3984   -0.6200   20.9750 N   0  0  0  0  0  0  0  0  0  0  0  0
    8.6812   -1.2867   20.7892 C   0  0  0  0  0  0  0  0  0  0  0  0
    8.6220   -2.0711   20.0392 H   0  0  0  0  0  0  0  0  0  0  0  0
    9.4487   -0.5788   20.4472 H   0  0  0  0  0  0  0  0  0  0  0  0
    9.0300   -1.8947   22.1336 C   0  0  1  0  0  0  0  0  0  0  0  0
   10.0777   -1.8996   22.4077 H   0  0  0  0  0  0  0  0  0  0  0  0
    7.9211   -1.5666   23.0852 C   0  0  1  0  0  0  0  0  0  0  0  0
    8.1046   -1.2926   24.1192 H   0  0  0  0  0  0  0  0  0  0  0  0
    6.8770   -0.7611   22.3313 C   0  0  0  0  0  0  0  0  0  0  0  0
    6.7335    0.2208   22.8020 H   0  0  0  0  0  0  0  0  0  0  0  0
    5.9186   -1.2948   22.3395 H   0  0  0  0  0  0  0  0  0  0  0  0
    8.1428   -3.0065   22.6664 C   0  0  1  0  0  0  0  0  0  0  0  0
    8.6229   -3.6248   23.4260 H   0  0  0  0  0  0  0  0  0  0  0  0
    7.2003   -3.8027   21.7739 C   0  0  0  0  0  0  0  0  0  0  0  0
    7.8064   -4.4124   21.0858 H   0  0  0  0  0  0  0  0  0  0  0  0
    6.6085   -3.1206   21.1443 H   0  0  0  0  0  0  0  0  0  0  0  0
    6.2549   -4.7453   22.5461 C   0  0  0  0  0  0  0  0  0  0  0  0
    5.7452   -5.4115   21.8324 H   0  0  0  0  0  0  0  0  0  0  0  0
    6.8437   -5.4139   23.1989 H   0  0  0  0  0  0  0  0  0  0  0  0
    5.1936   -4.0149   23.3807 C   0  0  0  0  0  0  0  0  0  0  0  0
    4.6151   -3.3476   22.7234 H   0  0  0  0  0  0  0  0  0  0  0  0
    5.6895   -3.3556   24.1125 H   0  0  0  0  0  0  0  0  0  0  0  0
    4.2150   -4.9481   24.1136 C   0  0  0  0  0  0  0  0  0  0  0  0
    3.6708   -5.5565   23.3742 H   0  0  0  0  0  0  0  0  0  0  0  0
    3.4500   -4.3371   24.6148 H   0  0  0  0  0  0  0  0  0  0  0  0
    4.8576   -5.8949   25.1470 C   0  0  0  0  0  0  0  0  0  0  0  0
    5.4900   -6.6262   24.6242 H   0  0  0  0  0  0  0  0  0  0  0  0
    4.0634   -6.4874   25.6238 H   0  0  0  0  0  0  0  0  0  0  0  0
    5.7025   -5.2067   26.2361 C   0  0  0  0  0  0  0  0  0  0  0  0
    6.0949   -5.9801   26.9145 H   0  0  0  0  0  0  0  0  0  0  0  0
    6.5871   -4.7467   25.7694 H   0  0  0  0  0  0  0  0  0  0  0  0
    4.9635   -4.1472   27.0720 C   0  0  0  0  0  0  0  0  0  0  0  0
    5.6828   -3.6868   27.7638 H   0  0  0  0  0  0  0  0  0  0  0  0
    4.6259   -3.3308   26.4145 H   0  0  0  0  0  0  0  0  0  0  0  0
    3.7751   -4.7080   27.8646 C   0  0  0  0  0  0  0  0  0  0  0  0
    3.3417   -3.9554   28.5330 H   0  0  0  0  0  0  0  0  0  0  0  0
    2.9743   -5.0581   27.2012 H   0  0  0  0  0  0  0  0  0  0  0  0
    4.0825   -5.5645   28.4798 H   0  0  0  0  0  0  0  0  0  0  0  0
    5.4594    0.6346   20.1718 C   0  0  0  0  0  0  0  0  0  0  0  0
    5.0212    0.6324   21.1677 H   0  0  0  0  0  0  0  0  0  0  0  0
    4.8254    1.2885   19.1129 C   0  0  0  0  0  0  0  0  0  0  0  0
    3.8914    1.8207   19.2688 H   0  0  0  0  0  0  0  0  0  0  0  0
  1  2  1  0
  2  3  2  0
  3  4  1  0
  4  5  1  0
  4  6  2  0
  6  7  1  0
  7  8  1  0
  8  9  1  0
  8 10  1  0
  8 11  1  0
 11 12  1  1
 11 13  1  0
 13 14  1  1
 13 15  1  0
 15 16  1  0
 15 17  1  0
 13 18  1  0
 18 19  1  1
 18 20  1  0
 20 21  1  0
 20 22  1  0
 20 23  1  0
 23 24  1  0
 23 25  1  0
 23 26  1  0
 26 27  1  0
 26 28  1  0
 26 29  1  0
 29 30  1  0
 29 31  1  0
 29 32  1  0
 32 33  1  0
 32 34  1  0
 32 35  1  0
 35 36  1  0
 35 37  1  0
 35 38  1  0
 38 39  1  0
 38 40  1  0
 38 41  1  0
 41 42  1  0
 41 43  1  0
 41 44  1  0
  6 45  1  0
 45 46  1  0
 45 47  2  0
 47 48  1  0
 47  2  1  0
 15  7  1  0
 18 11  1  0
M  END
>  <cnnaffinity>  (1) 
-5.62744

>  <filename>  (1) 
CCCCCCCC[C@H]1[C@H]2CN(c3cccnc3)C[C@@H]12

$$$$
