
     RDKit          3D

 42 43  0  0  0  0  0  0  0  0999 V2000
    7.8835   -2.7708   23.4450 C   0  0  0  0  0  0  0  0  0  0  0  0
    7.5214   -3.1180   21.9976 C   0  0  0  0  0  0  0  0  0  0  0  0
    6.6851   -2.0406   21.2868 C   0  0  0  0  0  0  0  0  0  0  0  0
    7.4054   -0.7077   21.0082 C   0  0  0  0  0  0  0  0  0  0  0  0
    7.5837    0.0590   22.2308 N   0  0  0  0  0  0  0  0  0  0  0  0
    8.3698    1.1897   22.3512 C   0  0  0  0  0  0  0  0  0  0  0  0
    9.2521    1.5690   21.3259 C   0  0  0  0  0  0  0  0  0  0  0  0
   10.1370    2.6225   21.5230 C   0  0  0  0  0  0  0  0  0  0  0  0
   10.1164    3.3712   22.7055 C   0  0  0  0  0  0  0  0  0  0  0  0
    9.2299    2.9989   23.7216 C   0  0  0  0  0  0  0  0  0  0  0  0
    9.1796    3.5946   24.9599 O   0  0  0  0  0  0  0  0  0  0  0  0
    9.8092    4.8303   25.2287 C   0  0  0  0  0  0  0  0  0  0  0  0
    9.0877    6.0868   24.7395 C   0  0  0  0  0  0  0  0  0  0  0  0
    9.7884    7.1437   25.2005 F   0  0  0  0  0  0  0  0  0  0  0  0
    7.8422    6.1691   25.2184 F   0  0  0  0  0  0  0  0  0  0  0  0
    9.0358    6.1920   23.4040 F   0  0  0  0  0  0  0  0  0  0  0  0
   10.8377    4.8771   24.8563 H   0  0  0  0  0  0  0  0  0  0  0  0
    9.8263    4.8948   26.3181 H   0  0  0  0  0  0  0  0  0  0  0  0
    8.3540    1.9242   23.5452 C   0  0  0  0  0  0  0  0  0  0  0  0
    7.7071    1.6559   24.3719 H   0  0  0  0  0  0  0  0  0  0  0  0
   10.7521    4.2404   22.8082 H   0  0  0  0  0  0  0  0  0  0  0  0
   10.8573    2.8594   20.7420 H   0  0  0  0  0  0  0  0  0  0  0  0
    9.2209    1.0226   20.3959 H   0  0  0  0  0  0  0  0  0  0  0  0
    6.8718   -0.0161   22.9361 H   0  0  0  0  0  0  0  0  0  0  0  0
    6.6602    0.0572   19.9201 C   0  0  0  0  0  0  0  0  0  0  0  0
    5.4260    0.6839   20.1446 C   0  0  0  0  0  0  0  0  0  0  0  0
    4.7914    1.3219   19.0784 C   0  0  0  0  0  0  0  0  0  0  0  0
    5.3944    1.2945   17.8157 C   0  0  0  0  0  0  0  0  0  0  0  0
    6.5566    0.6705   17.5721 N   0  0  0  0  0  0  0  0  0  0  0  0
    7.1625    0.0780   18.6113 C   0  0  0  0  0  0  0  0  0  0  0  0
    8.1097   -0.4128   18.3755 H   0  0  0  0  0  0  0  0  0  0  0  0
    4.9377    1.7965   16.9652 H   0  0  0  0  0  0  0  0  0  0  0  0
    3.8574    1.8511   19.2169 H   0  0  0  0  0  0  0  0  0  0  0  0
    4.9665    0.6782   21.1364 H   0  0  0  0  0  0  0  0  0  0  0  0
    8.4110   -0.9411   20.6122 H   0  0  0  0  0  0  0  0  0  0  0  0
    5.7684   -1.8272   21.8608 H   0  0  0  0  0  0  0  0  0  0  0  0
    6.3447   -2.4410   20.3225 H   0  0  0  0  0  0  0  0  0  0  0  0
    6.9578   -4.0616   21.9757 H   0  0  0  0  0  0  0  0  0  0  0  0
    8.4343   -3.3093   21.4102 H   0  0  0  0  0  0  0  0  0  0  0  0
    8.3546   -3.6179   23.9571 H   0  0  0  0  0  0  0  0  0  0  0  0
    6.9825   -2.4995   24.0139 H   0  0  0  0  0  0  0  0  0  0  0  0
    8.5743   -1.9235   23.4889 H   0  0  0  0  0  0  0  0  0  0  0  0
  1  2  1  0
  2  3  1  0
  3  4  1  0
  4  5  1  0
  5  6  1  0
  6  7  2  0
  7  8  1  0
  8  9  2  0
  9 10  1  0
 10 11  1  0
 11 12  1  0
 12 13  1  0
 13 14  1  0
 13 15  1  0
 13 16  1  0
 12 17  1  0
 12 18  1  0
 10 19  2  0
 19 20  1  0
  9 21  1  0
  8 22  1  0
  7 23  1  0
  5 24  1  0
  4 25  1  0
 25 26  2  0
 26 27  1  0
 27 28  2  0
 28 29  1  0
 29 30  2  0
 30 31  1  0
 28 32  1  0
 27 33  1  0
 26 34  1  0
  4 35  1  0
  3 36  1  0
  3 37  1  0
  2 38  1  0
  2 39  1  0
  1 40  1  0
  1 41  1  0
  1 42  1  0
 19  6  1  0
 30 25  1  0
M  END
>  <cnnaffinity>  (1) 
-5.36344

>  <filename>  (1) 
CCCC(Nc1cccc(OCC(F)(F)F)c1)c1cccnc1

$$$$
