
     RDKit          3D

 42 43  0  0  0  0  0  0  0  0999 V2000
    4.9269    1.7838   16.9973 H   0  0  0  0  0  0  0  0  0  0  0  0
    5.4032    1.2937   17.8440 C   0  0  0  0  0  0  0  0  0  0  0  0
    6.5583    0.6642   17.5880 N   0  0  0  0  0  0  0  0  0  0  0  0
    7.1671    0.0430   18.6070 C   0  0  0  0  0  0  0  0  0  0  0  0
    8.1114   -0.4346   18.3622 H   0  0  0  0  0  0  0  0  0  0  0  0
    6.6526   -0.0082   19.9133 C   0  0  0  0  0  0  0  0  0  0  0  0
    7.3495   -0.6936   20.9415 N   0  0  0  0  0  0  0  0  0  0  0  0
    6.7161   -1.6384   21.6713 N   0  0  0  0  0  0  0  0  0  0  0  0
    7.6027   -2.0362   22.5688 C   0  0  0  0  0  0  0  0  0  0  0  0
    7.3304   -2.8032   23.2804 H   0  0  0  0  0  0  0  0  0  0  0  0
    8.8246   -1.3521   22.4415 C   0  0  0  0  0  0  0  0  0  0  0  0
    9.7191   -1.4361   23.0460 H   0  0  0  0  0  0  0  0  0  0  0  0
    8.6344   -0.4857   21.3909 C   0  0  0  0  0  0  0  0  0  0  0  0
    9.5694    0.5889   20.9360 C   0  0  0  0  0  0  0  0  0  0  0  0
   10.5678    0.1419   20.8769 H   0  0  0  0  0  0  0  0  0  0  0  0
    9.3196    0.9181   19.9275 H   0  0  0  0  0  0  0  0  0  0  0  0
    9.6259    1.8072   21.8804 C   0  0  0  0  0  0  0  0  0  0  0  0
    9.8335    1.4459   22.8958 H   0  0  0  0  0  0  0  0  0  0  0  0
   10.4855    2.4287   21.6011 H   0  0  0  0  0  0  0  0  0  0  0  0
    8.3467    2.6549   21.8904 C   0  0  0  0  0  0  0  0  0  0  0  0
    8.6095    3.7096   22.0430 H   0  0  0  0  0  0  0  0  0  0  0  0
    7.8720    2.6038   20.9032 H   0  0  0  0  0  0  0  0  0  0  0  0
    7.3110    2.2618   22.9424 C   0  0  0  0  0  0  0  0  0  0  0  0
    7.7658    2.3275   23.9385 H   0  0  0  0  0  0  0  0  0  0  0  0
    7.0224    1.2112   22.8228 H   0  0  0  0  0  0  0  0  0  0  0  0
    6.0557    3.1313   22.8825 C   0  0  0  0  0  0  0  0  0  0  0  0
    6.3205    4.1718   23.1224 H   0  0  0  0  0  0  0  0  0  0  0  0
    5.6793    3.1539   21.8493 H   0  0  0  0  0  0  0  0  0  0  0  0
    4.9380    2.6698   23.8194 C   0  0  0  0  0  0  0  0  0  0  0  0
    4.7085    1.6140   23.6071 H   0  0  0  0  0  0  0  0  0  0  0  0
    4.0191    3.2253   23.5919 H   0  0  0  0  0  0  0  0  0  0  0  0
    5.2601    2.8286   25.3063 C   0  0  0  0  0  0  0  0  0  0  0  0
    5.5633    3.8660   25.4964 H   0  0  0  0  0  0  0  0  0  0  0  0
    6.1326    2.2196   25.5702 H   0  0  0  0  0  0  0  0  0  0  0  0
    4.0850    2.4608   26.2056 C   0  0  0  0  0  0  0  0  0  0  0  0
    3.2137    3.0879   25.9872 H   0  0  0  0  0  0  0  0  0  0  0  0
    4.3280    2.5812   27.2655 H   0  0  0  0  0  0  0  0  0  0  0  0
    3.7815    1.4201   26.0480 H   0  0  0  0  0  0  0  0  0  0  0  0
    5.4408    0.6446   20.1728 C   0  0  0  0  0  0  0  0  0  0  0  0
    5.0147    0.6192   21.1795 H   0  0  0  0  0  0  0  0  0  0  0  0
    4.8149    1.3134   19.1150 C   0  0  0  0  0  0  0  0  0  0  0  0
    3.8790    1.8399   19.2568 H   0  0  0  0  0  0  0  0  0  0  0  0
  1  2  1  0
  2  3  2  0
  3  4  1  0
  4  5  1  0
  4  6  2  0
  6  7  1  0
  7  8  1  0
  8  9  2  0
  9 10  1  0
  9 11  1  0
 11 12  1  0
 11 13  2  0
 13 14  1  0
 14 15  1  0
 14 16  1  0
 14 17  1  0
 17 18  1  0
 17 19  1  0
 17 20  1  0
 20 21  1  0
 20 22  1  0
 20 23  1  0
 23 24  1  0
 23 25  1  0
 23 26  1  0
 26 27  1  0
 26 28  1  0
 26 29  1  0
 29 30  1  0
 29 31  1  0
 29 32  1  0
 32 33  1  0
 32 34  1  0
 32 35  1  0
 35 36  1  0
 35 37  1  0
 35 38  1  0
  6 39  1  0
 39 40  1  0
 39 41  2  0
 41 42  1  0
 41  2  1  0
 13  7  1  0
M  END
>  <cnnaffinity>  (1) 
-5.28193

>  <filename>  (1) 
CCCCCCCCc1ccnn1-c1cccnc1

$$$$
