
     RDKit          3D

 42 43  0  0  0  0  0  0  0  0999 V2000
    4.9996    1.8452   16.7754 H   0  0  0  0  0  0  0  0  0  0  0  0
    5.4007    1.3695   17.6702 C   0  0  0  0  0  0  0  0  0  0  0  0
    6.5634    0.7109   17.5280 N   0  0  0  0  0  0  0  0  0  0  0  0
    7.0766    0.1211   18.6135 C   0  0  0  0  0  0  0  0  0  0  0  0
    8.0134   -0.4074   18.4467 H   0  0  0  0  0  0  0  0  0  0  0  0
    6.4877    0.1536   19.8982 C   0  0  0  0  0  0  0  0  0  0  0  0
    7.1036   -0.4757   21.0749 C   0  0  0  0  0  0  0  0  0  0  0  0
    6.9377   -0.2907   22.4278 C   0  0  0  0  0  0  0  0  0  0  0  0
    6.3054    0.4270   22.9334 H   0  0  0  0  0  0  0  0  0  0  0  0
    7.7303   -1.1489   23.1378 N   0  0  0  0  0  0  0  0  0  0  0  0
    8.3643   -1.8742   22.2489 C   0  0  0  0  0  0  0  0  0  0  0  0
    9.2706   -3.0151   22.5821 C   0  0  0  0  0  0  0  0  0  0  0  0
   10.0539   -3.0489   21.8239 H   0  0  0  0  0  0  0  0  0  0  0  0
    9.7641   -2.7532   23.5216 H   0  0  0  0  0  0  0  0  0  0  0  0
    8.5636   -4.3718   22.7847 C   0  0  0  0  0  0  0  0  0  0  0  0
    7.8018   -4.2223   23.5600 H   0  0  0  0  0  0  0  0  0  0  0  0
    9.2776   -5.0697   23.2380 H   0  0  0  0  0  0  0  0  0  0  0  0
    7.9284   -5.0559   21.5584 C   0  0  0  0  0  0  0  0  0  0  0  0
    8.6726   -5.6152   20.9862 H   0  0  0  0  0  0  0  0  0  0  0  0
    7.5158   -4.3105   20.8611 H   0  0  0  0  0  0  0  0  0  0  0  0
    6.8268   -6.0599   21.9588 C   0  0  0  0  0  0  0  0  0  0  0  0
    6.9377   -6.9826   21.3799 H   0  0  0  0  0  0  0  0  0  0  0  0
    6.9732   -6.3704   23.0045 H   0  0  0  0  0  0  0  0  0  0  0  0
    5.4095   -5.5079   21.7586 C   0  0  0  0  0  0  0  0  0  0  0  0
    5.2791   -5.2788   20.6909 H   0  0  0  0  0  0  0  0  0  0  0  0
    4.6776   -6.2937   21.9947 H   0  0  0  0  0  0  0  0  0  0  0  0
    5.0982   -4.2510   22.5813 C   0  0  0  0  0  0  0  0  0  0  0  0
    4.1426   -3.8327   22.2399 H   0  0  0  0  0  0  0  0  0  0  0  0
    5.8464   -3.4648   22.3818 H   0  0  0  0  0  0  0  0  0  0  0  0
    5.0104   -4.5087   24.0892 C   0  0  0  0  0  0  0  0  0  0  0  0
    5.9372   -4.9763   24.4489 H   0  0  0  0  0  0  0  0  0  0  0  0
    4.2244   -5.2524   24.2826 H   0  0  0  0  0  0  0  0  0  0  0  0
    4.7396   -3.2474   24.9042 C   0  0  0  0  0  0  0  0  0  0  0  0
    3.7887   -2.7812   24.6224 H   0  0  0  0  0  0  0  0  0  0  0  0
    5.5237   -2.4954   24.7575 H   0  0  0  0  0  0  0  0  0  0  0  0
    4.6901   -3.4794   25.9725 H   0  0  0  0  0  0  0  0  0  0  0  0
    8.0631   -1.4744   20.9826 N   0  0  0  0  0  0  0  0  0  0  0  0
    8.3233   -1.9603   20.1426 H   0  0  0  0  0  0  0  0  0  0  0  0
    5.2559    0.8221   20.0076 C   0  0  0  0  0  0  0  0  0  0  0  0
    4.7388    0.8342   20.9636 H   0  0  0  0  0  0  0  0  0  0  0  0
    4.7051    1.4349   18.8811 C   0  0  0  0  0  0  0  0  0  0  0  0
    3.7556    1.9554   18.9277 H   0  0  0  0  0  0  0  0  0  0  0  0
  1  2  1  0
  2  3  2  0
  3  4  1  0
  4  5  1  0
  4  6  2  0
  6  7  1  0
  7  8  2  0
  8  9  1  0
  8 10  1  0
 10 11  2  0
 11 12  1  0
 12 13  1  0
 12 14  1  0
 12 15  1  0
 15 16  1  0
 15 17  1  0
 15 18  1  0
 18 19  1  0
 18 20  1  0
 18 21  1  0
 21 22  1  0
 21 23  1  0
 21 24  1  0
 24 25  1  0
 24 26  1  0
 24 27  1  0
 27 28  1  0
 27 29  1  0
 27 30  1  0
 30 31  1  0
 30 32  1  0
 30 33  1  0
 33 34  1  0
 33 35  1  0
 33 36  1  0
 11 37  1  0
 37 38  1  0
  6 39  1  0
 39 40  1  0
 39 41  2  0
 41 42  1  0
 41  2  1  0
 37  7  1  0
M  END
>  <cnnaffinity>  (1) 
-5.13699

>  <filename>  (1) 
CCCCCCCCc1ncc(-c2cccnc2)[nH]1

$$$$
