
     RDKit          3D

 39 41  0  0  0  0  0  0  0  0999 V2000
    6.5351   -4.8569   22.3893 C   0  0  0  0  0  0  0  0  0  0  0  0
    7.8272   -4.4496   23.0891 C   0  0  0  0  0  0  0  0  0  0  0  0
    8.6842   -3.5341   22.2046 C   0  0  0  0  0  0  0  0  0  0  0  0
    8.1003   -2.1761   21.9755 C   0  0  0  0  0  0  0  0  0  0  0  0
    7.6537   -1.8159   20.7936 N   0  0  0  0  0  0  0  0  0  0  0  0
    7.1880   -0.5591   20.9986 N   0  0  0  0  0  0  0  0  0  0  0  0
    6.5509    0.1046   19.9164 C   0  0  0  0  0  0  0  0  0  0  0  0
    5.3438    0.7929   20.0779 C   0  0  0  0  0  0  0  0  0  0  0  0
    4.7843    1.4107   18.9535 C   0  0  0  0  0  0  0  0  0  0  0  0
    5.4540    1.3312   17.7302 C   0  0  0  0  0  0  0  0  0  0  0  0
    6.5964    0.6389   17.5634 N   0  0  0  0  0  0  0  0  0  0  0  0
    7.1112    0.0160   18.6277 C   0  0  0  0  0  0  0  0  0  0  0  0
    8.0039   -0.5865   18.4583 H   0  0  0  0  0  0  0  0  0  0  0  0
    5.0322    1.7898   16.8383 H   0  0  0  0  0  0  0  0  0  0  0  0
    3.8319    1.9268   19.0167 H   0  0  0  0  0  0  0  0  0  0  0  0
    4.8526    0.8105   21.0501 H   0  0  0  0  0  0  0  0  0  0  0  0
    7.4563   -0.1966   22.2937 C   0  0  0  0  0  0  0  0  0  0  0  0
    7.2609    1.1610   22.9211 C   0  0  0  0  0  0  0  0  0  0  0  0
    8.5526    1.6863   23.5411 C   0  0  0  0  0  0  0  0  0  0  0  0
    8.7978    1.5769   24.9157 C   0  0  0  0  0  0  0  0  0  0  0  0
   10.0548    1.8587   25.4588 C   0  0  0  0  0  0  0  0  0  0  0  0
   11.0737    2.3353   24.6340 C   0  0  0  0  0  0  0  0  0  0  0  0
   10.8433    2.5217   23.2716 C   0  0  0  0  0  0  0  0  0  0  0  0
    9.5989    2.1679   22.7429 C   0  0  0  0  0  0  0  0  0  0  0  0
    9.3650    2.2940   21.0337 Cl  0  0  0  0  0  0  0  0  0  0  0  0
   11.6036    2.9351   22.6161 H   0  0  0  0  0  0  0  0  0  0  0  0
   12.0519    2.5513   25.0477 H   0  0  0  0  0  0  0  0  0  0  0  0
   10.2475    1.6885   26.5095 H   0  0  0  0  0  0  0  0  0  0  0  0
    7.9839    1.2599   25.5595 H   0  0  0  0  0  0  0  0  0  0  0  0
    6.8933    1.8704   22.1751 H   0  0  0  0  0  0  0  0  0  0  0  0
    6.4966    1.0696   23.6984 H   0  0  0  0  0  0  0  0  0  0  0  0
    8.0057   -1.2163   22.9304 N   0  0  0  0  0  0  0  0  0  0  0  0
    9.6842   -3.4193   22.6354 H   0  0  0  0  0  0  0  0  0  0  0  0
    8.7797   -3.9715   21.2092 H   0  0  0  0  0  0  0  0  0  0  0  0
    8.4038   -5.3442   23.3529 H   0  0  0  0  0  0  0  0  0  0  0  0
    7.6188   -3.9424   24.0394 H   0  0  0  0  0  0  0  0  0  0  0  0
    5.9309   -5.5062   23.0314 H   0  0  0  0  0  0  0  0  0  0  0  0
    6.7531   -5.4076   21.4653 H   0  0  0  0  0  0  0  0  0  0  0  0
    5.9392   -3.9810   22.1056 H   0  0  0  0  0  0  0  0  0  0  0  0
  1  2  1  0
  2  3  1  0
  3  4  1  0
  4  5  2  0
  5  6  1  0
  6  7  1  0
  7  8  2  0
  8  9  1  0
  9 10  2  0
 10 11  1  0
 11 12  2  0
 12 13  1  0
 10 14  1  0
  9 15  1  0
  8 16  1  0
  6 17  1  0
 17 18  1  0
 18 19  1  0
 19 20  2  0
 20 21  1  0
 21 22  2  0
 22 23  1  0
 23 24  2  0
 24 25  1  0
 23 26  1  0
 22 27  1  0
 21 28  1  0
 20 29  1  0
 18 30  1  0
 18 31  1  0
 17 32  2  0
  3 33  1  0
  3 34  1  0
  2 35  1  0
  2 36  1  0
  1 37  1  0
  1 38  1  0
  1 39  1  0
 32  4  1  0
 12  7  1  0
 24 19  1  0
M  END
>  <cnnaffinity>  (1) 
-6.0

>  <filename>  (1) 
CCCc1nc(Cc2ccccc2Cl)n(-c2cccnc2)n1

$$$$
