
     RDKit          3D

 41 42  0  0  0  0  0  0  0  0999 V2000
    9.9288   -2.4639   21.8794 H   0  0  0  0  0  0  0  0  0  0  0  0
    9.0017   -1.9053   21.8916 C   0  0  0  0  0  0  0  0  0  0  0  0
    8.5485   -1.3363   20.7317 N   0  0  0  0  0  0  0  0  0  0  0  0
    7.4247   -0.7194   20.9377 C   0  0  0  0  0  0  0  0  0  0  0  0
    6.6669    0.0032   19.9072 C   0  0  0  0  0  0  0  0  0  0  0  0
    7.1824    0.0553   18.6028 C   0  0  0  0  0  0  0  0  0  0  0  0
    8.1273   -0.4311   18.3759 H   0  0  0  0  0  0  0  0  0  0  0  0
    6.5706    0.6721   17.5898 N   0  0  0  0  0  0  0  0  0  0  0  0
    5.4069    1.2868   17.8469 C   0  0  0  0  0  0  0  0  0  0  0  0
    4.9214    1.7742   17.0033 H   0  0  0  0  0  0  0  0  0  0  0  0
    4.8117    1.3050   19.1138 C   0  0  0  0  0  0  0  0  0  0  0  0
    3.8799    1.8387   19.2636 H   0  0  0  0  0  0  0  0  0  0  0  0
    5.4461    0.6473   20.1651 C   0  0  0  0  0  0  0  0  0  0  0  0
    4.9978    0.6377   21.1639 H   0  0  0  0  0  0  0  0  0  0  0  0
    6.8516   -0.8022   22.5827 S   0  0  0  0  0  0  0  0  0  0  0  0
    8.2422   -1.7279   23.0118 C   0  0  0  0  0  0  0  0  0  0  0  0
    8.4828   -2.2983   24.3763 C   0  0  0  0  0  0  0  0  0  0  0  0
    7.8869   -1.7618   25.1256 H   0  0  0  0  0  0  0  0  0  0  0  0
    9.5349   -2.1363   24.6482 H   0  0  0  0  0  0  0  0  0  0  0  0
    8.1614   -3.7994   24.4539 C   0  0  0  0  0  0  0  0  0  0  0  0
    8.7508   -4.3361   23.6987 H   0  0  0  0  0  0  0  0  0  0  0  0
    8.4940   -4.1889   25.4254 H   0  0  0  0  0  0  0  0  0  0  0  0
    6.6781   -4.1147   24.2346 C   0  0  0  0  0  0  0  0  0  0  0  0
    6.3994   -3.8196   23.2170 H   0  0  0  0  0  0  0  0  0  0  0  0
    6.0706   -3.4792   24.8942 H   0  0  0  0  0  0  0  0  0  0  0  0
    6.3173   -5.5897   24.4611 C   0  0  0  0  0  0  0  0  0  0  0  0
    7.2290   -6.1912   24.3517 H   0  0  0  0  0  0  0  0  0  0  0  0
    5.6371   -5.9302   23.6715 H   0  0  0  0  0  0  0  0  0  0  0  0
    5.6764   -5.8907   25.8183 C   0  0  0  0  0  0  0  0  0  0  0  0
    4.7642   -5.2857   25.9177 H   0  0  0  0  0  0  0  0  0  0  0  0
    5.3414   -6.9357   25.8292 H   0  0  0  0  0  0  0  0  0  0  0  0
    6.5740   -5.6190   27.0251 C   0  0  0  0  0  0  0  0  0  0  0  0
    6.8465   -4.5560   27.0477 H   0  0  0  0  0  0  0  0  0  0  0  0
    7.5177   -6.1723   26.9052 H   0  0  0  0  0  0  0  0  0  0  0  0
    5.9413   -5.9967   28.3669 C   0  0  0  0  0  0  0  0  0  0  0  0
    4.9430   -5.5472   28.4360 H   0  0  0  0  0  0  0  0  0  0  0  0
    6.5307   -5.5553   29.1792 H   0  0  0  0  0  0  0  0  0  0  0  0
    5.8340   -7.5015   28.5996 C   0  0  0  0  0  0  0  0  0  0  0  0
    5.1649   -7.9875   27.8803 H   0  0  0  0  0  0  0  0  0  0  0  0
    5.4683   -7.7259   29.6051 H   0  0  0  0  0  0  0  0  0  0  0  0
    6.8170   -7.9689   28.5157 H   0  0  0  0  0  0  0  0  0  0  0  0
  1  2  1  0
  2  3  1  0
  3  4  2  0
  4  5  1  0
  5  6  2  0
  6  7  1  0
  6  8  1  0
  8  9  2  0
  9 10  1  0
  9 11  1  0
 11 12  1  0
 11 13  2  0
 13 14  1  0
  4 15  1  0
 15 16  1  0
 16 17  1  0
 17 18  1  0
 17 19  1  0
 17 20  1  0
 20 21  1  0
 20 22  1  0
 20 23  1  0
 23 24  1  0
 23 25  1  0
 23 26  1  0
 26 27  1  0
 26 28  1  0
 26 29  1  0
 29 30  1  0
 29 31  1  0
 29 32  1  0
 32 33  1  0
 32 34  1  0
 32 35  1  0
 35 36  1  0
 35 37  1  0
 35 38  1  0
 38 39  1  0
 38 40  1  0
 38 41  1  0
 16  2  2  0
 13  5  1  0
M  END
>  <cnnaffinity>  (1) 
-5.39391

>  <filename>  (1) 
CCCCCCCCc1cnc(-c2cccnc2)s1

$$$$
