
     RDKit          3D

 45 46  0  0  0  0  0  0  0  0999 V2000
    4.6262   -1.5956   30.8567 C   0  0  0  0  0  0  0  0  0  0  0  0
    3.6593   -0.9721   29.8542 C   0  0  0  0  0  0  0  0  0  0  0  0
    3.8489   -1.4210   28.3974 C   0  0  0  0  0  0  0  0  0  0  0  0
    5.0328   -0.8522   27.6092 C   0  0  0  0  0  0  0  0  0  0  0  0
    6.3022   -1.3763   28.0370 O   0  0  0  0  0  0  0  0  0  0  0  0
    6.1225   -2.2561   28.4045 H   0  0  0  0  0  0  0  0  0  0  0  0
    4.8705   -1.1471   26.1128 C   0  0  0  0  0  0  0  0  0  0  0  0
    5.8582   -0.3826   25.2543 C   0  0  0  0  0  0  0  0  0  0  0  0
    7.2190   -0.8917   25.5935 N   0  0  0  0  0  4  0  0  0  0  0  0
    8.2994   -0.1810   24.8697 C   0  0  0  0  0  0  0  0  0  0  0  0
    8.2222   -0.6430   23.4244 C   0  0  0  0  0  0  0  0  0  0  0  0
    8.6337   -1.9523   23.1335 C   0  0  0  0  0  0  0  0  0  0  0  0
    8.3696   -2.5729   21.9778 N   0  0  0  0  0  0  0  0  0  0  0  0
    7.7031   -1.8841   21.0449 C   0  0  0  0  0  0  0  0  0  0  0  0
    7.3197   -0.5369   21.1548 C   0  0  0  0  0  0  0  0  0  0  0  0
    6.6279    0.1462   20.0032 C   0  0  0  0  0  0  0  0  0  0  0  0
    5.3921    0.7901   20.1677 C   0  0  0  0  0  0  0  0  0  0  0  0
    4.7707    1.3795   19.0628 C   0  0  0  0  0  0  0  0  0  0  0  0
    5.4037    1.3337   17.8193 C   0  0  0  0  0  0  0  0  0  0  0  0
    6.5837    0.7238   17.6265 N   0  0  0  0  0  0  0  0  0  0  0  0
    7.1605    0.1482   18.6896 C   0  0  0  0  0  0  0  0  0  0  0  0
    8.1084   -0.3485   18.4849 H   0  0  0  0  0  0  0  0  0  0  0  0
    4.9410    1.7874   16.9418 H   0  0  0  0  0  0  0  0  0  0  0  0
    3.8100    1.8700   19.1480 H   0  0  0  0  0  0  0  0  0  0  0  0
    4.9204    0.8084   21.1501 H   0  0  0  0  0  0  0  0  0  0  0  0
    7.5686    0.0699   22.4006 C   0  0  0  0  0  0  0  0  0  0  0  0
    7.1882    1.0748   22.5891 H   0  0  0  0  0  0  0  0  0  0  0  0
    7.4172   -2.4351   20.1563 H   0  0  0  0  0  0  0  0  0  0  0  0
    9.1931   -2.5434   23.8576 H   0  0  0  0  0  0  0  0  0  0  0  0
    8.1420    0.9032   24.9509 H   0  0  0  0  0  0  0  0  0  0  0  0
    9.2670   -0.3999   25.3350 H   0  0  0  0  0  0  0  0  0  0  0  0
    7.2780   -0.8819   26.6419 H   0  0  0  0  0  0  0  0  0  0  0  0
    7.2533   -1.8888   25.2810 H   0  0  0  0  0  0  0  0  0  0  0  0
    5.6448   -0.5081   24.1856 H   0  0  0  0  0  0  0  0  0  0  0  0
    5.8004    0.7001   25.4568 H   0  0  0  0  0  0  0  0  0  0  0  0
    3.8558   -0.8842   25.8008 H   0  0  0  0  0  0  0  0  0  0  0  0
    4.9921   -2.2311   25.9388 H   0  0  0  0  0  0  0  0  0  0  0  0
    5.0904    0.2381   27.7766 H   0  0  0  0  0  0  0  0  0  0  0  0
    3.9046   -2.5212   28.3557 H   0  0  0  0  0  0  0  0  0  0  0  0
    2.9411   -1.1342   27.8510 H   0  0  0  0  0  0  0  0  0  0  0  0
    3.7183    0.1258   29.9227 H   0  0  0  0  0  0  0  0  0  0  0  0
    2.6345   -1.2414   30.1440 H   0  0  0  0  0  0  0  0  0  0  0  0
    4.3638   -1.3056   31.8815 H   0  0  0  0  0  0  0  0  0  0  0  0
    4.5938   -2.6922   30.8121 H   0  0  0  0  0  0  0  0  0  0  0  0
    5.6524   -1.2730   30.6648 H   0  0  0  0  0  0  0  0  0  0  0  0
  1  2  1  0
  2  3  1  0
  3  4  1  0
  4  5  1  0
  5  6  1  0
  4  7  1  0
  7  8  1  0
  8  9  1  0
  9 10  1  0
 10 11  1  0
 11 12  2  0
 12 13  1  0
 13 14  2  0
 14 15  1  0
 15 16  1  0
 16 17  2  0
 17 18  1  0
 18 19  2  0
 19 20  1  0
 20 21  2  0
 21 22  1  0
 19 23  1  0
 18 24  1  0
 17 25  1  0
 15 26  2  0
 26 27  1  0
 14 28  1  0
 12 29  1  0
 10 30  1  0
 10 31  1  0
  9 32  1  0
  9 33  1  0
  8 34  1  0
  8 35  1  0
  7 36  1  0
  7 37  1  0
  4 38  1  0
  3 39  1  0
  3 40  1  0
  2 41  1  0
  2 42  1  0
  1 43  1  0
  1 44  1  0
  1 45  1  0
 26 11  1  0
 21 16  1  0
M  CHG  1   9   1
M  END
>  <cnnaffinity>  (1) 
-4.20047

>  <filename>  (1) 
CCCC(O)CC[NH2+]Cc1cncc(-c2cccnc2)c1

$$$$
