
     RDKit          3D

 45 46  0  0  0  0  0  0  0  0999 V2000
    4.9219    1.7962   16.9789 H   0  0  0  0  0  0  0  0  0  0  0  0
    5.3897    1.3025   17.8270 C   0  0  0  0  0  0  0  0  0  0  0  0
    6.5547    0.6836   17.5713 N   0  0  0  0  0  0  0  0  0  0  0  0
    7.1465    0.0615   18.5976 C   0  0  0  0  0  0  0  0  0  0  0  0
    8.0998   -0.4147   18.3708 H   0  0  0  0  0  0  0  0  0  0  0  0
    6.6280   -0.0127   19.9011 C   0  0  0  0  0  0  0  0  0  0  0  0
    7.4033   -0.7171   20.9902 C   0  0  0  0  0  0  0  0  0  0  0  0
    7.7301   -1.7086   20.6528 H   0  0  0  0  0  0  0  0  0  0  0  0
    6.7533   -0.9040   21.8601 H   0  0  0  0  0  0  0  0  0  0  0  0
    8.6128    0.0703   21.4062 C   0  0  0  0  0  0  0  0  0  0  0  0
    9.9298   -0.0180   20.9087 C   0  0  0  0  0  0  0  0  0  0  0  0
   10.3089   -0.6967   20.1614 H   0  0  0  0  0  0  0  0  0  0  0  0
   10.7393    0.8846   21.4475 N   0  0  0  0  0  0  0  0  0  0  0  0
    9.9399    1.5539   22.2895 N   0  0  0  0  0  0  0  0  0  0  0  0
   10.3411    2.2818   22.8635 H   0  0  0  0  0  0  0  0  0  0  0  0
    8.6522    1.1263   22.2993 C   0  0  0  0  0  0  0  0  0  0  0  0
    7.6112    1.7010   23.2119 C   0  0  0  0  0  0  0  0  0  0  0  0
    7.6541    2.7973   23.2189 H   0  0  0  0  0  0  0  0  0  0  0  0
    6.6249    1.4532   22.8018 H   0  0  0  0  0  0  0  0  0  0  0  0
    7.7011    1.1601   24.6501 C   0  0  0  0  0  0  0  0  0  0  0  0
    8.7031    1.3774   25.0457 H   0  0  0  0  0  0  0  0  0  0  0  0
    6.9972    1.7048   25.2935 H   0  0  0  0  0  0  0  0  0  0  0  0
    7.4376   -0.3422   24.7562 C   0  0  0  0  0  0  0  0  0  0  0  0
    6.4515   -0.5740   24.3266 H   0  0  0  0  0  0  0  0  0  0  0  0
    8.1598   -0.8955   24.1363 H   0  0  0  0  0  0  0  0  0  0  0  0
    7.5049   -0.8466   26.1990 C   0  0  0  0  0  0  0  0  0  0  0  0
    6.7040   -0.3707   26.7836 H   0  0  0  0  0  0  0  0  0  0  0  0
    8.4427   -0.5059   26.6590 H   0  0  0  0  0  0  0  0  0  0  0  0
    7.4155   -2.3706   26.3363 C   0  0  0  0  0  0  0  0  0  0  0  0
    7.5121   -2.6386   27.3971 H   0  0  0  0  0  0  0  0  0  0  0  0
    8.2838   -2.8192   25.8341 H   0  0  0  0  0  0  0  0  0  0  0  0
    6.1341   -3.0056   25.7829 C   0  0  0  0  0  0  0  0  0  0  0  0
    6.2051   -4.0954   25.8952 H   0  0  0  0  0  0  0  0  0  0  0  0
    6.0661   -2.8275   24.7004 H   0  0  0  0  0  0  0  0  0  0  0  0
    4.8489   -2.5153   26.4548 C   0  0  0  0  0  0  0  0  0  0  0  0
    4.7135   -1.4430   26.2637 H   0  0  0  0  0  0  0  0  0  0  0  0
    4.9629   -2.6024   27.5439 H   0  0  0  0  0  0  0  0  0  0  0  0
    3.6107   -3.2840   25.9940 C   0  0  0  0  0  0  0  0  0  0  0  0
    3.7072   -4.3540   26.2147 H   0  0  0  0  0  0  0  0  0  0  0  0
    3.4662   -3.1895   24.9107 H   0  0  0  0  0  0  0  0  0  0  0  0
    2.7011   -2.9234   26.4841 H   0  0  0  0  0  0  0  0  0  0  0  0
    5.4179    0.6486   20.1412 C   0  0  0  0  0  0  0  0  0  0  0  0
    4.9867    0.6421   21.1475 H   0  0  0  0  0  0  0  0  0  0  0  0
    4.7918    1.3184   19.0897 C   0  0  0  0  0  0  0  0  0  0  0  0
    3.8647    1.8516   19.2396 H   0  0  0  0  0  0  0  0  0  0  0  0
  1  2  1  0
  2  3  2  0
  3  4  1  0
  4  5  1  0
  4  6  2  0
  6  7  1  0
  7  8  1  0
  7  9  1  0
  7 10  1  0
 10 11  1  0
 11 12  1  0
 11 13  2  0
 13 14  1  0
 14 15  1  0
 14 16  1  0
 16 17  1  0
 17 18  1  0
 17 19  1  0
 17 20  1  0
 20 21  1  0
 20 22  1  0
 20 23  1  0
 23 24  1  0
 23 25  1  0
 23 26  1  0
 26 27  1  0
 26 28  1  0
 26 29  1  0
 29 30  1  0
 29 31  1  0
 29 32  1  0
 32 33  1  0
 32 34  1  0
 32 35  1  0
 35 36  1  0
 35 37  1  0
 35 38  1  0
 38 39  1  0
 38 40  1  0
 38 41  1  0
  6 42  1  0
 42 43  1  0
 42 44  2  0
 44 45  1  0
 44  2  1  0
 16 10  2  0
M  END
>  <cnnaffinity>  (1) 
-5.2694

>  <filename>  (1) 
CCCCCCCCc1[nH]ncc1Cc1cccnc1

$$$$
