
     RDKit          3D

 42 43  0  0  0  0  0  0  0  0999 V2000
    4.9313    1.8205   16.9682 H   0  0  0  0  0  0  0  0  0  0  0  0
    5.4071    1.3246   17.8105 C   0  0  0  0  0  0  0  0  0  0  0  0
    6.5702    0.7069   17.5467 N   0  0  0  0  0  0  0  0  0  0  0  0
    7.1790    0.0726   18.5572 C   0  0  0  0  0  0  0  0  0  0  0  0
    8.1245   -0.4173   18.3254 H   0  0  0  0  0  0  0  0  0  0  0  0
    6.6530   -0.0015   19.8641 C   0  0  0  0  0  0  0  0  0  0  0  0
    7.3383   -0.7060   20.9230 N   0  0  0  0  0  0  0  0  0  0  0  0
    8.6235   -0.3035   21.2621 C   0  0  0  0  0  0  0  0  0  0  0  0
    8.9948    0.5381   20.6806 H   0  0  0  0  0  0  0  0  0  0  0  0
    9.3510   -0.9014   22.2530 C   0  0  0  0  0  0  0  0  0  0  0  0
   10.7193   -0.3933   22.6517 C   0  0  0  0  0  0  0  0  0  0  0  0
   11.3065   -1.2285   23.0518 H   0  0  0  0  0  0  0  0  0  0  0  0
   11.2676   -0.0462   21.7645 H   0  0  0  0  0  0  0  0  0  0  0  0
   10.6605    0.7382   23.6925 C   0  0  0  0  0  0  0  0  0  0  0  0
   10.0581    0.3949   24.5432 H   0  0  0  0  0  0  0  0  0  0  0  0
   10.1094    1.5866   23.2648 H   0  0  0  0  0  0  0  0  0  0  0  0
   12.0259    1.2286   24.1957 C   0  0  0  0  0  0  0  0  0  0  0  0
   12.5476    0.3972   24.6903 H   0  0  0  0  0  0  0  0  0  0  0  0
   11.8595    1.9739   24.9854 H   0  0  0  0  0  0  0  0  0  0  0  0
   12.9555    1.8143   23.1171 C   0  0  0  0  0  0  0  0  0  0  0  0
   13.8909    2.1372   23.5926 H   0  0  0  0  0  0  0  0  0  0  0  0
   13.2380    1.0115   22.4213 H   0  0  0  0  0  0  0  0  0  0  0  0
   12.3769    2.9736   22.2884 C   0  0  0  0  0  0  0  0  0  0  0  0
   11.5271    2.5959   21.7018 H   0  0  0  0  0  0  0  0  0  0  0  0
   13.1175    3.2902   21.5425 H   0  0  0  0  0  0  0  0  0  0  0  0
   11.9310    4.2312   23.0506 C   0  0  0  0  0  0  0  0  0  0  0  0
   11.2245    3.9668   23.8526 H   0  0  0  0  0  0  0  0  0  0  0  0
   11.3630    4.8500   22.3455 H   0  0  0  0  0  0  0  0  0  0  0  0
   13.0625    5.1102   23.5914 C   0  0  0  0  0  0  0  0  0  0  0  0
   13.7030    4.5877   24.3117 H   0  0  0  0  0  0  0  0  0  0  0  0
   12.6650    5.9957   24.0966 H   0  0  0  0  0  0  0  0  0  0  0  0
   13.7013    5.4734   22.7790 H   0  0  0  0  0  0  0  0  0  0  0  0
    8.7341   -1.9793   22.9702 C   0  0  0  0  0  0  0  0  0  0  0  0
    9.2892   -2.4723   23.7729 H   0  0  0  0  0  0  0  0  0  0  0  0
    7.4737   -2.3909   22.6695 C   0  0  0  0  0  0  0  0  0  0  0  0
    6.9605   -3.1935   23.1786 H   0  0  0  0  0  0  0  0  0  0  0  0
    6.6854   -1.7955   21.6034 C   0  0  0  0  0  0  0  0  0  0  0  0
    5.5785   -2.2027   21.2843 O   0  0  0  0  0  0  0  0  0  0  0  0
    5.4378    0.6482   20.1219 C   0  0  0  0  0  0  0  0  0  0  0  0
    5.0164    0.6120   21.1255 H   0  0  0  0  0  0  0  0  0  0  0  0
    4.8064    1.3292   19.0748 C   0  0  0  0  0  0  0  0  0  0  0  0
    3.8649    1.8539   19.2207 H   0  0  0  0  0  0  0  0  0  0  0  0
  1  2  1  0
  2  3  2  0
  3  4  1  0
  4  5  1  0
  4  6  2  0
  6  7  1  0
  7  8  1  0
  8  9  1  0
  8 10  2  0
 10 11  1  0
 11 12  1  0
 11 13  1  0
 11 14  1  0
 14 15  1  0
 14 16  1  0
 14 17  1  0
 17 18  1  0
 17 19  1  0
 17 20  1  0
 20 21  1  0
 20 22  1  0
 20 23  1  0
 23 24  1  0
 23 25  1  0
 23 26  1  0
 26 27  1  0
 26 28  1  0
 26 29  1  0
 29 30  1  0
 29 31  1  0
 29 32  1  0
 10 33  1  0
 33 34  1  0
 33 35  2  0
 35 36  1  0
 35 37  1  0
 37 38  2  0
  6 39  1  0
 39 40  1  0
 39 41  2  0
 41 42  1  0
 41  2  1  0
 37  7  1  0
M  END
>  <cnnaffinity>  (1) 
-5.49954

>  <filename>  (1) 
CCCCCCCc1ccc(=O)n(-c2cccnc2)c1

$$$$
