
     RDKit          3D

 39 40  0  0  0  0  0  0  0  0999 V2000
    5.2970    2.1114   16.8083 H   0  0  0  0  0  0  0  0  0  0  0  0
    5.5060    1.4626   17.6577 C   0  0  0  0  0  0  0  0  0  0  0  0
    6.5966    0.6888   17.5468 N   0  0  0  0  0  0  0  0  0  0  0  0
    6.8909   -0.1207   18.5733 C   0  0  0  0  0  0  0  0  0  0  0  0
    7.7908   -0.7266   18.4863 H   0  0  0  0  0  0  0  0  0  0  0  0
    6.1054   -0.2177   19.7383 C   0  0  0  0  0  0  0  0  0  0  0  0
    6.5358   -1.0312   20.8553 N   0  0  0  0  0  0  0  0  0  0  0  0
    7.1082   -0.3659   21.9203 C   0  0  0  0  0  0  0  0  0  0  0  0
    6.9310    0.7049   21.9379 H   0  0  0  0  0  0  0  0  0  0  0  0
    7.8600   -0.9846   22.8760 C   0  0  0  0  0  0  0  0  0  0  0  0
    8.5634   -0.1377   23.9177 C   0  0  0  0  0  0  0  0  0  0  0  0
    7.8741    0.6630   24.2342 H   0  0  0  0  0  0  0  0  0  0  0  0
    8.7796   -0.7335   24.8154 H   0  0  0  0  0  0  0  0  0  0  0  0
    9.8552    0.5372   23.4083 C   0  0  0  0  0  0  0  0  0  0  0  0
    9.6602    1.0132   22.4351 H   0  0  0  0  0  0  0  0  0  0  0  0
   10.6301   -0.2206   23.2232 H   0  0  0  0  0  0  0  0  0  0  0  0
   10.4011    1.6052   24.3645 C   0  0  0  0  0  0  0  0  0  0  0  0
   10.6269    1.1577   25.3437 H   0  0  0  0  0  0  0  0  0  0  0  0
    9.6198    2.3549   24.5542 H   0  0  0  0  0  0  0  0  0  0  0  0
   11.6511    2.3226   23.8495 C   0  0  0  0  0  0  0  0  0  0  0  0
   12.3927    1.5716   23.5434 H   0  0  0  0  0  0  0  0  0  0  0  0
   12.1063    2.8716   24.6798 H   0  0  0  0  0  0  0  0  0  0  0  0
   11.4384    3.3149   22.7023 C   0  0  0  0  0  0  0  0  0  0  0  0
   10.7024    4.0727   23.0038 H   0  0  0  0  0  0  0  0  0  0  0  0
   11.0125    2.8126   21.8229 H   0  0  0  0  0  0  0  0  0  0  0  0
   12.7432    4.0178   22.3337 C   0  0  0  0  0  0  0  0  0  0  0  0
   13.4769    3.3075   21.9420 H   0  0  0  0  0  0  0  0  0  0  0  0
   12.5918    4.7920   21.5774 H   0  0  0  0  0  0  0  0  0  0  0  0
   13.1812    4.4918   23.2212 H   0  0  0  0  0  0  0  0  0  0  0  0
    7.9826   -2.4109   22.7938 C   0  0  0  0  0  0  0  0  0  0  0  0
    8.5651   -2.9344   23.5531 H   0  0  0  0  0  0  0  0  0  0  0  0
    7.3675   -3.1123   21.8019 C   0  0  0  0  0  0  0  0  0  0  0  0
    7.4294   -4.1860   21.6907 H   0  0  0  0  0  0  0  0  0  0  0  0
    6.5506   -2.4656   20.7819 C   0  0  0  0  0  0  0  0  0  0  0  0
    5.9378   -3.0767   19.9236 O   0  0  0  0  0  0  0  0  0  0  0  0
    4.9748    0.5982   19.8457 C   0  0  0  0  0  0  0  0  0  0  0  0
    4.3666    0.5573   20.7499 H   0  0  0  0  0  0  0  0  0  0  0  0
    4.6706    1.4611   18.7814 C   0  0  0  0  0  0  0  0  0  0  0  0
    3.8269    2.1394   18.8229 H   0  0  0  0  0  0  0  0  0  0  0  0
  1  2  1  0
  2  3  2  0
  3  4  1  0
  4  5  1  0
  4  6  2  0
  6  7  1  0
  7  8  1  0
  8  9  1  0
  8 10  2  0
 10 11  1  0
 11 12  1  0
 11 13  1  0
 11 14  1  0
 14 15  1  0
 14 16  1  0
 14 17  1  0
 17 18  1  0
 17 19  1  0
 17 20  1  0
 20 21  1  0
 20 22  1  0
 20 23  1  0
 23 24  1  0
 23 25  1  0
 23 26  1  0
 26 27  1  0
 26 28  1  0
 26 29  1  0
 10 30  1  0
 30 31  1  0
 30 32  2  0
 32 33  1  0
 32 34  1  0
 34 35  2  0
  6 36  1  0
 36 37  1  0
 36 38  2  0
 38 39  1  0
 38  2  1  0
 34  7  1  0
M  END
>  <cnnaffinity>  (1) 
-5.47329

>  <filename>  (1) 
CCCCCCc1ccc(=O)n(-c2cccnc2)c1

$$$$
