
     RDKit          3D

 30 31  0  0  0  0  0  0  0  0999 V2000
    9.2981   -2.5350   23.6307 H   0  0  0  0  0  0  0  0  0  0  0  0
    8.7180   -2.0059   22.8833 C   0  0  0  0  0  0  0  0  0  0  0  0
    9.2336   -1.9512   21.6577 N   0  0  0  0  0  0  0  0  0  0  0  0
    8.5591   -1.3012   20.7024 N   0  0  0  0  0  0  0  0  0  0  0  0
    7.3860   -0.7175   21.0057 C   0  0  0  0  0  0  0  0  0  0  0  0
    6.6568   -0.0032   19.9473 C   0  0  0  0  0  0  0  0  0  0  0  0
    7.1857    0.0330   18.6464 C   0  0  0  0  0  0  0  0  0  0  0  0
    8.1308   -0.4377   18.3972 H   0  0  0  0  0  0  0  0  0  0  0  0
    6.5824    0.6446   17.6222 N   0  0  0  0  0  0  0  0  0  0  0  0
    5.4248    1.2683   17.8656 C   0  0  0  0  0  0  0  0  0  0  0  0
    4.9696    1.7685   17.0120 H   0  0  0  0  0  0  0  0  0  0  0  0
    4.8185    1.2950   19.1226 C   0  0  0  0  0  0  0  0  0  0  0  0
    3.8917    1.8286   19.2498 H   0  0  0  0  0  0  0  0  0  0  0  0
    5.4346    0.6474   20.1890 C   0  0  0  0  0  0  0  0  0  0  0  0
    4.9895    0.6467   21.1871 H   0  0  0  0  0  0  0  0  0  0  0  0
    6.8161   -0.7409   22.2273 N   0  0  0  0  0  0  0  0  0  0  0  0
    7.4715   -1.3908   23.1802 C   0  0  0  0  0  0  0  0  0  0  0  0
    6.8745   -1.4069   24.5627 C   0  0  0  0  0  0  0  0  0  0  0  0
    5.8047   -1.6207   24.4781 H   0  0  0  0  0  0  0  0  0  0  0  0
    7.3252   -2.2218   25.1421 H   0  0  0  0  0  0  0  0  0  0  0  0
    7.0861   -0.0766   25.3081 C   0  0  0  0  0  0  0  0  0  0  0  0
    6.5072   -0.0810   26.2429 H   0  0  0  0  0  0  0  0  0  0  0  0
    6.6787    0.7383   24.6918 H   0  0  0  0  0  0  0  0  0  0  0  0
    8.5493    0.2207   25.6406 C   0  0  0  0  0  0  0  0  0  0  0  0
    8.9730   -0.6080   26.2311 H   0  0  0  0  0  0  0  0  0  0  0  0
    9.1529    0.2589   24.7240 H   0  0  0  0  0  0  0  0  0  0  0  0
    8.7170    1.5364   26.4003 C   0  0  0  0  0  0  0  0  0  0  0  0
    9.7802    1.7389   26.5297 H   0  0  0  0  0  0  0  0  0  0  0  0
    8.3062    2.3900   25.8476 H   0  0  0  0  0  0  0  0  0  0  0  0
    8.2165    1.5104   27.3790 H   0  0  0  0  0  0  0  0  0  0  0  0
  1  2  1  0
  2  3  2  0
  3  4  1  0
  4  5  2  0
  5  6  1  0
  6  7  2  0
  7  8  1  0
  7  9  1  0
  9 10  2  0
 10 11  1  0
 10 12  1  0
 12 13  1  0
 12 14  2  0
 14 15  1  0
  5 16  1  0
 16 17  2  0
 17 18  1  0
 18 19  1  0
 18 20  1  0
 18 21  1  0
 21 22  1  0
 21 23  1  0
 21 24  1  0
 24 25  1  0
 24 26  1  0
 24 27  1  0
 27 28  1  0
 27 29  1  0
 27 30  1  0
 17  2  1  0
 14  6  1  0
M  END
>  <cnnaffinity>  (1) 
-5.28501

>  <filename>  (1) 
CCCCc1cnnc(-c2cccnc2)n1

$$$$
