
     RDKit          3D

 45 48  0  0  0  0  0  0  0  0999 V2000
   12.8049    0.1526   22.4544 C   0  0  0  0  0  0  0  0  0  0  0  0
   11.6866   -0.6293   21.7599 C   0  0  0  0  0  0  0  0  0  0  0  0
   11.1924   -1.7940   22.6198 C   0  0  0  0  0  0  0  0  0  0  0  0
    9.9821   -2.5572   22.0883 C   0  0  0  0  0  0  0  0  0  0  0  0
    8.7494   -1.7848   22.0126 N   0  0  0  0  0  0  0  0  0  0  0  0
    8.4197   -1.2493   20.8207 N   0  0  0  0  0  0  0  0  0  0  0  0
    7.2496   -0.6796   21.0448 C   0  0  0  0  0  0  0  0  0  0  0  0
    6.5489    0.0231   19.9718 C   0  0  0  0  0  0  0  0  0  0  0  0
    5.3368    0.7072   20.1492 C   0  0  0  0  0  0  0  0  0  0  0  0
    4.7846    1.3471   19.0400 C   0  0  0  0  0  0  0  0  0  0  0  0
    5.4593    1.2885   17.8139 C   0  0  0  0  0  0  0  0  0  0  0  0
    6.6177    0.6368   17.6362 N   0  0  0  0  0  0  0  0  0  0  0  0
    7.1437    0.0233   18.6987 C   0  0  0  0  0  0  0  0  0  0  0  0
    8.0856   -0.4976   18.5357 H   0  0  0  0  0  0  0  0  0  0  0  0
    5.0498    1.7804   16.9346 H   0  0  0  0  0  0  0  0  0  0  0  0
    3.8536    1.8986   19.1087 H   0  0  0  0  0  0  0  0  0  0  0  0
    4.8544    0.7428   21.1292 H   0  0  0  0  0  0  0  0  0  0  0  0
    6.8142   -0.8097   22.3227 N   0  0  0  0  0  0  0  0  0  0  0  0
    7.7764   -1.5002   22.9059 C   0  0  0  0  0  0  0  0  0  0  0  0
    7.8082   -1.8638   24.3604 C   0  0  0  0  0  0  0  0  0  0  0  0
    7.1613   -3.1324   24.6192 N   0  0  0  0  0  0  0  0  0  0  0  0
    7.8780   -4.2556   24.3972 N   0  0  0  0  0  0  0  0  0  0  0  0
    7.0156   -5.2507   24.3473 C   0  0  0  0  0  0  0  0  0  0  0  0
    5.6702   -4.7894   24.4726 C   0  0  0  0  0  0  0  0  0  0  0  0
    4.3673   -5.3562   24.3837 C   0  0  0  0  0  0  0  0  0  0  0  0
    3.2852   -4.5116   24.5329 C   0  0  0  0  0  0  0  0  0  0  0  0
    3.4531   -3.1339   24.8440 C   0  0  0  0  0  0  0  0  0  0  0  0
    4.7111   -2.5642   24.9463 C   0  0  0  0  0  0  0  0  0  0  0  0
    5.8202   -3.3995   24.6862 C   0  0  0  0  0  0  0  0  0  0  0  0
    4.8587   -1.5101   25.1606 H   0  0  0  0  0  0  0  0  0  0  0  0
    2.5687   -2.5139   24.9739 H   0  0  0  0  0  0  0  0  0  0  0  0
    2.2749   -4.8916   24.4030 H   0  0  0  0  0  0  0  0  0  0  0  0
    4.2153   -6.4063   24.1362 H   0  0  0  0  0  0  0  0  0  0  0  0
    7.3629   -6.2589   24.2010 H   0  0  0  0  0  0  0  0  0  0  0  0
    8.8358   -1.9576   24.7207 H   0  0  0  0  0  0  0  0  0  0  0  0
    7.2937   -1.0824   24.9253 H   0  0  0  0  0  0  0  0  0  0  0  0
   10.1444   -2.8656   21.0566 H   0  0  0  0  0  0  0  0  0  0  0  0
    9.7963   -3.4489   22.6951 H   0  0  0  0  0  0  0  0  0  0  0  0
   12.0052   -2.5216   22.7448 H   0  0  0  0  0  0  0  0  0  0  0  0
   10.9354   -1.4229   23.6212 H   0  0  0  0  0  0  0  0  0  0  0  0
   12.0498   -1.0059   20.7931 H   0  0  0  0  0  0  0  0  0  0  0  0
   10.8523    0.0437   21.5280 H   0  0  0  0  0  0  0  0  0  0  0  0
   12.5034    0.4601   23.4630 H   0  0  0  0  0  0  0  0  0  0  0  0
   13.7195   -0.4443   22.5548 H   0  0  0  0  0  0  0  0  0  0  0  0
   13.0629    1.0627   21.9046 H   0  0  0  0  0  0  0  0  0  0  0  0
  1  2  1  0
  2  3  1  0
  3  4  1  0
  4  5  1  0
  5  6  1  0
  6  7  2  0
  7  8  1  0
  8  9  2  0
  9 10  1  0
 10 11  2  0
 11 12  1  0
 12 13  2  0
 13 14  1  0
 11 15  1  0
 10 16  1  0
  9 17  1  0
  7 18  1  0
 18 19  2  0
 19 20  1  0
 20 21  1  0
 21 22  1  0
 22 23  2  0
 23 24  1  0
 24 25  2  0
 25 26  1  0
 26 27  2  0
 27 28  1  0
 28 29  2  0
 28 30  1  0
 27 31  1  0
 26 32  1  0
 25 33  1  0
 23 34  1  0
 20 35  1  0
 20 36  1  0
  4 37  1  0
  4 38  1  0
  3 39  1  0
  3 40  1  0
  2 41  1  0
  2 42  1  0
  1 43  1  0
  1 44  1  0
  1 45  1  0
 19  5  1  0
 29 21  1  0
 13  8  1  0
 29 24  1  0
M  END
>  <cnnaffinity>  (1) 
-6.1203

>  <filename>  (1) 
CCCCn1nc(-c2cccnc2)nc1Cn1ncc2ccccc21

$$$$
