
     RDKit          3D

 41 42  0  0  0  0  0  0  0  0999 V2000
    9.4888    2.2669   22.5554 C   0  0  0  0  0  0  0  0  0  0  0  0
    8.9437    1.3261   21.4807 C   0  0  0  0  0  0  0  0  0  0  0  0
    7.9482    0.3136   22.0508 C   0  0  0  0  0  0  0  0  0  0  0  0
    7.4419   -0.6709   20.9833 C   0  0  0  0  0  0  0  0  0  0  0  0
    6.6123   -1.7522   21.5582 N   0  0  0  0  0  4  0  0  0  0  0  0
    7.3332   -2.8621   22.2146 C   0  0  0  0  0  0  0  0  0  0  0  0
    6.3437   -3.8428   22.7999 C   0  0  0  0  0  0  0  0  0  0  0  0
    5.9123   -3.7671   24.1352 C   0  0  0  0  0  0  0  0  0  0  0  0
    5.0235   -4.7267   24.6512 C   0  0  0  0  0  0  0  0  0  0  0  0
    4.5682   -4.5704   26.1094 C   0  0  0  0  0  0  0  0  0  0  0  0
    3.7493   -5.5270   26.5452 F   0  0  0  0  0  0  0  0  0  0  0  0
    5.6401   -4.5451   26.9306 F   0  0  0  0  0  0  0  0  0  0  0  0
    3.9318   -3.3889   26.2661 F   0  0  0  0  0  0  0  0  0  0  0  0
    4.5671   -5.7495   23.9086 N   0  0  0  0  0  0  0  0  0  0  0  0
    4.9762   -5.8482   22.6400 C   0  0  0  0  0  0  0  0  0  0  0  0
    5.8527   -4.9247   22.0570 C   0  0  0  0  0  0  0  0  0  0  0  0
    6.2412   -5.1003   20.7761 F   0  0  0  0  0  0  0  0  0  0  0  0
    4.6163   -6.6820   22.0400 H   0  0  0  0  0  0  0  0  0  0  0  0
    6.2721   -2.9657   24.7741 H   0  0  0  0  0  0  0  0  0  0  0  0
    7.9933   -3.3657   21.5005 H   0  0  0  0  0  0  0  0  0  0  0  0
    7.9853   -2.4896   23.0179 H   0  0  0  0  0  0  0  0  0  0  0  0
    5.9665   -1.3053   22.2721 H   0  0  0  0  0  0  0  0  0  0  0  0
    6.0048   -2.1076   20.7795 H   0  0  0  0  0  0  0  0  0  0  0  0
    6.6115   -0.0125   19.9044 C   0  0  0  0  0  0  0  0  0  0  0  0
    5.3971    0.6492   20.1434 C   0  0  0  0  0  0  0  0  0  0  0  0
    4.7769    1.3143   19.0810 C   0  0  0  0  0  0  0  0  0  0  0  0
    5.3855    1.2969   17.8209 C   0  0  0  0  0  0  0  0  0  0  0  0
    6.5357    0.6583   17.5706 N   0  0  0  0  0  0  0  0  0  0  0  0
    7.1216    0.0342   18.6009 C   0  0  0  0  0  0  0  0  0  0  0  0
    8.0795   -0.4370   18.3771 H   0  0  0  0  0  0  0  0  0  0  0  0
    4.9413    1.8187   16.9731 H   0  0  0  0  0  0  0  0  0  0  0  0
    3.8548    1.8677   19.2198 H   0  0  0  0  0  0  0  0  0  0  0  0
    4.9571    0.6830   21.1447 H   0  0  0  0  0  0  0  0  0  0  0  0
    8.3244   -1.1231   20.5086 H   0  0  0  0  0  0  0  0  0  0  0  0
    7.0825    0.8352   22.4875 H   0  0  0  0  0  0  0  0  0  0  0  0
    8.4109   -0.2607   22.8672 H   0  0  0  0  0  0  0  0  0  0  0  0
    8.4423    1.8869   20.6763 H   0  0  0  0  0  0  0  0  0  0  0  0
    9.7771    0.7898   20.9974 H   0  0  0  0  0  0  0  0  0  0  0  0
   10.0011    1.7033   23.3466 H   0  0  0  0  0  0  0  0  0  0  0  0
   10.2052    2.9869   22.1441 H   0  0  0  0  0  0  0  0  0  0  0  0
    8.6819    2.8368   23.0340 H   0  0  0  0  0  0  0  0  0  0  0  0
  1  2  1  0
  2  3  1  0
  3  4  1  0
  4  5  1  0
  5  6  1  0
  6  7  1  0
  7  8  2  0
  8  9  1  0
  9 10  1  0
 10 11  1  0
 10 12  1  0
 10 13  1  0
  9 14  2  0
 14 15  1  0
 15 16  2  0
 16 17  1  0
 15 18  1  0
  8 19  1  0
  6 20  1  0
  6 21  1  0
  5 22  1  0
  5 23  1  0
  4 24  1  0
 24 25  2  0
 25 26  1  0
 26 27  2  0
 27 28  1  0
 28 29  2  0
 29 30  1  0
 27 31  1  0
 26 32  1  0
 25 33  1  0
  4 34  1  0
  3 35  1  0
  3 36  1  0
  2 37  1  0
  2 38  1  0
  1 39  1  0
  1 40  1  0
  1 41  1  0
 16  7  1  0
 29 24  1  0
M  CHG  1   5   1
M  END
>  <cnnaffinity>  (1) 
-5.5969

>  <filename>  (1) 
CCCC([NH2+]Cc1cc(C(F)(F)F)ncc1F)c1cccnc1

$$$$
