
     RDKit          3D

 31 32  0  0  0  0  0  0  0  0999 V2000
    7.6375   -2.7986   23.3364 H   0  0  0  0  0  0  0  0  0  0  0  0
    7.7344   -2.1123   22.5054 C   0  0  0  0  0  0  0  0  0  0  0  0
    6.6824   -1.7083   21.7465 N   0  0  0  0  0  0  0  0  0  0  0  0
    7.2383   -0.8624   20.8967 C   0  0  0  0  0  0  0  0  0  0  0  0
    6.5285   -0.1124   19.8483 C   0  0  0  0  0  0  0  0  0  0  0  0
    7.0804   -0.0480   18.5632 C   0  0  0  0  0  0  0  0  0  0  0  0
    8.0169   -0.5604   18.3449 H   0  0  0  0  0  0  0  0  0  0  0  0
    6.5359    0.6348   17.5512 N   0  0  0  0  0  0  0  0  0  0  0  0
    5.4004    1.3058   17.7983 C   0  0  0  0  0  0  0  0  0  0  0  0
    4.9836    1.8677   16.9641 H   0  0  0  0  0  0  0  0  0  0  0  0
    4.7629    1.3028   19.0425 C   0  0  0  0  0  0  0  0  0  0  0  0
    3.8621    1.8910   19.1833 H   0  0  0  0  0  0  0  0  0  0  0  0
    5.3226    0.5704   20.0893 C   0  0  0  0  0  0  0  0  0  0  0  0
    4.8599    0.5498   21.0760 H   0  0  0  0  0  0  0  0  0  0  0  0
    8.5820   -0.7770   21.1719 N   0  0  0  0  0  0  0  0  0  0  0  0
    9.6479   -0.0141   20.6902 N   0  0  0  0  0  0  0  0  0  0  0  0
   10.4083   -0.3392   21.2922 H   0  0  0  0  0  0  0  0  0  0  0  0
    9.4657    1.4380   20.8347 C   0  0  0  0  0  0  0  0  0  0  0  0
    8.6480    1.7375   20.1676 H   0  0  0  0  0  0  0  0  0  0  0  0
   10.3950    1.8884   20.4560 H   0  0  0  0  0  0  0  0  0  0  0  0
    9.1297    1.9683   22.2168 C   0  0  0  0  0  0  0  0  0  0  0  0
    8.8631    3.0283   22.1018 H   0  0  0  0  0  0  0  0  0  0  0  0
    8.2307    1.4369   22.5633 H   0  0  0  0  0  0  0  0  0  0  0  0
   10.2521    1.8769   23.2437 C   0  0  0  0  0  0  0  0  0  0  0  0
   11.1719    2.3417   22.8605 H   0  0  0  0  0  0  0  0  0  0  0  0
   10.5119    0.8271   23.4277 H   0  0  0  0  0  0  0  0  0  0  0  0
    9.8811    2.5425   24.5625 C   0  0  0  0  0  0  0  0  0  0  0  0
    9.7279    3.6226   24.4382 H   0  0  0  0  0  0  0  0  0  0  0  0
    8.9481    2.1285   24.9609 H   0  0  0  0  0  0  0  0  0  0  0  0
   10.6696    2.3731   25.3007 H   0  0  0  0  0  0  0  0  0  0  0  0
    8.8953   -1.5822   22.1955 N   0  0  0  0  0  0  0  0  0  0  0  0
  1  2  1  0
  2  3  1  0
  3  4  2  0
  4  5  1  0
  5  6  2  0
  6  7  1  0
  6  8  1  0
  8  9  2  0
  9 10  1  0
  9 11  1  0
 11 12  1  0
 11 13  2  0
 13 14  1  0
  4 15  1  0
 15 16  1  0
 16 17  1  0
 16 18  1  0
 18 19  1  0
 18 20  1  0
 18 21  1  0
 21 22  1  0
 21 23  1  0
 21 24  1  0
 24 25  1  0
 24 26  1  0
 24 27  1  0
 27 28  1  0
 27 29  1  0
 27 30  1  0
 15 31  1  0
 31  2  2  0
 13  5  1  0
M  END
>  <cnnaffinity>  (1) 
-4.83248

>  <filename>  (1) 
CCCCNn1ncnc1-c1cccnc1

$$$$
