
     RDKit          3D

 30 31  0  0  0  0  0  0  0  0999 V2000
    4.9731    1.8202   17.0028 H   0  0  0  0  0  0  0  0  0  0  0  0
    5.4104    1.2950   17.8489 C   0  0  0  0  0  0  0  0  0  0  0  0
    6.5579    0.6384   17.6108 N   0  0  0  0  0  0  0  0  0  0  0  0
    7.1399   -0.0004   18.6323 C   0  0  0  0  0  0  0  0  0  0  0  0
    8.0706   -0.5207   18.4085 H   0  0  0  0  0  0  0  0  0  0  0  0
    6.5933   -0.0046   19.9294 C   0  0  0  0  0  0  0  0  0  0  0  0
    7.2319   -0.6771   21.0124 N   0  0  0  0  0  0  0  0  0  0  0  0
    6.5637   -1.5683   21.7787 N   0  0  0  0  0  0  0  0  0  0  0  0
    7.4204   -2.0694   22.5878 N   0  0  0  0  0  0  0  0  0  0  0  0
    8.6508   -1.5400   22.4003 N   0  0  0  0  0  0  0  0  0  0  0  0
    8.5178   -0.6500   21.4367 C   0  0  0  0  0  0  0  0  0  0  0  0
    9.7568    0.4031   20.7285 S   0  0  0  0  0  0  0  0  0  0  0  0
    9.4740    1.9330   21.4142 N   0  0  0  0  0  0  0  0  0  0  0  0
    8.7215    2.5104   21.0546 H   0  0  0  0  0  0  0  0  0  0  0  0
    9.9494    2.2730   22.6778 C   0  0  0  0  0  0  0  0  0  0  0  0
   10.8252    1.6644   23.2478 O   0  0  0  0  0  0  0  0  0  0  0  0
    9.1953    3.4407   23.2844 C   0  0  0  0  0  0  0  0  0  0  0  0
    8.8347    4.1337   22.5090 H   0  0  0  0  0  0  0  0  0  0  0  0
    9.9155    3.9911   23.8970 H   0  0  0  0  0  0  0  0  0  0  0  0
    8.0276    2.9488   24.1702 C   0  0  0  0  0  0  0  0  0  0  0  0
    7.6919    3.7890   24.7917 H   0  0  0  0  0  0  0  0  0  0  0  0
    8.4178    2.1853   24.8599 H   0  0  0  0  0  0  0  0  0  0  0  0
    6.8221    2.3838   23.4123 C   0  0  0  0  0  0  0  0  0  0  0  0
    6.4353    3.1088   22.6859 H   0  0  0  0  0  0  0  0  0  0  0  0
    7.0388    1.4475   22.8761 H   0  0  0  0  0  0  0  0  0  0  0  0
    6.0120    2.1645   24.1175 H   0  0  0  0  0  0  0  0  0  0  0  0
    5.3874    0.6494   20.1718 C   0  0  0  0  0  0  0  0  0  0  0  0
    4.9472    0.6050   21.1687 H   0  0  0  0  0  0  0  0  0  0  0  0
    4.7904    1.3219   19.1026 C   0  0  0  0  0  0  0  0  0  0  0  0
    3.8631    1.8633   19.2414 H   0  0  0  0  0  0  0  0  0  0  0  0
  1  2  1  0
  2  3  2  0
  3  4  1  0
  4  5  1  0
  4  6  2  0
  6  7  1  0
  7  8  1  0
  8  9  2  0
  9 10  1  0
 10 11  2  0
 11 12  1  0
 12 13  1  0
 13 14  1  0
 13 15  1  0
 15 16  2  0
 15 17  1  0
 17 18  1  0
 17 19  1  0
 17 20  1  0
 20 21  1  0
 20 22  1  0
 20 23  1  0
 23 24  1  0
 23 25  1  0
 23 26  1  0
  6 27  1  0
 27 28  1  0
 27 29  2  0
 29 30  1  0
 29  2  1  0
 11  7  1  0
M  END
>  <cnnaffinity>  (1) 
-4.90067

>  <filename>  (1) 
CCCC(=O)NSc1nnnn1-c1cccnc1

$$$$
