
     RDKit          3D

 39 39  0  0  0  0  0  0  0  0999 V2000
    7.0216    1.7646   22.0343 H   0  0  0  0  0  0  0  0  0  0  0  0
    7.3707    1.1098   22.6558 O   0  0  0  0  0  0  0  0  0  0  0  0
    8.2302    0.2557   21.9001 C   0  0  2  0  0  0  0  0  0  0  0  0
    8.7339   -0.3530   22.6656 H   0  0  0  0  0  0  0  0  0  0  0  0
    9.2739    1.0645   21.1269 C   0  0  0  0  0  0  0  0  0  0  0  0
    9.7667    0.3955   20.4116 H   0  0  0  0  0  0  0  0  0  0  0  0
    8.7431    1.8187   20.5249 H   0  0  0  0  0  0  0  0  0  0  0  0
   10.3323    1.7518   21.9989 C   0  0  0  0  0  0  0  0  0  0  0  0
   10.7843    1.0108   22.6788 H   0  0  0  0  0  0  0  0  0  0  0  0
   11.1499    2.1035   21.3546 H   0  0  0  0  0  0  0  0  0  0  0  0
    9.8073    2.9287   22.8246 C   0  0  0  0  0  0  0  0  0  0  0  0
    9.0736    2.5770   23.5627 H   0  0  0  0  0  0  0  0  0  0  0  0
    9.2529    3.6189   22.1677 H   0  0  0  0  0  0  0  0  0  0  0  0
   10.9284    3.6940   23.5267 C   0  0  0  0  0  0  0  0  0  0  0  0
   11.6518    4.0567   22.7777 H   0  0  0  0  0  0  0  0  0  0  0  0
   11.4947    3.0067   24.1761 H   0  0  0  0  0  0  0  0  0  0  0  0
   10.4157    4.8748   24.3529 C   0  0  0  0  0  0  0  0  0  0  0  0
    9.6884    4.5045   25.0917 H   0  0  0  0  0  0  0  0  0  0  0  0
    9.8482    5.5523   23.6960 H   0  0  0  0  0  0  0  0  0  0  0  0
   11.5428    5.6444   25.0480 C   0  0  0  0  0  0  0  0  0  0  0  0
   11.1583    6.4799   25.6413 H   0  0  0  0  0  0  0  0  0  0  0  0
   12.1226    4.9981   25.7163 H   0  0  0  0  0  0  0  0  0  0  0  0
   12.2534    6.0445   24.3145 H   0  0  0  0  0  0  0  0  0  0  0  0
    7.4570   -0.7306   20.9671 C   0  0  2  0  0  0  0  0  0  0  0  0
    8.2295   -1.3321   20.4657 H   0  0  0  0  0  0  0  0  0  0  0  0
    6.6613   -0.0133   19.8835 C   0  0  0  0  0  0  0  0  0  0  0  0
    7.1575    0.0630   18.5688 C   0  0  0  0  0  0  0  0  0  0  0  0
    8.1083   -0.4191   18.3317 H   0  0  0  0  0  0  0  0  0  0  0  0
    6.5547    0.6903   17.5475 N   0  0  0  0  0  0  0  0  0  0  0  0
    5.3923    1.3036   17.8210 C   0  0  0  0  0  0  0  0  0  0  0  0
    4.9163    1.8035   16.9808 H   0  0  0  0  0  0  0  0  0  0  0  0
    4.8065    1.3097   19.0905 C   0  0  0  0  0  0  0  0  0  0  0  0
    3.8788    1.8399   19.2467 H   0  0  0  0  0  0  0  0  0  0  0  0
    5.4451    0.6432   20.1392 C   0  0  0  0  0  0  0  0  0  0  0  0
    5.0166    0.6426   21.1480 H   0  0  0  0  0  0  0  0  0  0  0  0
    6.5761   -1.6809   21.7867 C   0  0  0  0  0  0  0  0  0  0  0  0
    5.9479   -2.3054   21.1443 H   0  0  0  0  0  0  0  0  0  0  0  0
    5.9515   -1.0665   22.4266 H   0  0  0  0  0  0  0  0  0  0  0  0
    7.1579   -2.3346   22.4484 H   0  0  0  0  0  0  0  0  0  0  0  0
  1  2  1  0
  2  3  1  0
  3  4  1  1
  3  5  1  0
  5  6  1  0
  5  7  1  0
  5  8  1  0
  8  9  1  0
  8 10  1  0
  8 11  1  0
 11 12  1  0
 11 13  1  0
 11 14  1  0
 14 15  1  0
 14 16  1  0
 14 17  1  0
 17 18  1  0
 17 19  1  0
 17 20  1  0
 20 21  1  0
 20 22  1  0
 20 23  1  0
  3 24  1  0
 24 25  1  6
 24 26  1  0
 26 27  2  0
 27 28  1  0
 27 29  1  0
 29 30  2  0
 30 31  1  0
 30 32  1  0
 32 33  1  0
 32 34  2  0
 34 35  1  0
 24 36  1  0
 36 37  1  0
 36 38  1  0
 36 39  1  0
 34 26  1  0
M  END
>  <cnnaffinity>  (1) 
-4.38681

>  <filename>  (1) 
CCCCCC[C@@H](O)[C@@H](C)c1cccnc1

$$$$
