
     RDKit          3D

 52 55  0  0  0  0  0  0  0  0999 V2000
   12.4267   -1.8297   21.9056 C   0  0  0  0  0  0  0  0  0  0  0  0
   11.0298   -1.3223   22.2534 C   0  0  0  0  0  0  0  0  0  0  0  0
    9.9406   -2.3700   22.0106 C   0  0  0  0  0  0  0  0  0  0  0  0
    8.6030   -1.7972   21.9186 N   0  0  0  0  0  0  0  0  0  0  0  0
    8.2543   -1.2583   20.7355 N   0  0  0  0  0  0  0  0  0  0  0  0
    7.0588   -0.7403   20.9627 C   0  0  0  0  0  0  0  0  0  0  0  0
    6.3733    0.0168   19.9136 C   0  0  0  0  0  0  0  0  0  0  0  0
    5.1835    0.7487   20.0778 C   0  0  0  0  0  0  0  0  0  0  0  0
    4.6872    1.4313   18.9642 C   0  0  0  0  0  0  0  0  0  0  0  0
    5.3839    1.3658   17.7512 C   0  0  0  0  0  0  0  0  0  0  0  0
    6.5224    0.6774   17.5907 N   0  0  0  0  0  0  0  0  0  0  0  0
    7.0003    0.0366   18.6562 C   0  0  0  0  0  0  0  0  0  0  0  0
    7.9397   -0.4931   18.5172 H   0  0  0  0  0  0  0  0  0  0  0  0
    5.0155    1.8832   16.8674 H   0  0  0  0  0  0  0  0  0  0  0  0
    3.7823    2.0273   19.0166 H   0  0  0  0  0  0  0  0  0  0  0  0
    4.6650    0.7975   21.0389 H   0  0  0  0  0  0  0  0  0  0  0  0
    6.6137   -0.9469   22.2261 N   0  0  0  0  0  0  0  0  0  0  0  0
    7.6230   -1.5681   22.8149 C   0  0  0  0  0  0  0  0  0  0  0  0
    7.6629   -1.9034   24.2695 C   0  0  0  0  0  0  0  0  0  0  0  0
    7.1902   -3.3144   24.6142 C   0  0  0  0  0  0  0  0  0  0  0  0
    5.7634   -3.5157   24.2253 N   0  0  0  0  0  4  0  0  0  0  0  0
    5.3557   -4.9759   24.2208 C   0  0  0  0  0  0  0  0  0  0  0  0
    4.0200   -5.1155   23.5060 C   0  0  0  0  0  0  0  0  0  0  0  0
    2.9507   -4.1745   24.0451 C   0  0  0  0  0  0  0  0  0  0  0  0
    1.5929   -4.4435   23.8114 C   0  0  0  0  0  0  0  0  0  0  0  0
    0.6125   -3.4897   24.1092 C   0  0  0  0  0  0  0  0  0  0  0  0
    0.9807   -2.2733   24.6957 C   0  0  0  0  0  0  0  0  0  0  0  0
    2.3214   -2.0260   25.0030 C   0  0  0  0  0  0  0  0  0  0  0  0
    3.3154   -2.9769   24.6971 C   0  0  0  0  0  0  0  0  0  0  0  0
    4.7549   -2.7345   25.1131 C   0  0  0  0  0  0  0  0  0  0  0  0
    4.9035   -3.0394   26.1595 H   0  0  0  0  0  0  0  0  0  0  0  0
    4.9709   -1.6651   25.0441 H   0  0  0  0  0  0  0  0  0  0  0  0
    2.5883   -1.0815   25.4772 H   0  0  0  0  0  0  0  0  0  0  0  0
    0.2172   -1.5277   24.9170 H   0  0  0  0  0  0  0  0  0  0  0  0
   -0.4308   -3.6978   23.8927 H   0  0  0  0  0  0  0  0  0  0  0  0
    1.3128   -5.3948   23.3594 H   0  0  0  0  0  0  0  0  0  0  0  0
    4.1897   -4.9080   22.4399 H   0  0  0  0  0  0  0  0  0  0  0  0
    3.6780   -6.1540   23.5652 H   0  0  0  0  0  0  0  0  0  0  0  0
    5.2748   -5.3250   25.2590 H   0  0  0  0  0  0  0  0  0  0  0  0
    6.1310   -5.5785   23.7325 H   0  0  0  0  0  0  0  0  0  0  0  0
    5.6173   -3.0949   23.2651 H   0  0  0  0  0  0  0  0  0  0  0  0
    7.8058   -4.0570   24.0921 H   0  0  0  0  0  0  0  0  0  0  0  0
    7.3171   -3.5189   25.6893 H   0  0  0  0  0  0  0  0  0  0  0  0
    8.6627   -1.7513   24.6786 H   0  0  0  0  0  0  0  0  0  0  0  0
    7.0053   -1.1822   24.7559 H   0  0  0  0  0  0  0  0  0  0  0  0
   10.0909   -2.8255   21.0333 H   0  0  0  0  0  0  0  0  0  0  0  0
    9.9586   -3.1582   22.7667 H   0  0  0  0  0  0  0  0  0  0  0  0
   10.7877   -0.4451   21.6461 H   0  0  0  0  0  0  0  0  0  0  0  0
   11.0126   -1.0051   23.3022 H   0  0  0  0  0  0  0  0  0  0  0  0
   12.5565   -1.9822   20.8272 H   0  0  0  0  0  0  0  0  0  0  0  0
   13.1911   -1.1130   22.2243 H   0  0  0  0  0  0  0  0  0  0  0  0
   12.6359   -2.7771   22.4094 H   0  0  0  0  0  0  0  0  0  0  0  0
  1  2  1  0
  2  3  1  0
  3  4  1  0
  4  5  1  0
  5  6  2  0
  6  7  1  0
  7  8  2  0
  8  9  1  0
  9 10  2  0
 10 11  1  0
 11 12  2  0
 12 13  1  0
 10 14  1  0
  9 15  1  0
  8 16  1  0
  6 17  1  0
 17 18  2  0
 18 19  1  0
 19 20  1  0
 20 21  1  0
 21 22  1  0
 22 23  1  0
 23 24  1  0
 24 25  2  0
 25 26  1  0
 26 27  2  0
 27 28  1  0
 28 29  2  0
 29 30  1  0
 30 31  1  0
 30 32  1  0
 28 33  1  0
 27 34  1  0
 26 35  1  0
 25 36  1  0
 23 37  1  0
 23 38  1  0
 22 39  1  0
 22 40  1  0
 21 41  1  0
 20 42  1  0
 20 43  1  0
 19 44  1  0
 19 45  1  0
  3 46  1  0
  3 47  1  0
  2 48  1  0
  2 49  1  0
  1 50  1  0
  1 51  1  0
  1 52  1  0
 18  4  1  0
 30 21  1  0
 12  7  1  0
 29 24  1  0
M  CHG  1  21   1
M  END
>  <cnnaffinity>  (1) 
-5.88596

>  <filename>  (1) 
CCCn1nc(-c2cccnc2)nc1CC[NH+]1CCc2ccccc2C1

$$$$
