
     RDKit          3D

 44 47  0  0  0  0  0  0  0  0999 V2000
   11.5959   -0.4821   21.9044 C   0  0  0  0  0  0  0  0  0  0  0  0
   11.1920   -1.7265   22.6924 C   0  0  0  0  0  0  0  0  0  0  0  0
   10.0372   -2.5199   22.0781 C   0  0  0  0  0  0  0  0  0  0  0  0
    8.7844   -1.7852   21.9695 N   0  0  0  0  0  0  0  0  0  0  0  0
    8.4261   -1.3308   20.7540 N   0  0  0  0  0  0  0  0  0  0  0  0
    7.2931   -0.7019   20.9861 C   0  0  0  0  0  0  0  0  0  0  0  0
    6.5834   -0.0095   19.9195 C   0  0  0  0  0  0  0  0  0  0  0  0
    5.3805    0.6705   20.1405 C   0  0  0  0  0  0  0  0  0  0  0  0
    4.7931    1.3237   19.0610 C   0  0  0  0  0  0  0  0  0  0  0  0
    5.4366    1.2930   17.8172 C   0  0  0  0  0  0  0  0  0  0  0  0
    6.5966    0.6531   17.6008 N   0  0  0  0  0  0  0  0  0  0  0  0
    7.1523    0.0213   18.6378 C   0  0  0  0  0  0  0  0  0  0  0  0
    8.0994   -0.4815   18.4513 H   0  0  0  0  0  0  0  0  0  0  0  0
    5.0042    1.8007   16.9568 H   0  0  0  0  0  0  0  0  0  0  0  0
    3.8608    1.8665   19.1710 H   0  0  0  0  0  0  0  0  0  0  0  0
    4.9412    0.6958   21.1394 H   0  0  0  0  0  0  0  0  0  0  0  0
    6.8949   -0.7361   22.2812 N   0  0  0  0  0  0  0  0  0  0  0  0
    7.8528   -1.4157   22.8799 C   0  0  0  0  0  0  0  0  0  0  0  0
    7.8751   -1.7787   24.3361 C   0  0  0  0  0  0  0  0  0  0  0  0
    7.8811   -0.5636   25.2265 C   0  0  0  0  0  0  0  0  0  0  0  0
    9.0457   -0.1701   25.6487 N   0  0  0  0  0  0  0  0  0  0  0  0
    9.0913    0.9863   26.3949 N   0  0  0  0  0  0  0  0  0  0  0  0
    8.0610    1.8507   26.7162 C   0  0  0  0  0  0  0  0  0  0  0  0
    8.2884    2.8930   27.3087 O   0  0  0  0  0  0  0  0  0  0  0  0
    6.7248    1.3663   26.2690 C   0  0  0  0  0  0  0  0  0  0  0  0
    5.5750    2.1304   26.5213 C   0  0  0  0  0  0  0  0  0  0  0  0
    4.3351    1.7006   26.0782 C   0  0  0  0  0  0  0  0  0  0  0  0
    4.2214    0.4600   25.4315 C   0  0  0  0  0  0  0  0  0  0  0  0
    5.3354   -0.3267   25.2177 C   0  0  0  0  0  0  0  0  0  0  0  0
    6.6258    0.1371   25.5716 C   0  0  0  0  0  0  0  0  0  0  0  0
    5.2308   -1.3032   24.7510 H   0  0  0  0  0  0  0  0  0  0  0  0
    3.2584    0.1087   25.0811 H   0  0  0  0  0  0  0  0  0  0  0  0
    3.4594    2.3194   26.2283 H   0  0  0  0  0  0  0  0  0  0  0  0
    5.6772    3.0692   27.0556 H   0  0  0  0  0  0  0  0  0  0  0  0
    9.9729    1.2238   26.8340 H   0  0  0  0  0  0  0  0  0  0  0  0
    8.7525   -2.3929   24.5602 H   0  0  0  0  0  0  0  0  0  0  0  0
    6.9860   -2.3813   24.5403 H   0  0  0  0  0  0  0  0  0  0  0  0
    9.8590   -3.4476   22.6390 H   0  0  0  0  0  0  0  0  0  0  0  0
   10.2756   -2.7772   21.0450 H   0  0  0  0  0  0  0  0  0  0  0  0
   10.9134   -1.4571   23.7186 H   0  0  0  0  0  0  0  0  0  0  0  0
   12.0521   -2.4085   22.7354 H   0  0  0  0  0  0  0  0  0  0  0  0
   10.7526    0.2079   21.7853 H   0  0  0  0  0  0  0  0  0  0  0  0
   12.4044    0.0537   22.4183 H   0  0  0  0  0  0  0  0  0  0  0  0
   11.9593   -0.7565   20.9054 H   0  0  0  0  0  0  0  0  0  0  0  0
  1  2  1  0
  2  3  1  0
  3  4  1  0
  4  5  1  0
  5  6  2  0
  6  7  1  0
  7  8  2  0
  8  9  1  0
  9 10  2  0
 10 11  1  0
 11 12  2  0
 12 13  1  0
 10 14  1  0
  9 15  1  0
  8 16  1  0
  6 17  1  0
 17 18  2  0
 18 19  1  0
 19 20  1  0
 20 21  2  0
 21 22  1  0
 22 23  1  0
 23 24  2  0
 23 25  1  0
 25 26  2  0
 26 27  1  0
 27 28  2  0
 28 29  1  0
 29 30  2  0
 29 31  1  0
 28 32  1  0
 27 33  1  0
 26 34  1  0
 22 35  1  0
 19 36  1  0
 19 37  1  0
  3 38  1  0
  3 39  1  0
  2 40  1  0
  2 41  1  0
  1 42  1  0
  1 43  1  0
  1 44  1  0
 18  4  1  0
 30 20  1  0
 12  7  1  0
 30 25  1  0
M  END
>  <cnnaffinity>  (1) 
-6.03073

>  <filename>  (1) 
CCCn1nc(-c2cccnc2)nc1Cc1n[nH]c(=O)c2ccccc12

$$$$
