
     RDKit          3D

 42 45  0  0  0  0  0  0  0  0999 V2000
   12.4954   -1.9712   22.0130 C   0  0  0  0  0  0  0  0  0  0  0  0
   11.1271   -1.3809   22.3301 C   0  0  0  0  0  0  0  0  0  0  0  0
    9.9927   -2.3728   22.0536 C   0  0  0  0  0  0  0  0  0  0  0  0
    8.6988   -1.7223   21.9050 N   0  0  0  0  0  0  0  0  0  0  0  0
    8.3708   -1.2080   20.7040 N   0  0  0  0  0  0  0  0  0  0  0  0
    7.2059   -0.6201   20.9331 C   0  0  0  0  0  0  0  0  0  0  0  0
    6.4937    0.0884   19.8716 C   0  0  0  0  0  0  0  0  0  0  0  0
    5.2795    0.7714   20.0532 C   0  0  0  0  0  0  0  0  0  0  0  0
    4.7166    1.4127   18.9501 C   0  0  0  0  0  0  0  0  0  0  0  0
    5.3786    1.3551   17.7183 C   0  0  0  0  0  0  0  0  0  0  0  0
    6.5341    0.6998   17.5340 N   0  0  0  0  0  0  0  0  0  0  0  0
    7.0736    0.0888   18.5919 C   0  0  0  0  0  0  0  0  0  0  0  0
    8.0120   -0.4315   18.4139 H   0  0  0  0  0  0  0  0  0  0  0  0
    4.9592    1.8503   16.8444 H   0  0  0  0  0  0  0  0  0  0  0  0
    3.7864    1.9668   19.0260 H   0  0  0  0  0  0  0  0  0  0  0  0
    4.7878    0.8102   21.0277 H   0  0  0  0  0  0  0  0  0  0  0  0
    6.7706   -0.7309   22.2071 N   0  0  0  0  0  0  0  0  0  0  0  0
    7.7262   -1.4299   22.7982 C   0  0  0  0  0  0  0  0  0  0  0  0
    7.7981   -1.8713   24.2080 C   0  0  2  0  0  0  0  0  0  0  0  0
    7.5721   -3.3080   24.6210 C   0  0  0  0  0  0  0  0  0  0  0  0
    6.5402   -2.2636   24.9345 C   0  0  1  0  0  0  0  0  0  0  0  0
    6.2682   -1.8269   26.3366 C   0  0  0  0  0  0  0  0  0  0  0  0
    6.4578   -0.5141   26.7888 C   0  0  0  0  0  0  0  0  0  0  0  0
    6.0711   -0.1583   28.0820 C   0  0  0  0  0  0  0  0  0  0  0  0
    5.5103   -1.0190   28.9431 N   0  0  0  0  0  0  0  0  0  0  0  0
    5.3268   -2.2800   28.5271 C   0  0  0  0  0  0  0  0  0  0  0  0
    5.7008   -2.7136   27.2540 C   0  0  0  0  0  0  0  0  0  0  0  0
    5.4916   -3.9929   26.8991 F   0  0  0  0  0  0  0  0  0  0  0  0
    4.8678   -2.9814   29.2198 H   0  0  0  0  0  0  0  0  0  0  0  0
    6.2117    0.8576   28.4420 H   0  0  0  0  0  0  0  0  0  0  0  0
    6.8879    0.2167   26.1140 H   0  0  0  0  0  0  0  0  0  0  0  0
    5.6456   -2.2640   24.3117 H   0  0  0  0  0  0  0  0  0  0  0  0
    8.1721   -3.6898   25.4446 H   0  0  0  0  0  0  0  0  0  0  0  0
    7.3337   -4.0368   23.8492 H   0  0  0  0  0  0  0  0  0  0  0  0
    8.5594   -1.3309   24.7683 H   0  0  0  0  0  0  0  0  0  0  0  0
    9.9329   -3.1456   22.8267 H   0  0  0  0  0  0  0  0  0  0  0  0
   10.1637   -2.8639   21.0954 H   0  0  0  0  0  0  0  0  0  0  0  0
   10.9489   -0.5057   21.6931 H   0  0  0  0  0  0  0  0  0  0  0  0
   11.0992   -1.0540   23.3772 H   0  0  0  0  0  0  0  0  0  0  0  0
   13.3090   -1.3282   22.3682 H   0  0  0  0  0  0  0  0  0  0  0  0
   12.6225   -2.1216   20.9351 H   0  0  0  0  0  0  0  0  0  0  0  0
   12.6173   -2.9484   22.4899 H   0  0  0  0  0  0  0  0  0  0  0  0
  1  2  1  0
  2  3  1  0
  3  4  1  0
  4  5  1  0
  5  6  2  0
  6  7  1  0
  7  8  2  0
  8  9  1  0
  9 10  2  0
 10 11  1  0
 11 12  2  0
 12 13  1  0
 10 14  1  0
  9 15  1  0
  8 16  1  0
  6 17  1  0
 17 18  2  0
 18 19  1  0
 19 20  1  0
 20 21  1  0
 21 22  1  0
 22 23  2  0
 23 24  1  0
 24 25  2  0
 25 26  1  0
 26 27  2  0
 27 28  1  0
 26 29  1  0
 24 30  1  0
 23 31  1  0
 21 32  1  6
 20 33  1  0
 20 34  1  0
 19 35  1  1
  3 36  1  0
  3 37  1  0
  2 38  1  0
  2 39  1  0
  1 40  1  0
  1 41  1  0
  1 42  1  0
 18  4  1  0
 21 19  1  0
 27 22  1  0
 12  7  1  0
M  END
>  <cnnaffinity>  (1) 
-6.32109

>  <filename>  (1) 
CCCn1nc(-c2cccnc2)nc1[C@@H]1C[C@H]1c1ccncc1F

$$$$
