
     RDKit          3D

 41 43  0  0  0  0  0  0  0  0999 V2000
   12.3838   -1.9325   21.9902 C   0  0  0  0  0  0  0  0  0  0  0  0
   11.0240   -1.3905   22.4223 C   0  0  0  0  0  0  0  0  0  0  0  0
    9.9295   -2.3998   22.0701 C   0  0  0  0  0  0  0  0  0  0  0  0
    8.6373   -1.7402   21.8743 N   0  0  0  0  0  0  0  0  0  0  0  0
    8.2956   -1.2482   20.6705 N   0  0  0  0  0  0  0  0  0  0  0  0
    7.1737   -0.6312   20.9173 C   0  0  0  0  0  0  0  0  0  0  0  0
    6.4957    0.0722   19.8670 C   0  0  0  0  0  0  0  0  0  0  0  0
    5.2938    0.7461   20.0720 C   0  0  0  0  0  0  0  0  0  0  0  0
    4.7382    1.3930   18.9756 C   0  0  0  0  0  0  0  0  0  0  0  0
    5.3900    1.3496   17.7381 C   0  0  0  0  0  0  0  0  0  0  0  0
    6.5475    0.6928   17.5534 N   0  0  0  0  0  0  0  0  0  0  0  0
    7.0905    0.0688   18.6065 C   0  0  0  0  0  0  0  0  0  0  0  0
    8.0301   -0.4589   18.4598 H   0  0  0  0  0  0  0  0  0  0  0  0
    4.9445    1.8649   16.8938 H   0  0  0  0  0  0  0  0  0  0  0  0
    3.8098    1.9402   19.0737 H   0  0  0  0  0  0  0  0  0  0  0  0
    4.8124    0.7700   21.0503 H   0  0  0  0  0  0  0  0  0  0  0  0
    6.7357   -0.7117   22.2249 N   0  0  0  0  0  0  0  0  0  0  0  0
    7.6650   -1.4128   22.8089 C   0  0  0  0  0  0  0  0  0  0  0  0
    7.6260   -1.7924   24.2675 C   0  0  0  0  0  0  0  0  0  0  0  0
    7.3406   -0.5719   25.1633 C   0  0  0  0  0  0  0  0  0  0  0  0
    8.5536    0.3029   25.1362 C   0  0  0  0  0  0  0  0  0  0  0  0
    8.6790    1.3573   24.2387 C   0  0  0  0  0  0  0  0  0  0  0  0
    9.8945    2.0345   24.1210 C   0  0  0  0  0  0  0  0  0  0  0  0
   10.9691    1.6805   24.8396 N   0  0  0  0  0  0  0  0  0  0  0  0
   10.8315    0.6759   25.7187 C   0  0  0  0  0  0  0  0  0  0  0  0
    9.6412   -0.0089   25.9377 C   0  0  0  0  0  0  0  0  0  0  0  0
    9.5340   -1.3627   27.2855 Br  0  0  0  0  0  0  0  0  0  0  0  0
   11.6903    0.3556   26.2854 H   0  0  0  0  0  0  0  0  0  0  0  0
    9.9891    2.8331   23.3944 H   0  0  0  0  0  0  0  0  0  0  0  0
    7.8459    1.6475   23.6160 H   0  0  0  0  0  0  0  0  0  0  0  0
    6.4634   -0.0222   24.8077 H   0  0  0  0  0  0  0  0  0  0  0  0
    7.1458   -0.8914   26.1925 H   0  0  0  0  0  0  0  0  0  0  0  0
    8.5856   -2.2433   24.5434 H   0  0  0  0  0  0  0  0  0  0  0  0
    6.8426   -2.5410   24.4185 H   0  0  0  0  0  0  0  0  0  0  0  0
    9.8724   -3.1874   22.8276 H   0  0  0  0  0  0  0  0  0  0  0  0
   10.1714   -2.8604   21.1120 H   0  0  0  0  0  0  0  0  0  0  0  0
   11.0271   -1.2034   23.5001 H   0  0  0  0  0  0  0  0  0  0  0  0
   10.8302   -0.4432   21.9114 H   0  0  0  0  0  0  0  0  0  0  0  0
   12.5264   -2.9094   22.4494 H   0  0  0  0  0  0  0  0  0  0  0  0
   13.1881   -1.2778   22.3359 H   0  0  0  0  0  0  0  0  0  0  0  0
   12.4510   -2.0361   20.8969 H   0  0  0  0  0  0  0  0  0  0  0  0
  1  2  1  0
  2  3  1  0
  3  4  1  0
  4  5  1  0
  5  6  2  0
  6  7  1  0
  7  8  2  0
  8  9  1  0
  9 10  2  0
 10 11  1  0
 11 12  2  0
 12 13  1  0
 10 14  1  0
  9 15  1  0
  8 16  1  0
  6 17  1  0
 17 18  2  0
 18 19  1  0
 19 20  1  0
 20 21  1  0
 21 22  2  0
 22 23  1  0
 23 24  2  0
 24 25  1  0
 25 26  2  0
 26 27  1  0
 25 28  1  0
 23 29  1  0
 22 30  1  0
 20 31  1  0
 20 32  1  0
 19 33  1  0
 19 34  1  0
  3 35  1  0
  3 36  1  0
  2 37  1  0
  2 38  1  0
  1 39  1  0
  1 40  1  0
  1 41  1  0
 18  4  1  0
 26 21  1  0
 12  7  1  0
M  END
>  <cnnaffinity>  (1) 
-6.2831

>  <filename>  (1) 
CCCn1nc(-c2cccnc2)nc1CCc1ccncc1Br

$$$$
