
     RDKit          3D

 43 46  0  0  0  0  0  0  0  0999 V2000
   12.4688   -1.8044   21.7423 C   0  0  0  0  0  0  0  0  0  0  0  0
   11.0847   -1.1624   21.8811 C   0  0  0  0  0  0  0  0  0  0  0  0
    9.9530   -2.1877   21.7745 C   0  0  0  0  0  0  0  0  0  0  0  0
    8.6266   -1.5777   21.6771 N   0  0  0  0  0  0  0  0  0  0  0  0
    8.3173   -1.0015   20.4984 N   0  0  0  0  0  0  0  0  0  0  0  0
    7.0447   -0.6726   20.6439 C   0  0  0  0  0  0  0  0  0  0  0  0
    6.3486    0.0750   19.6014 C   0  0  0  0  0  0  0  0  0  0  0  0
    5.1621    0.7929   19.8102 C   0  0  0  0  0  0  0  0  0  0  0  0
    4.6410    1.5107   18.7343 C   0  0  0  0  0  0  0  0  0  0  0  0
    5.3183    1.4855   17.5083 C   0  0  0  0  0  0  0  0  0  0  0  0
    6.4562    0.8065   17.3041 N   0  0  0  0  0  0  0  0  0  0  0  0
    6.9594    0.1325   18.3398 C   0  0  0  0  0  0  0  0  0  0  0  0
    7.9032   -0.3811   18.1689 H   0  0  0  0  0  0  0  0  0  0  0  0
    4.9373    2.0369   16.6529 H   0  0  0  0  0  0  0  0  0  0  0  0
    3.7427    2.1096   18.8304 H   0  0  0  0  0  0  0  0  0  0  0  0
    4.6870    0.8116   20.7943 H   0  0  0  0  0  0  0  0  0  0  0  0
    6.5068   -1.0393   21.8217 N   0  0  0  0  0  0  0  0  0  0  0  0
    7.5269   -1.5811   22.4836 C   0  0  0  0  0  0  0  0  0  0  0  0
    7.5359   -1.9646   23.8951 C   0  0  0  0  0  0  0  0  0  0  0  0
    8.5344   -1.7990   24.8357 C   0  0  0  0  0  0  0  0  0  0  0  0
    8.0178   -1.8699   26.1074 N   0  0  0  0  0  0  0  0  0  0  0  0
    8.7549   -2.0382   27.3407 C   0  0  0  0  0  0  0  0  0  0  0  0
    8.3669   -2.9291   27.8483 H   0  0  0  0  0  0  0  0  0  0  0  0
    8.6609   -1.1715   28.0017 H   0  0  0  0  0  0  0  0  0  0  0  0
    9.8130   -2.1951   27.1398 H   0  0  0  0  0  0  0  0  0  0  0  0
    6.6602   -2.0939   26.0104 C   0  0  0  0  0  0  0  0  0  0  0  0
    5.6758   -2.0694   27.0198 C   0  0  0  0  0  0  0  0  0  0  0  0
    4.3863   -2.4497   26.6637 C   0  0  0  0  0  0  0  0  0  0  0  0
    4.0947   -2.8675   25.3418 C   0  0  0  0  0  0  0  0  0  0  0  0
    5.0686   -2.8268   24.3462 C   0  0  0  0  0  0  0  0  0  0  0  0
    6.3459   -2.3065   24.6570 C   0  0  0  0  0  0  0  0  0  0  0  0
    4.8445   -3.1043   23.3197 H   0  0  0  0  0  0  0  0  0  0  0  0
    3.0958   -3.2187   25.1049 H   0  0  0  0  0  0  0  0  0  0  0  0
    3.5996   -2.4071   27.4136 H   0  0  0  0  0  0  0  0  0  0  0  0
    5.9295   -1.7527   28.0278 H   0  0  0  0  0  0  0  0  0  0  0  0
    9.6072   -1.6337   24.7225 H   0  0  0  0  0  0  0  0  0  0  0  0
    9.9701   -2.8636   22.6317 H   0  0  0  0  0  0  0  0  0  0  0  0
   10.0674   -2.7787   20.8624 H   0  0  0  0  0  0  0  0  0  0  0  0
   11.0217   -0.6622   22.8545 H   0  0  0  0  0  0  0  0  0  0  0  0
   10.9233   -0.3892   21.1231 H   0  0  0  0  0  0  0  0  0  0  0  0
   13.2660   -1.1193   22.0562 H   0  0  0  0  0  0  0  0  0  0  0  0
   12.5332   -2.6993   22.3748 H   0  0  0  0  0  0  0  0  0  0  0  0
   12.6845   -2.1086   20.7093 H   0  0  0  0  0  0  0  0  0  0  0  0
  1  2  1  0
  2  3  1  0
  3  4  1  0
  4  5  1  0
  5  6  2  0
  6  7  1  0
  7  8  2  0
  8  9  1  0
  9 10  2  0
 10 11  1  0
 11 12  2  0
 12 13  1  0
 10 14  1  0
  9 15  1  0
  8 16  1  0
  6 17  1  0
 17 18  2  0
 18 19  1  0
 19 20  2  0
 20 21  1  0
 21 22  1  0
 22 23  1  0
 22 24  1  0
 22 25  1  0
 21 26  1  0
 26 27  2  0
 27 28  1  0
 28 29  2  0
 29 30  1  0
 30 31  2  0
 30 32  1  0
 29 33  1  0
 28 34  1  0
 27 35  1  0
 20 36  1  0
  3 37  1  0
  3 38  1  0
  2 39  1  0
  2 40  1  0
  1 41  1  0
  1 42  1  0
  1 43  1  0
 18  4  1  0
 31 19  1  0
 12  7  1  0
 31 26  1  0
M  END
>  <cnnaffinity>  (1) 
-5.75444

>  <filename>  (1) 
CCCn1nc(-c2cccnc2)nc1-c1cn(C)c2ccccc12

$$$$
