
     RDKit          3D

 46 49  0  0  0  0  0  0  0  0999 V2000
   12.3216   -1.4690   21.5972 C   0  0  0  0  0  0  0  0  0  0  0  0
   10.9822   -1.0085   22.1784 C   0  0  0  0  0  0  0  0  0  0  0  0
    9.8441   -2.0294   22.0152 C   0  0  0  0  0  0  0  0  0  0  0  0
    8.5504   -1.3708   21.8498 N   0  0  0  0  0  0  0  0  0  0  0  0
    8.2497   -0.9263   20.6103 N   0  0  0  0  0  0  0  0  0  0  0  0
    7.0727   -0.3489   20.7715 C   0  0  0  0  0  0  0  0  0  0  0  0
    6.3602    0.2628   19.6584 C   0  0  0  0  0  0  0  0  0  0  0  0
    5.1509    0.9541   19.8129 C   0  0  0  0  0  0  0  0  0  0  0  0
    4.6227    1.5910   18.6930 C   0  0  0  0  0  0  0  0  0  0  0  0
    5.3069    1.4948   17.4747 C   0  0  0  0  0  0  0  0  0  0  0  0
    6.4350    0.7895   17.3080 N   0  0  0  0  0  0  0  0  0  0  0  0
    6.9435    0.1876   18.3850 C   0  0  0  0  0  0  0  0  0  0  0  0
    7.8601   -0.3814   18.2344 H   0  0  0  0  0  0  0  0  0  0  0  0
    4.9302    1.9990   16.5895 H   0  0  0  0  0  0  0  0  0  0  0  0
    3.7114    2.1744   18.7540 H   0  0  0  0  0  0  0  0  0  0  0  0
    4.6516    0.9985   20.7845 H   0  0  0  0  0  0  0  0  0  0  0  0
    6.6099   -0.3792   22.0397 N   0  0  0  0  0  0  0  0  0  0  0  0
    7.5664   -1.0101   22.7030 C   0  0  0  0  0  0  0  0  0  0  0  0
    7.4560   -1.3571   24.1559 C   0  0  0  0  0  0  0  0  0  0  0  0
    6.3800   -2.4370   24.3997 C   0  0  0  0  0  0  0  0  0  0  0  0
    6.6914   -3.6716   23.7186 N   0  0  0  0  0  0  0  0  0  0  0  0
    6.2744   -4.0609   22.4622 C   0  0  0  0  0  0  0  0  0  0  0  0
    6.9344   -5.1915   22.0737 C   0  0  0  0  0  0  0  0  0  0  0  0
    7.8469   -5.5208   23.1402 C   0  0  0  0  0  0  0  0  0  0  0  0
    8.7635   -6.5621   23.3925 C   0  0  0  0  0  0  0  0  0  0  0  0
    9.4922   -6.5467   24.5763 C   0  0  0  0  0  0  0  0  0  0  0  0
    9.3584   -5.5060   25.5162 C   0  0  0  0  0  0  0  0  0  0  0  0
    8.4520   -4.4762   25.3061 C   0  0  0  0  0  0  0  0  0  0  0  0
    7.6804   -4.5283   24.1345 C   0  0  0  0  0  0  0  0  0  0  0  0
    8.3301   -3.6720   26.0273 H   0  0  0  0  0  0  0  0  0  0  0  0
    9.9557   -5.5326   26.4235 H   0  0  0  0  0  0  0  0  0  0  0  0
   10.1409   -7.3815   24.8042 H   0  0  0  0  0  0  0  0  0  0  0  0
    8.8765   -7.3763   22.6838 H   0  0  0  0  0  0  0  0  0  0  0  0
    6.8055   -5.7417   21.1506 H   0  0  0  0  0  0  0  0  0  0  0  0
    5.5413   -3.4399   21.9571 H   0  0  0  0  0  0  0  0  0  0  0  0
    6.2536   -2.6394   25.4703 H   0  0  0  0  0  0  0  0  0  0  0  0
    5.4079   -2.1162   24.0416 H   0  0  0  0  0  0  0  0  0  0  0  0
    8.4177   -1.7105   24.5413 H   0  0  0  0  0  0  0  0  0  0  0  0
    7.1899   -0.4501   24.7060 H   0  0  0  0  0  0  0  0  0  0  0  0
    9.9739   -2.5746   21.0757 H   0  0  0  0  0  0  0  0  0  0  0  0
    9.7965   -2.7653   22.8252 H   0  0  0  0  0  0  0  0  0  0  0  0
   10.6708   -0.0951   21.6584 H   0  0  0  0  0  0  0  0  0  0  0  0
   11.0896   -0.7303   23.2358 H   0  0  0  0  0  0  0  0  0  0  0  0
   12.2133   -1.8498   20.5734 H   0  0  0  0  0  0  0  0  0  0  0  0
   12.7910   -2.2598   22.1911 H   0  0  0  0  0  0  0  0  0  0  0  0
   13.0236   -0.6308   21.5557 H   0  0  0  0  0  0  0  0  0  0  0  0
  1  2  1  0
  2  3  1  0
  3  4  1  0
  4  5  1  0
  5  6  2  0
  6  7  1  0
  7  8  2  0
  8  9  1  0
  9 10  2  0
 10 11  1  0
 11 12  2  0
 12 13  1  0
 10 14  1  0
  9 15  1  0
  8 16  1  0
  6 17  1  0
 17 18  2  0
 18 19  1  0
 19 20  1  0
 20 21  1  0
 21 22  1  0
 22 23  2  0
 23 24  1  0
 24 25  2  0
 25 26  1  0
 26 27  2  0
 27 28  1  0
 28 29  2  0
 28 30  1  0
 27 31  1  0
 26 32  1  0
 25 33  1  0
 23 34  1  0
 22 35  1  0
 20 36  1  0
 20 37  1  0
 19 38  1  0
 19 39  1  0
  3 40  1  0
  3 41  1  0
  2 42  1  0
  2 43  1  0
  1 44  1  0
  1 45  1  0
  1 46  1  0
 18  4  1  0
 29 21  1  0
 12  7  1  0
 29 24  1  0
M  END
>  <cnnaffinity>  (1) 
-6.33394

>  <filename>  (1) 
CCCn1nc(-c2cccnc2)nc1CCn1ccc2ccccc21

$$$$
