
     RDKit          3D

 42 45  0  0  0  0  0  0  0  0999 V2000
    6.6660   -2.9858   25.4872 C   0  0  0  0  0  0  0  0  0  0  0  0
    6.3038   -2.4300   24.1134 C   0  0  0  0  0  0  0  0  0  0  0  0
    7.1279   -1.1814   23.7314 C   0  0  0  0  0  0  0  0  0  0  0  0
    7.1607   -0.8401   22.3033 N   0  0  0  0  0  0  0  0  0  0  0  0
    6.2649    0.0274   21.7637 N   0  0  0  0  0  0  0  0  0  0  0  0
    6.6526    0.1063   20.5049 C   0  0  0  0  0  0  0  0  0  0  0  0
    6.0012    0.8489   19.4330 C   0  0  0  0  0  0  0  0  0  0  0  0
    4.7780    1.5247   19.5508 C   0  0  0  0  0  0  0  0  0  0  0  0
    4.2990    2.1845   18.4188 C   0  0  0  0  0  0  0  0  0  0  0  0
    5.0578    2.1638   17.2419 C   0  0  0  0  0  0  0  0  0  0  0  0
    6.2084    1.4908   17.1130 N   0  0  0  0  0  0  0  0  0  0  0  0
    6.6574    0.8497   18.1920 C   0  0  0  0  0  0  0  0  0  0  0  0
    7.5941    0.3113   18.0789 H   0  0  0  0  0  0  0  0  0  0  0  0
    4.7252    2.7007   16.3550 H   0  0  0  0  0  0  0  0  0  0  0  0
    3.3605    2.7269   18.4298 H   0  0  0  0  0  0  0  0  0  0  0  0
    4.2326    1.5393   20.4969 H   0  0  0  0  0  0  0  0  0  0  0  0
    7.7558   -0.6290   20.2086 N   0  0  0  0  0  0  0  0  0  0  0  0
    8.0377   -1.2163   21.3433 C   0  0  0  0  0  0  0  0  0  0  0  0
    9.1108   -2.2277   21.5141 C   0  0  0  0  0  0  0  0  0  0  0  0
    8.5551   -3.5548   21.9425 C   0  0  0  0  0  0  0  0  0  0  0  0
    7.5493   -4.2431   21.3251 C   0  0  0  0  0  0  0  0  0  0  0  0
    7.3474   -5.4419   21.9787 N   0  0  0  0  0  0  0  0  0  0  0  0
    8.1604   -5.4847   23.0771 C   0  0  0  0  0  0  0  0  0  0  0  0
    8.9222   -4.2959   23.1119 C   0  0  0  0  0  0  0  0  0  0  0  0
    9.7128   -4.1479   24.2585 C   0  0  0  0  0  0  0  0  0  0  0  0
   10.5572   -2.6759   24.5726 Cl  0  0  0  0  0  0  0  0  0  0  0  0
    9.7576   -5.1646   25.2109 C   0  0  0  0  0  0  0  0  0  0  0  0
    8.9784   -6.3013   25.0072 C   0  0  0  0  0  0  0  0  0  0  0  0
    8.1799   -6.4729   23.9466 N   0  0  0  0  0  0  0  0  0  0  0  0
    9.0026   -7.1217   25.7212 H   0  0  0  0  0  0  0  0  0  0  0  0
   10.3607   -5.0718   26.1019 H   0  0  0  0  0  0  0  0  0  0  0  0
    6.5676   -6.0735   21.9213 H   0  0  0  0  0  0  0  0  0  0  0  0
    6.9350   -3.9231   20.4907 H   0  0  0  0  0  0  0  0  0  0  0  0
    9.6351   -2.3161   20.5599 H   0  0  0  0  0  0  0  0  0  0  0  0
    9.8387   -1.8695   22.2419 H   0  0  0  0  0  0  0  0  0  0  0  0
    8.1641   -1.3249   24.0554 H   0  0  0  0  0  0  0  0  0  0  0  0
    6.7456   -0.3001   24.2525 H   0  0  0  0  0  0  0  0  0  0  0  0
    6.4118   -3.2145   23.3560 H   0  0  0  0  0  0  0  0  0  0  0  0
    5.2419   -2.1969   24.1552 H   0  0  0  0  0  0  0  0  0  0  0  0
    6.4567   -2.2713   26.2920 H   0  0  0  0  0  0  0  0  0  0  0  0
    6.0807   -3.8885   25.6901 H   0  0  0  0  0  0  0  0  0  0  0  0
    7.7207   -3.2580   25.5610 H   0  0  0  0  0  0  0  0  0  0  0  0
  1  2  1  0
  2  3  1  0
  3  4  1  0
  4  5  1  0
  5  6  2  0
  6  7  1  0
  7  8  2  0
  8  9  1  0
  9 10  2  0
 10 11  1  0
 11 12  2  0
 12 13  1  0
 10 14  1  0
  9 15  1  0
  8 16  1  0
  6 17  1  0
 17 18  2  0
 18 19  1  0
 19 20  1  0
 20 21  2  0
 21 22  1  0
 22 23  1  0
 23 24  2  0
 24 25  1  0
 25 26  1  0
 25 27  2  0
 27 28  1  0
 28 29  2  0
 28 30  1  0
 27 31  1  0
 22 32  1  0
 21 33  1  0
 19 34  1  0
 19 35  1  0
  3 36  1  0
  3 37  1  0
  2 38  1  0
  2 39  1  0
  1 40  1  0
  1 41  1  0
  1 42  1  0
 18  4  1  0
 24 20  1  0
 12  7  1  0
 29 23  1  0
M  END
>  <cnnaffinity>  (1) 
-6.19301

>  <filename>  (1) 
CCCn1nc(-c2cccnc2)nc1Cc1c[nH]c2nccc(Cl)c12

$$$$
