
     RDKit          3D

 43 46  0  0  0  0  0  0  0  0999 V2000
   11.4002   -0.2185   21.7343 C   0  0  0  0  0  0  0  0  0  0  0  0
   10.9670   -1.4805   22.4801 C   0  0  0  0  0  0  0  0  0  0  0  0
    9.8317   -2.2358   21.7911 C   0  0  0  0  0  0  0  0  0  0  0  0
    8.5677   -1.5042   21.6854 N   0  0  0  0  0  0  0  0  0  0  0  0
    8.1691   -1.1315   20.4565 N   0  0  0  0  0  0  0  0  0  0  0  0
    7.1106   -0.3751   20.6832 C   0  0  0  0  0  0  0  0  0  0  0  0
    6.4290    0.2845   19.5718 C   0  0  0  0  0  0  0  0  0  0  0  0
    5.2332    1.0068   19.6945 C   0  0  0  0  0  0  0  0  0  0  0  0
    4.6964    1.5799   18.5420 C   0  0  0  0  0  0  0  0  0  0  0  0
    5.3742    1.4246   17.3284 C   0  0  0  0  0  0  0  0  0  0  0  0
    6.5210    0.7411   17.2038 N   0  0  0  0  0  0  0  0  0  0  0  0
    7.0321    0.1963   18.3083 C   0  0  0  0  0  0  0  0  0  0  0  0
    7.9809   -0.3249   18.1963 H   0  0  0  0  0  0  0  0  0  0  0  0
    4.9920    1.8744   16.4160 H   0  0  0  0  0  0  0  0  0  0  0  0
    3.7767    2.1547   18.5638 H   0  0  0  0  0  0  0  0  0  0  0  0
    4.7487    1.1217   20.6640 H   0  0  0  0  0  0  0  0  0  0  0  0
    6.7976   -0.2472   21.9880 N   0  0  0  0  0  0  0  0  0  0  0  0
    7.7082   -0.9914   22.6055 C   0  0  0  0  0  0  0  0  0  0  0  0
    7.8497   -1.1105   24.0680 C   0  0  0  0  0  0  0  0  0  0  0  0
    8.1436   -2.3543   24.6654 C   0  0  0  0  0  0  0  0  0  0  0  0
    8.2060   -3.6188   24.1139 N   0  0  0  0  0  0  0  0  0  0  0  0
    8.6277   -4.4021   25.0746 C   0  0  0  0  0  0  0  0  0  0  0  0
    8.9770   -5.8633   24.9635 C   0  0  0  0  0  0  0  0  0  0  0  0
   10.3851   -6.0208   25.0957 O   0  0  0  0  0  0  0  0  0  0  0  0
   10.6218   -6.9340   25.3154 H   0  0  0  0  0  0  0  0  0  0  0  0
    8.4363   -6.3939   25.7633 H   0  0  0  0  0  0  0  0  0  0  0  0
    8.6068   -6.2183   23.9912 H   0  0  0  0  0  0  0  0  0  0  0  0
    8.7517   -3.7448   26.2663 N   0  0  0  0  0  0  0  0  0  0  0  0
    8.4481   -2.4141   26.0457 C   0  0  0  0  0  0  0  0  0  0  0  0
    8.3820   -1.3009   26.8806 C   0  0  0  0  0  0  0  0  0  0  0  0
    7.9964   -0.0905   26.2967 C   0  0  0  0  0  0  0  0  0  0  0  0
    7.7354    0.0042   24.9140 C   0  0  0  0  0  0  0  0  0  0  0  0
    7.4479    0.9592   24.4817 H   0  0  0  0  0  0  0  0  0  0  0  0
    7.9026    0.7922   26.9237 H   0  0  0  0  0  0  0  0  0  0  0  0
    8.6184   -1.3715   27.9395 H   0  0  0  0  0  0  0  0  0  0  0  0
    9.1249   -4.1573   27.1010 H   0  0  0  0  0  0  0  0  0  0  0  0
   10.1097   -2.4477   20.7563 H   0  0  0  0  0  0  0  0  0  0  0  0
    9.6287   -3.1845   22.2887 H   0  0  0  0  0  0  0  0  0  0  0  0
   10.6810   -1.2421   23.5124 H   0  0  0  0  0  0  0  0  0  0  0  0
   11.8016   -2.1887   22.5434 H   0  0  0  0  0  0  0  0  0  0  0  0
   12.3441    0.1681   22.1304 H   0  0  0  0  0  0  0  0  0  0  0  0
   10.6529    0.5767   21.8266 H   0  0  0  0  0  0  0  0  0  0  0  0
   11.5555   -0.4141   20.6666 H   0  0  0  0  0  0  0  0  0  0  0  0
  1  2  1  0
  2  3  1  0
  3  4  1  0
  4  5  1  0
  5  6  2  0
  6  7  1  0
  7  8  2  0
  8  9  1  0
  9 10  2  0
 10 11  1  0
 11 12  2  0
 12 13  1  0
 10 14  1  0
  9 15  1  0
  8 16  1  0
  6 17  1  0
 17 18  2  0
 18 19  1  0
 19 20  2  0
 20 21  1  0
 21 22  2  0
 22 23  1  0
 23 24  1  0
 24 25  1  0
 23 26  1  0
 23 27  1  0
 22 28  1  0
 28 29  1  0
 29 30  2  0
 30 31  1  0
 31 32  2  0
 32 33  1  0
 31 34  1  0
 30 35  1  0
 28 36  1  0
  3 37  1  0
  3 38  1  0
  2 39  1  0
  2 40  1  0
  1 41  1  0
  1 42  1  0
  1 43  1  0
 18  4  1  0
 32 19  1  0
 12  7  1  0
 29 20  1  0
M  END
>  <cnnaffinity>  (1) 
-5.82049

>  <filename>  (1) 
CCCn1nc(-c2cccnc2)nc1-c1cccc2[nH]c(CO)nc12

$$$$
