
     RDKit          3D

 45 48  0  0  0  0  0  0  0  0999 V2000
   11.5638   -0.5517   21.8549 C   0  0  0  0  0  0  0  0  0  0  0  0
   11.1420   -1.7821   22.6514 C   0  0  0  0  0  0  0  0  0  0  0  0
    9.9328   -2.5276   22.0862 C   0  0  0  0  0  0  0  0  0  0  0  0
    8.7206   -1.7292   21.9740 N   0  0  0  0  0  0  0  0  0  0  0  0
    8.4025   -1.2224   20.7659 N   0  0  0  0  0  0  0  0  0  0  0  0
    7.2879   -0.5575   20.9937 C   0  0  0  0  0  0  0  0  0  0  0  0
    6.5687    0.1084   19.9095 C   0  0  0  0  0  0  0  0  0  0  0  0
    5.3429    0.7686   20.0910 C   0  0  0  0  0  0  0  0  0  0  0  0
    4.7637    1.3834   18.9847 C   0  0  0  0  0  0  0  0  0  0  0  0
    5.4213    1.3240   17.7507 C   0  0  0  0  0  0  0  0  0  0  0  0
    6.5802    0.6748   17.5629 N   0  0  0  0  0  0  0  0  0  0  0  0
    7.1330    0.0783   18.6214 C   0  0  0  0  0  0  0  0  0  0  0  0
    8.0686   -0.4475   18.4259 H   0  0  0  0  0  0  0  0  0  0  0  0
    4.9960    1.8123   16.8770 H   0  0  0  0  0  0  0  0  0  0  0  0
    3.8251    1.9178   19.0685 H   0  0  0  0  0  0  0  0  0  0  0  0
    4.8707    0.8082   21.0759 H   0  0  0  0  0  0  0  0  0  0  0  0
    6.8912   -0.5809   22.2897 N   0  0  0  0  0  0  0  0  0  0  0  0
    7.7836   -1.3572   22.8810 C   0  0  0  0  0  0  0  0  0  0  0  0
    7.7926   -1.7759   24.3481 C   0  0  0  0  0  0  0  0  0  0  0  0
    6.6414   -2.5824   24.8164 N   0  0  0  0  0  0  0  0  0  0  0  0
    6.7233   -3.9665   24.7184 C   0  0  0  0  0  0  0  0  0  0  0  0
    7.7086   -4.5506   24.3085 O   0  0  0  0  0  0  0  0  0  0  0  0
    5.5005   -4.7401   25.2209 C   0  0  0  0  0  0  0  0  0  0  0  0
    4.2295   -4.1071   25.0344 O   0  0  0  0  0  0  0  0  0  0  0  0
    4.2088   -2.7450   25.1687 C   0  0  0  0  0  0  0  0  0  0  0  0
    2.9681   -2.1309   25.3639 C   0  0  0  0  0  0  0  0  0  0  0  0
    2.8673   -0.7393   25.4495 C   0  0  0  0  0  0  0  0  0  0  0  0
    4.0297    0.0280   25.3551 C   0  0  0  0  0  0  0  0  0  0  0  0
    3.9095    1.7625   25.3204 Cl  0  0  0  0  0  0  0  0  0  0  0  0
    5.2831   -0.5635   25.2162 C   0  0  0  0  0  0  0  0  0  0  0  0
    5.3920   -1.9603   25.0909 C   0  0  0  0  0  0  0  0  0  0  0  0
    6.1416    0.0884   25.1202 H   0  0  0  0  0  0  0  0  0  0  0  0
    1.9053   -0.2589   25.5908 H   0  0  0  0  0  0  0  0  0  0  0  0
    2.0936   -2.7698   25.4367 H   0  0  0  0  0  0  0  0  0  0  0  0
    5.4624   -5.6753   24.6672 H   0  0  0  0  0  0  0  0  0  0  0  0
    5.6576   -4.9608   26.2847 H   0  0  0  0  0  0  0  0  0  0  0  0
    8.7032   -2.3344   24.5734 H   0  0  0  0  0  0  0  0  0  0  0  0
    7.8492   -0.8805   24.9735 H   0  0  0  0  0  0  0  0  0  0  0  0
   10.1175   -2.8400   21.0585 H   0  0  0  0  0  0  0  0  0  0  0  0
    9.7058   -3.4107   22.6929 H   0  0  0  0  0  0  0  0  0  0  0  0
   11.9709   -2.4993   22.7034 H   0  0  0  0  0  0  0  0  0  0  0  0
   10.9208   -1.4957   23.6864 H   0  0  0  0  0  0  0  0  0  0  0  0
   12.3782   -0.0339   22.3712 H   0  0  0  0  0  0  0  0  0  0  0  0
   11.9123   -0.8106   20.8483 H   0  0  0  0  0  0  0  0  0  0  0  0
   10.7369    0.1570   21.7419 H   0  0  0  0  0  0  0  0  0  0  0  0
  1  2  1  0
  2  3  1  0
  3  4  1  0
  4  5  1  0
  5  6  2  0
  6  7  1  0
  7  8  2  0
  8  9  1  0
  9 10  2  0
 10 11  1  0
 11 12  2  0
 12 13  1  0
 10 14  1  0
  9 15  1  0
  8 16  1  0
  6 17  1  0
 17 18  2  0
 18 19  1  0
 19 20  1  0
 20 21  1  0
 21 22  2  0
 21 23  1  0
 23 24  1  0
 24 25  1  0
 25 26  2  0
 26 27  1  0
 27 28  2  0
 28 29  1  0
 28 30  1  0
 30 31  2  0
 30 32  1  0
 27 33  1  0
 26 34  1  0
 23 35  1  0
 23 36  1  0
 19 37  1  0
 19 38  1  0
  3 39  1  0
  3 40  1  0
  2 41  1  0
  2 42  1  0
  1 43  1  0
  1 44  1  0
  1 45  1  0
 18  4  1  0
 31 20  1  0
 12  7  1  0
 31 25  1  0
M  END
>  <cnnaffinity>  (1) 
-6.02523

>  <filename>  (1) 
CCCn1nc(-c2cccnc2)nc1CN1C(=O)COc2ccc(Cl)cc21

$$$$
