
     RDKit          3D

 39 42  0  0  0  0  0  0  0  0999 V2000
   11.2952   -0.2105   21.8374 C   0  0  0  0  0  0  0  0  0  0  0  0
   11.1180   -1.4869   22.6534 C   0  0  0  0  0  0  0  0  0  0  0  0
   10.0344   -2.3720   22.0405 C   0  0  0  0  0  0  0  0  0  0  0  0
    8.7485   -1.6839   21.8710 N   0  0  0  0  0  0  0  0  0  0  0  0
    8.3705   -1.2127   20.6676 N   0  0  0  0  0  0  0  0  0  0  0  0
    7.3017   -0.5130   20.9505 C   0  0  0  0  0  0  0  0  0  0  0  0
    6.5712    0.1369   19.8835 C   0  0  0  0  0  0  0  0  0  0  0  0
    5.3538    0.7953   20.0716 C   0  0  0  0  0  0  0  0  0  0  0  0
    4.7723    1.3965   18.9571 C   0  0  0  0  0  0  0  0  0  0  0  0
    5.4054    1.3258   17.7116 C   0  0  0  0  0  0  0  0  0  0  0  0
    6.5638    0.6682   17.5371 N   0  0  0  0  0  0  0  0  0  0  0  0
    7.1302    0.0888   18.6063 C   0  0  0  0  0  0  0  0  0  0  0  0
    8.0711   -0.4340   18.4603 H   0  0  0  0  0  0  0  0  0  0  0  0
    4.9449    1.8198   16.8595 H   0  0  0  0  0  0  0  0  0  0  0  0
    3.8380    1.9352   19.0464 H   0  0  0  0  0  0  0  0  0  0  0  0
    4.8758    0.8474   21.0500 H   0  0  0  0  0  0  0  0  0  0  0  0
    6.9606   -0.4853   22.2911 N   0  0  0  0  0  0  0  0  0  0  0  0
    7.8569   -1.2516   22.8416 C   0  0  0  0  0  0  0  0  0  0  0  0
    7.7717   -1.6088   24.2395 C   0  0  0  0  0  0  0  0  0  0  0  0
    8.0549   -2.8062   24.8169 C   0  0  0  0  0  0  0  0  0  0  0  0
    8.5989   -4.0760   24.3476 C   0  0  0  0  0  0  0  0  0  0  0  0
    8.9047   -5.0369   25.2879 C   0  0  0  0  0  0  0  0  0  0  0  0
    9.7227   -6.6371   24.7413 Br  0  0  0  0  0  0  0  0  0  0  0  0
    8.5562   -4.8465   26.6971 C   0  0  0  0  0  0  0  0  0  0  0  0
    7.8761   -3.7063   27.0601 C   0  0  0  0  0  0  0  0  0  0  0  0
    7.6703   -2.6734   26.1426 N   0  0  0  0  0  0  0  0  0  0  0  0
    7.1644   -1.4375   26.4231 N   0  0  0  0  0  0  0  0  0  0  0  0
    7.2297   -0.7755   25.2908 C   0  0  0  0  0  0  0  0  0  0  0  0
    6.9582    0.2732   25.1683 H   0  0  0  0  0  0  0  0  0  0  0  0
    7.4803   -3.6235   28.0501 H   0  0  0  0  0  0  0  0  0  0  0  0
    8.7747   -5.6252   27.4313 H   0  0  0  0  0  0  0  0  0  0  0  0
    8.7586   -4.2754   23.2944 H   0  0  0  0  0  0  0  0  0  0  0  0
    9.9174   -3.2830   22.6212 H   0  0  0  0  0  0  0  0  0  0  0  0
   10.3673   -2.6612   21.0453 H   0  0  0  0  0  0  0  0  0  0  0  0
   10.8684   -1.2360   23.6902 H   0  0  0  0  0  0  0  0  0  0  0  0
   12.0622   -2.0417   22.6410 H   0  0  0  0  0  0  0  0  0  0  0  0
   11.5899   -0.4601   20.8136 H   0  0  0  0  0  0  0  0  0  0  0  0
   12.0680    0.4244   22.2788 H   0  0  0  0  0  0  0  0  0  0  0  0
   10.3565    0.3506   21.8109 H   0  0  0  0  0  0  0  0  0  0  0  0
  1  2  1  0
  2  3  1  0
  3  4  1  0
  4  5  1  0
  5  6  2  0
  6  7  1  0
  7  8  2  0
  8  9  1  0
  9 10  2  0
 10 11  1  0
 11 12  2  0
 12 13  1  0
 10 14  1  0
  9 15  1  0
  8 16  1  0
  6 17  1  0
 17 18  2  0
 18 19  1  0
 19 20  2  0
 20 21  1  0
 21 22  2  0
 22 23  1  0
 22 24  1  0
 24 25  2  0
 25 26  1  0
 26 27  1  0
 27 28  2  0
 28 29  1  0
 25 30  1  0
 24 31  1  0
 21 32  1  0
  3 33  1  0
  3 34  1  0
  2 35  1  0
  2 36  1  0
  1 37  1  0
  1 38  1  0
  1 39  1  0
 18  4  1  0
 28 19  1  0
 12  7  1  0
 26 20  1  0
M  END
>  <cnnaffinity>  (1) 
-5.90242

>  <filename>  (1) 
CCCn1nc(-c2cccnc2)nc1-c1cnn2ccc(Br)cc12

$$$$
