
     RDKit          3D

 41 44  0  0  0  0  0  0  0  0999 V2000
    6.5418   -3.3126   25.9715 C   0  0  0  0  0  0  0  0  0  0  0  0
    6.2915   -2.7351   24.5750 C   0  0  0  0  0  0  0  0  0  0  0  0
    7.1798   -1.5102   24.2695 C   0  0  0  0  0  0  0  0  0  0  0  0
    7.3363   -1.1876   22.8465 N   0  0  0  0  0  0  0  0  0  0  0  0
    6.4379   -0.4007   22.1983 N   0  0  0  0  0  0  0  0  0  0  0  0
    6.8640   -0.4164   20.9513 C   0  0  0  0  0  0  0  0  0  0  0  0
    6.2405    0.2762   19.8192 C   0  0  0  0  0  0  0  0  0  0  0  0
    5.0375    1.0049   19.8629 C   0  0  0  0  0  0  0  0  0  0  0  0
    4.5936    1.5997   18.6795 C   0  0  0  0  0  0  0  0  0  0  0  0
    5.3517    1.4480   17.5108 C   0  0  0  0  0  0  0  0  0  0  0  0
    6.4921    0.7449   17.4599 N   0  0  0  0  0  0  0  0  0  0  0  0
    6.9209    0.1866   18.5938 C   0  0  0  0  0  0  0  0  0  0  0  0
    7.8609   -0.3579   18.5408 H   0  0  0  0  0  0  0  0  0  0  0  0
    5.0394    1.9221   16.5800 H   0  0  0  0  0  0  0  0  0  0  0  0
    3.6919    2.2035   18.6485 H   0  0  0  0  0  0  0  0  0  0  0  0
    4.4810    1.1113   20.7986 H   0  0  0  0  0  0  0  0  0  0  0  0
    7.9902   -1.1570   20.7587 N   0  0  0  0  0  0  0  0  0  0  0  0
    8.2698   -1.6045   21.9623 C   0  0  0  0  0  0  0  0  0  0  0  0
    9.4773   -2.4316   22.2842 C   0  0  0  0  0  0  0  0  0  0  0  0
   10.5300   -1.8418   23.2687 C   0  0  0  0  0  0  0  0  0  0  0  0
   10.5894   -2.7116   24.4172 O   0  0  0  0  0  0  0  0  0  0  0  0
    9.8753   -3.8301   24.1441 C   0  0  0  0  0  0  0  0  0  0  0  0
    9.7516   -4.9354   24.9753 C   0  0  0  0  0  0  0  0  0  0  0  0
    8.9897   -6.0242   24.5183 C   0  0  0  0  0  0  0  0  0  0  0  0
    8.3359   -5.9544   23.2725 C   0  0  0  0  0  0  0  0  0  0  0  0
    7.4753   -7.2963   22.5700 Cl  0  0  0  0  0  0  0  0  0  0  0  0
    8.3828   -4.7880   22.4972 C   0  0  0  0  0  0  0  0  0  0  0  0
    9.1825   -3.7488   22.9443 C   0  0  0  0  0  0  0  0  0  0  0  0
    7.8232   -4.7179   21.5676 H   0  0  0  0  0  0  0  0  0  0  0  0
    8.9164   -6.9007   25.1545 H   0  0  0  0  0  0  0  0  0  0  0  0
   10.2157   -4.9275   25.9576 H   0  0  0  0  0  0  0  0  0  0  0  0
   11.5273   -1.8373   22.8124 H   0  0  0  0  0  0  0  0  0  0  0  0
   10.2998   -0.8463   23.6548 H   0  0  0  0  0  0  0  0  0  0  0  0
    9.9336   -2.5863   21.3037 H   0  0  0  0  0  0  0  0  0  0  0  0
    6.7749   -0.6216   24.7622 H   0  0  0  0  0  0  0  0  0  0  0  0
    8.1866   -1.6675   24.6661 H   0  0  0  0  0  0  0  0  0  0  0  0
    6.4592   -3.5226   23.8307 H   0  0  0  0  0  0  0  0  0  0  0  0
    5.2399   -2.4460   24.4706 H   0  0  0  0  0  0  0  0  0  0  0  0
    6.3604   -2.5756   26.7658 H   0  0  0  0  0  0  0  0  0  0  0  0
    7.5759   -3.6642   26.0664 H   0  0  0  0  0  0  0  0  0  0  0  0
    5.8933   -4.1766   26.1638 H   0  0  0  0  0  0  0  0  0  0  0  0
  1  2  1  0
  2  3  1  0
  3  4  1  0
  4  5  1  0
  5  6  2  0
  6  7  1  0
  7  8  2  0
  8  9  1  0
  9 10  2  0
 10 11  1  0
 11 12  2  0
 12 13  1  0
 10 14  1  0
  9 15  1  0
  8 16  1  0
  6 17  1  0
 17 18  2  0
 18 19  1  0
 19 20  1  0
 20 21  1  0
 21 22  1  0
 22 23  2  0
 23 24  1  0
 24 25  2  0
 25 26  1  0
 25 27  1  0
 27 28  2  0
 27 29  1  0
 24 30  1  0
 23 31  1  0
 20 32  1  0
 20 33  1  0
 19 34  1  0
  3 35  1  0
  3 36  1  0
  2 37  1  0
  2 38  1  0
  1 39  1  0
  1 40  1  0
  1 41  1  0
 18  4  1  0
 28 19  1  0
 12  7  1  0
 28 22  1  0
M  END
>  <cnnaffinity>  (1) 
-6.1971

>  <filename>  (1) 
CCCn1nc(-c2cccnc2)nc1C1COc2ccc(Cl)cc21

$$$$
