
     RDKit          3D

 51 54  0  0  0  0  0  0  0  0999 V2000
   12.3847   -1.5146   21.6510 C   0  0  0  0  0  0  0  0  0  0  0  0
   11.0211   -1.0541   22.1742 C   0  0  0  0  0  0  0  0  0  0  0  0
    9.8779   -2.0403   21.8793 C   0  0  0  0  0  0  0  0  0  0  0  0
    8.5833   -1.3799   21.7003 N   0  0  0  0  0  0  0  0  0  0  0  0
    8.3275   -0.8594   20.4769 N   0  0  0  0  0  0  0  0  0  0  0  0
    7.1199   -0.3479   20.6153 C   0  0  0  0  0  0  0  0  0  0  0  0
    6.4095    0.3041   19.5277 C   0  0  0  0  0  0  0  0  0  0  0  0
    5.2015    0.9898   19.7131 C   0  0  0  0  0  0  0  0  0  0  0  0
    4.6382    1.6197   18.6073 C   0  0  0  0  0  0  0  0  0  0  0  0
    5.2942    1.5330   17.3728 C   0  0  0  0  0  0  0  0  0  0  0  0
    6.4299    0.8465   17.1836 N   0  0  0  0  0  0  0  0  0  0  0  0
    6.9726    0.2491   18.2470 C   0  0  0  0  0  0  0  0  0  0  0  0
    7.8981   -0.2983   18.0789 H   0  0  0  0  0  0  0  0  0  0  0  0
    4.8928    2.0370   16.4972 H   0  0  0  0  0  0  0  0  0  0  0  0
    3.7189    2.1859   18.6907 H   0  0  0  0  0  0  0  0  0  0  0  0
    4.7322    1.0305   20.6989 H   0  0  0  0  0  0  0  0  0  0  0  0
    6.5855   -0.4978   21.8443 N   0  0  0  0  0  0  0  0  0  0  0  0
    7.5223   -1.1448   22.5109 C   0  0  0  0  0  0  0  0  0  0  0  0
    7.3109   -1.6243   23.9043 C   0  0  0  0  0  0  0  0  0  0  0  0
    6.6199   -3.0047   23.9419 C   0  0  0  0  0  0  0  0  0  0  0  0
    6.3494   -3.4283   25.3133 N   0  0  0  0  0  0  0  0  0  0  0  0
    5.1040   -3.1627   25.8643 C   0  0  0  0  0  0  0  0  0  0  0  0
    4.1693   -2.7210   25.2162 O   0  0  0  0  0  0  0  0  0  0  0  0
    4.9882   -3.4133   27.3872 C   0  0  0  0  0  0  0  0  0  0  0  0
    5.3364   -2.1628   28.2016 C   0  0  0  0  0  0  0  0  0  0  0  0
    4.6846   -1.3243   27.9309 H   0  0  0  0  0  0  0  0  0  0  0  0
    6.3781   -1.8658   28.0282 H   0  0  0  0  0  0  0  0  0  0  0  0
    5.2178   -2.3909   29.2654 H   0  0  0  0  0  0  0  0  0  0  0  0
    5.7802   -4.5258   27.8257 O   0  0  0  0  0  0  0  0  0  0  0  0
    7.0762   -4.5225   27.3630 C   0  0  0  0  0  0  0  0  0  0  0  0
    8.0597   -5.0906   28.1642 C   0  0  0  0  0  0  0  0  0  0  0  0
    9.3929   -5.0873   27.7469 C   0  0  0  0  0  0  0  0  0  0  0  0
    9.7287   -4.5583   26.4958 C   0  0  0  0  0  0  0  0  0  0  0  0
    8.7274   -4.0352   25.6735 C   0  0  0  0  0  0  0  0  0  0  0  0
    7.3862   -3.9936   26.0909 C   0  0  0  0  0  0  0  0  0  0  0  0
    8.9982   -3.6440   24.7008 H   0  0  0  0  0  0  0  0  0  0  0  0
   10.7643   -4.5400   26.1651 H   0  0  0  0  0  0  0  0  0  0  0  0
   10.1604   -5.4948   28.3951 H   0  0  0  0  0  0  0  0  0  0  0  0
    7.7405   -5.5140   29.1122 H   0  0  0  0  0  0  0  0  0  0  0  0
    3.9562   -3.7128   27.5630 H   0  0  0  0  0  0  0  0  0  0  0  0
    5.6629   -2.9679   23.4148 H   0  0  0  0  0  0  0  0  0  0  0  0
    7.2346   -3.7669   23.4386 H   0  0  0  0  0  0  0  0  0  0  0  0
    8.2563   -1.6360   24.4581 H   0  0  0  0  0  0  0  0  0  0  0  0
    6.6616   -0.8911   24.3945 H   0  0  0  0  0  0  0  0  0  0  0  0
    9.7820   -2.8357   22.6261 H   0  0  0  0  0  0  0  0  0  0  0  0
   10.0718   -2.5179   20.9162 H   0  0  0  0  0  0  0  0  0  0  0  0
   11.0745   -0.8442   23.2484 H   0  0  0  0  0  0  0  0  0  0  0  0
   10.7662   -0.1109   21.6778 H   0  0  0  0  0  0  0  0  0  0  0  0
   12.3267   -1.8157   20.5996 H   0  0  0  0  0  0  0  0  0  0  0  0
   12.8066   -2.3593   22.2030 H   0  0  0  0  0  0  0  0  0  0  0  0
   13.1208   -0.7065   21.7054 H   0  0  0  0  0  0  0  0  0  0  0  0
  1  2  1  0
  2  3  1  0
  3  4  1  0
  4  5  1  0
  5  6  2  0
  6  7  1  0
  7  8  2  0
  8  9  1  0
  9 10  2  0
 10 11  1  0
 11 12  2  0
 12 13  1  0
 10 14  1  0
  9 15  1  0
  8 16  1  0
  6 17  1  0
 17 18  2  0
 18 19  1  0
 19 20  1  0
 20 21  1  0
 21 22  1  0
 22 23  2  0
 22 24  1  0
 24 25  1  0
 25 26  1  0
 25 27  1  0
 25 28  1  0
 24 29  1  0
 29 30  1  0
 30 31  2  0
 31 32  1  0
 32 33  2  0
 33 34  1  0
 34 35  2  0
 34 36  1  0
 33 37  1  0
 32 38  1  0
 31 39  1  0
 24 40  1  0
 20 41  1  0
 20 42  1  0
 19 43  1  0
 19 44  1  0
  3 45  1  0
  3 46  1  0
  2 47  1  0
  2 48  1  0
  1 49  1  0
  1 50  1  0
  1 51  1  0
 18  4  1  0
 35 21  1  0
 12  7  1  0
 35 30  1  0
M  END
>  <cnnaffinity>  (1) 
-6.11078

>  <filename>  (1) 
CCCn1nc(-c2cccnc2)nc1CCN1C(=O)C(C)Oc2ccccc21

$$$$
