
     RDKit          3D

 41 44  0  0  0  0  0  0  0  0999 V2000
   12.4379   -2.0274   22.0947 C   0  0  0  0  0  0  0  0  0  0  0  0
   11.0742   -1.4183   22.4114 C   0  0  0  0  0  0  0  0  0  0  0  0
    9.9725   -2.4340   22.0905 C   0  0  0  0  0  0  0  0  0  0  0  0
    8.6573   -1.8398   21.9045 N   0  0  0  0  0  0  0  0  0  0  0  0
    8.3570   -1.3381   20.6859 N   0  0  0  0  0  0  0  0  0  0  0  0
    7.2518   -0.6557   20.9070 C   0  0  0  0  0  0  0  0  0  0  0  0
    6.5536    0.0537   19.8491 C   0  0  0  0  0  0  0  0  0  0  0  0
    5.3436    0.7216   20.0759 C   0  0  0  0  0  0  0  0  0  0  0  0
    4.7525    1.3697   18.9967 C   0  0  0  0  0  0  0  0  0  0  0  0
    5.3944    1.3335   17.7522 C   0  0  0  0  0  0  0  0  0  0  0  0
    6.5528    0.6950   17.5315 N   0  0  0  0  0  0  0  0  0  0  0  0
    7.1187    0.0708   18.5664 C   0  0  0  0  0  0  0  0  0  0  0  0
    8.0626   -0.4363   18.3704 H   0  0  0  0  0  0  0  0  0  0  0  0
    4.9580    1.8361   16.8938 H   0  0  0  0  0  0  0  0  0  0  0  0
    3.8207    1.9107   19.1074 H   0  0  0  0  0  0  0  0  0  0  0  0
    4.8971    0.7312   21.0736 H   0  0  0  0  0  0  0  0  0  0  0  0
    6.8407   -0.6485   22.1944 N   0  0  0  0  0  0  0  0  0  0  0  0
    7.7318   -1.4110   22.7996 C   0  0  0  0  0  0  0  0  0  0  0  0
    7.8019   -1.7428   24.2383 C   0  0  0  0  0  0  0  0  0  0  0  0
    7.9880   -0.7087   25.1397 C   0  0  0  0  0  0  0  0  0  0  0  0
    8.1503   -0.9595   26.5213 C   0  0  0  0  0  0  0  0  0  0  0  0
    8.0861   -2.2509   26.9908 C   0  0  0  0  0  0  0  0  0  0  0  0
    7.8330   -3.3387   26.1195 C   0  0  0  0  0  0  0  0  0  0  0  0
    7.6850   -4.6737   26.5950 C   0  0  0  0  0  0  0  0  0  0  0  0
    7.4624   -5.6900   25.7038 C   0  0  0  0  0  0  0  0  0  0  0  0
    7.3723   -5.5071   24.3600 N   0  0  0  0  0  0  0  0  0  0  0  0
    7.4953   -4.2705   23.9034 C   0  0  0  0  0  0  0  0  0  0  0  0
    7.7155   -3.1062   24.7152 C   0  0  0  0  0  0  0  0  0  0  0  0
    7.4197   -4.1469   22.8233 H   0  0  0  0  0  0  0  0  0  0  0  0
    7.3450   -6.7159   26.0523 H   0  0  0  0  0  0  0  0  0  0  0  0
    7.7368   -4.8759   27.6602 H   0  0  0  0  0  0  0  0  0  0  0  0
    8.2484   -2.4734   28.0297 H   0  0  0  0  0  0  0  0  0  0  0  0
    8.3211   -0.1275   27.2000 H   0  0  0  0  0  0  0  0  0  0  0  0
    8.0235    0.3119   24.7643 H   0  0  0  0  0  0  0  0  0  0  0  0
   10.1833   -2.8754   21.1212 H   0  0  0  0  0  0  0  0  0  0  0  0
    9.9090   -3.2183   22.8598 H   0  0  0  0  0  0  0  0  0  0  0  0
   10.9318   -0.5255   21.7861 H   0  0  0  0  0  0  0  0  0  0  0  0
   10.9650   -1.1004   23.4560 H   0  0  0  0  0  0  0  0  0  0  0  0
   12.5350   -3.0192   22.5384 H   0  0  0  0  0  0  0  0  0  0  0  0
   13.2644   -1.4334   22.4794 H   0  0  0  0  0  0  0  0  0  0  0  0
   12.5697   -2.1318   21.0091 H   0  0  0  0  0  0  0  0  0  0  0  0
  1  2  1  0
  2  3  1  0
  3  4  1  0
  4  5  1  0
  5  6  2  0
  6  7  1  0
  7  8  2  0
  8  9  1  0
  9 10  2  0
 10 11  1  0
 11 12  2  0
 12 13  1  0
 10 14  1  0
  9 15  1  0
  8 16  1  0
  6 17  1  0
 17 18  2  0
 18 19  1  0
 19 20  2  0
 20 21  1  0
 21 22  2  0
 22 23  1  0
 23 24  2  0
 24 25  1  0
 25 26  2  0
 26 27  1  0
 27 28  2  0
 27 29  1  0
 25 30  1  0
 24 31  1  0
 22 32  1  0
 21 33  1  0
 20 34  1  0
  3 35  1  0
  3 36  1  0
  2 37  1  0
  2 38  1  0
  1 39  1  0
  1 40  1  0
  1 41  1  0
 18  4  1  0
 28 19  1  0
 12  7  1  0
 28 23  1  0
M  END
>  <cnnaffinity>  (1) 
-6.28469

>  <filename>  (1) 
CCCn1nc(-c2cccnc2)nc1-c1cccc2ccncc12

$$$$
