
     RDKit          3D

 43 46  0  0  0  0  0  0  0  0999 V2000
   12.4150   -2.1220   22.2527 C   0  0  0  0  0  0  0  0  0  0  0  0
   11.0291   -1.5185   22.4279 C   0  0  0  0  0  0  0  0  0  0  0  0
    9.9353   -2.4992   22.0192 C   0  0  0  0  0  0  0  0  0  0  0  0
    8.6412   -1.8551   21.8939 N   0  0  0  0  0  0  0  0  0  0  0  0
    8.3307   -1.3262   20.6926 N   0  0  0  0  0  0  0  0  0  0  0  0
    7.2356   -0.6344   20.9416 C   0  0  0  0  0  0  0  0  0  0  0  0
    6.5348    0.0759   19.8853 C   0  0  0  0  0  0  0  0  0  0  0  0
    5.3218    0.7451   20.0939 C   0  0  0  0  0  0  0  0  0  0  0  0
    4.7418    1.3857   19.0021 C   0  0  0  0  0  0  0  0  0  0  0  0
    5.3902    1.3376   17.7621 C   0  0  0  0  0  0  0  0  0  0  0  0
    6.5489    0.6945   17.5576 N   0  0  0  0  0  0  0  0  0  0  0  0
    7.1053    0.0814   18.6039 C   0  0  0  0  0  0  0  0  0  0  0  0
    8.0498   -0.4283   18.4193 H   0  0  0  0  0  0  0  0  0  0  0  0
    4.9612    1.8301   16.8925 H   0  0  0  0  0  0  0  0  0  0  0  0
    3.8090    1.9277   19.0943 H   0  0  0  0  0  0  0  0  0  0  0  0
    4.8598    0.7614   21.0839 H   0  0  0  0  0  0  0  0  0  0  0  0
    6.8491   -0.6497   22.2379 N   0  0  0  0  0  0  0  0  0  0  0  0
    7.7470   -1.4304   22.8139 C   0  0  0  0  0  0  0  0  0  0  0  0
    7.7720   -1.7785   24.2801 C   0  0  0  0  0  0  0  0  0  0  0  0
    6.5106   -2.3092   24.7562 N   0  0  0  0  0  0  0  0  0  0  0  0
    5.5280   -1.5866   25.4056 C   0  0  0  0  0  0  0  0  0  0  0  0
    4.3976   -2.3375   25.5450 C   0  0  0  0  0  0  0  0  0  0  0  0
    4.6672   -3.6107   24.9330 C   0  0  0  0  0  0  0  0  0  0  0  0
    3.9154   -4.7898   24.7381 C   0  0  0  0  0  0  0  0  0  0  0  0
    4.4961   -5.8636   24.0768 C   0  0  0  0  0  0  0  0  0  0  0  0
    5.8273   -5.7885   23.5997 C   0  0  0  0  0  0  0  0  0  0  0  0
    6.5945   -4.6431   23.7773 C   0  0  0  0  0  0  0  0  0  0  0  0
    5.9978   -3.5547   24.4443 C   0  0  0  0  0  0  0  0  0  0  0  0
    7.6165   -4.5904   23.4115 H   0  0  0  0  0  0  0  0  0  0  0  0
    6.2565   -6.6431   23.0847 H   0  0  0  0  0  0  0  0  0  0  0  0
    3.9265   -6.7761   23.9248 H   0  0  0  0  0  0  0  0  0  0  0  0
    2.8943   -4.8485   25.1059 H   0  0  0  0  0  0  0  0  0  0  0  0
    3.4646   -2.0291   25.9950 H   0  0  0  0  0  0  0  0  0  0  0  0
    5.7325   -0.5666   25.7139 H   0  0  0  0  0  0  0  0  0  0  0  0
    8.5749   -2.4856   24.5209 H   0  0  0  0  0  0  0  0  0  0  0  0
    7.9688   -0.8605   24.8420 H   0  0  0  0  0  0  0  0  0  0  0  0
   10.1252   -2.8754   21.0174 H   0  0  0  0  0  0  0  0  0  0  0  0
    9.8716   -3.3601   22.6976 H   0  0  0  0  0  0  0  0  0  0  0  0
   10.9409   -0.6253   21.7989 H   0  0  0  0  0  0  0  0  0  0  0  0
   10.8402   -1.1972   23.4620 H   0  0  0  0  0  0  0  0  0  0  0  0
   12.4826   -3.1155   22.7127 H   0  0  0  0  0  0  0  0  0  0  0  0
   13.1747   -1.4842   22.7064 H   0  0  0  0  0  0  0  0  0  0  0  0
   12.6894   -2.2171   21.1967 H   0  0  0  0  0  0  0  0  0  0  0  0
  1  2  1  0
  2  3  1  0
  3  4  1  0
  4  5  1  0
  5  6  2  0
  6  7  1  0
  7  8  2  0
  8  9  1  0
  9 10  2  0
 10 11  1  0
 11 12  2  0
 12 13  1  0
 10 14  1  0
  9 15  1  0
  8 16  1  0
  6 17  1  0
 17 18  2  0
 18 19  1  0
 19 20  1  0
 20 21  1  0
 21 22  2  0
 22 23  1  0
 23 24  2  0
 24 25  1  0
 25 26  2  0
 26 27  1  0
 27 28  2  0
 27 29  1  0
 26 30  1  0
 25 31  1  0
 24 32  1  0
 22 33  1  0
 21 34  1  0
 19 35  1  0
 19 36  1  0
  3 37  1  0
  3 38  1  0
  2 39  1  0
  2 40  1  0
  1 41  1  0
  1 42  1  0
  1 43  1  0
 18  4  1  0
 28 20  1  0
 12  7  1  0
 28 23  1  0
M  END
>  <cnnaffinity>  (1) 
-6.03879

>  <filename>  (1) 
CCCn1nc(-c2cccnc2)nc1Cn1ccc2ccccc21

$$$$
