
     RDKit          3D

 44 47  0  0  0  0  0  0  0  0999 V2000
    6.7735   -3.5789   26.0368 C   0  0  0  0  0  0  0  0  0  0  0  0
    6.7151   -3.1093   24.5838 C   0  0  0  0  0  0  0  0  0  0  0  0
    7.0740   -1.6231   24.3993 C   0  0  0  0  0  0  0  0  0  0  0  0
    7.3306   -1.2709   23.0050 N   0  0  0  0  0  0  0  0  0  0  0  0
    6.4675   -0.5176   22.2984 N   0  0  0  0  0  0  0  0  0  0  0  0
    6.9732   -0.5372   21.0795 C   0  0  0  0  0  0  0  0  0  0  0  0
    6.3771    0.1518   19.9442 C   0  0  0  0  0  0  0  0  0  0  0  0
    5.1727    0.8780   19.9963 C   0  0  0  0  0  0  0  0  0  0  0  0
    4.7204    1.4581   18.8135 C   0  0  0  0  0  0  0  0  0  0  0  0
    5.4758    1.3029   17.6441 C   0  0  0  0  0  0  0  0  0  0  0  0
    6.6212    0.6089   17.5884 N   0  0  0  0  0  0  0  0  0  0  0  0
    7.0566    0.0557   18.7229 C   0  0  0  0  0  0  0  0  0  0  0  0
    7.9906   -0.4997   18.6725 H   0  0  0  0  0  0  0  0  0  0  0  0
    5.1448    1.7446   16.7074 H   0  0  0  0  0  0  0  0  0  0  0  0
    3.8058    2.0382   18.7808 H   0  0  0  0  0  0  0  0  0  0  0  0
    4.6203    0.9753   20.9354 H   0  0  0  0  0  0  0  0  0  0  0  0
    8.1183   -1.2667   20.9627 N   0  0  0  0  0  0  0  0  0  0  0  0
    8.3246   -1.6902   22.1963 C   0  0  0  0  0  0  0  0  0  0  0  0
    9.5473   -2.4427   22.6807 C   0  0  0  0  0  0  0  0  0  0  0  0
   10.7245   -1.6045   22.9306 N   0  0  0  0  0  0  0  0  0  0  0  0
   11.9003   -1.5990   22.0627 C   0  0  0  0  0  0  0  0  0  0  0  0
   12.6358   -0.3696   22.5311 C   0  0  0  0  0  0  0  0  0  0  0  0
   13.9152    0.0784   22.2325 C   0  0  0  0  0  0  0  0  0  0  0  0
   14.3232    1.3189   22.7421 C   0  0  0  0  0  0  0  0  0  0  0  0
   13.4454    2.1108   23.5118 C   0  0  0  0  0  0  0  0  0  0  0  0
   12.1927    1.6130   23.8860 C   0  0  0  0  0  0  0  0  0  0  0  0
   11.8372    0.3456   23.4154 C   0  0  0  0  0  0  0  0  0  0  0  0
   10.6642   -0.4888   23.7499 C   0  0  0  0  0  0  0  0  0  0  0  0
    9.8051   -0.2647   24.5857 O   0  0  0  0  0  0  0  0  0  0  0  0
   11.5043    2.1699   24.5200 H   0  0  0  0  0  0  0  0  0  0  0  0
   13.7532    3.1143   23.7982 H   0  0  0  0  0  0  0  0  0  0  0  0
   15.3221    1.6748   22.5001 H   0  0  0  0  0  0  0  0  0  0  0  0
   14.5598   -0.5238   21.6004 H   0  0  0  0  0  0  0  0  0  0  0  0
   12.4988   -2.5145   22.1683 H   0  0  0  0  0  0  0  0  0  0  0  0
   11.6227   -1.5030   21.0030 H   0  0  0  0  0  0  0  0  0  0  0  0
    9.3201   -3.0072   23.5946 H   0  0  0  0  0  0  0  0  0  0  0  0
    9.7932   -3.1737   21.9081 H   0  0  0  0  0  0  0  0  0  0  0  0
    7.9696   -1.3489   24.9599 H   0  0  0  0  0  0  0  0  0  0  0  0
    6.2623   -0.9658   24.7243 H   0  0  0  0  0  0  0  0  0  0  0  0
    5.7179   -3.2797   24.1609 H   0  0  0  0  0  0  0  0  0  0  0  0
    7.3957   -3.7386   23.9969 H   0  0  0  0  0  0  0  0  0  0  0  0
    6.4814   -4.6322   26.1062 H   0  0  0  0  0  0  0  0  0  0  0  0
    6.1092   -3.0031   26.6914 H   0  0  0  0  0  0  0  0  0  0  0  0
    7.7915   -3.4964   26.4385 H   0  0  0  0  0  0  0  0  0  0  0  0
  1  2  1  0
  2  3  1  0
  3  4  1  0
  4  5  1  0
  5  6  2  0
  6  7  1  0
  7  8  2  0
  8  9  1  0
  9 10  2  0
 10 11  1  0
 11 12  2  0
 12 13  1  0
 10 14  1  0
  9 15  1  0
  8 16  1  0
  6 17  1  0
 17 18  2  0
 18 19  1  0
 19 20  1  0
 20 21  1  0
 21 22  1  0
 22 23  2  0
 23 24  1  0
 24 25  2  0
 25 26  1  0
 26 27  2  0
 27 28  1  0
 28 29  2  0
 26 30  1  0
 25 31  1  0
 24 32  1  0
 23 33  1  0
 21 34  1  0
 21 35  1  0
 19 36  1  0
 19 37  1  0
  3 38  1  0
  3 39  1  0
  2 40  1  0
  2 41  1  0
  1 42  1  0
  1 43  1  0
  1 44  1  0
 18  4  1  0
 28 20  1  0
 12  7  1  0
 27 22  1  0
M  END
>  <cnnaffinity>  (1) 
-6.01448

>  <filename>  (1) 
CCCn1nc(-c2cccnc2)nc1CN1Cc2ccccc2C1=O

$$$$
