
     RDKit          3D

 48 51  0  0  0  0  0  0  0  0999 V2000
   12.6156   -1.8724   21.9289 C   0  0  0  0  0  0  0  0  0  0  0  0
   11.2402   -1.2207   22.1335 C   0  0  0  0  0  0  0  0  0  0  0  0
   10.0930   -2.2331   22.0930 C   0  0  0  0  0  0  0  0  0  0  0  0
    8.7809   -1.6102   21.9793 N   0  0  0  0  0  0  0  0  0  0  0  0
    8.4548   -1.1008   20.7748 N   0  0  0  0  0  0  0  0  0  0  0  0
    7.2185   -0.6709   20.9492 C   0  0  0  0  0  0  0  0  0  0  0  0
    6.5116    0.0119   19.8744 C   0  0  0  0  0  0  0  0  0  0  0  0
    5.3031    0.6959   20.0659 C   0  0  0  0  0  0  0  0  0  0  0  0
    4.7536    1.3608   18.9725 C   0  0  0  0  0  0  0  0  0  0  0  0
    5.4272    1.3232   17.7465 C   0  0  0  0  0  0  0  0  0  0  0  0
    6.5817    0.6668   17.5541 N   0  0  0  0  0  0  0  0  0  0  0  0
    7.1108    0.0353   18.6054 C   0  0  0  0  0  0  0  0  0  0  0  0
    8.0598   -0.4707   18.4325 H   0  0  0  0  0  0  0  0  0  0  0  0
    5.0228    1.8471   16.8832 H   0  0  0  0  0  0  0  0  0  0  0  0
    3.8334    1.9268   19.0651 H   0  0  0  0  0  0  0  0  0  0  0  0
    4.8307    0.7225   21.0498 H   0  0  0  0  0  0  0  0  0  0  0  0
    6.7327   -0.8661   22.1980 N   0  0  0  0  0  0  0  0  0  0  0  0
    7.7478   -1.4234   22.8375 C   0  0  0  0  0  0  0  0  0  0  0  0
    7.7950   -1.7014   24.3065 C   0  0  0  0  0  0  0  0  0  0  0  0
    8.4996   -0.6105   25.1441 C   0  0  0  0  0  0  0  0  0  0  0  0
    7.8281    0.6766   25.0664 N   0  0  0  0  0  0  0  0  0  0  0  0
    8.1160    1.7372   24.2249 C   0  0  0  0  0  0  0  0  0  0  0  0
    9.3668    1.8023   23.4171 C   0  0  0  0  0  0  0  0  0  0  0  0
    9.4075    2.7650   22.9059 H   0  0  0  0  0  0  0  0  0  0  0  0
   10.2553    1.6956   24.0464 H   0  0  0  0  0  0  0  0  0  0  0  0
    9.3780    1.0098   22.6640 H   0  0  0  0  0  0  0  0  0  0  0  0
    7.1987    2.6664   24.2073 N   0  0  0  0  0  0  0  0  0  0  0  0
    6.2084    2.1993   25.0580 C   0  0  0  0  0  0  0  0  0  0  0  0
    4.9758    2.7707   25.3997 C   0  0  0  0  0  0  0  0  0  0  0  0
    4.1263    2.0783   26.2578 C   0  0  0  0  0  0  0  0  0  0  0  0
    4.4975    0.8108   26.7699 C   0  0  0  0  0  0  0  0  0  0  0  0
    5.7212    0.2262   26.4452 C   0  0  0  0  0  0  0  0  0  0  0  0
    6.5715    0.9453   25.5923 C   0  0  0  0  0  0  0  0  0  0  0  0
    5.9996   -0.7574   26.8192 H   0  0  0  0  0  0  0  0  0  0  0  0
    3.8087    0.2778   27.4203 H   0  0  0  0  0  0  0  0  0  0  0  0
    3.1681    2.5126   26.5361 H   0  0  0  0  0  0  0  0  0  0  0  0
    4.7193    3.7347   24.9727 H   0  0  0  0  0  0  0  0  0  0  0  0
    9.5474   -0.4913   24.8482 H   0  0  0  0  0  0  0  0  0  0  0  0
    8.5233   -0.9126   26.1960 H   0  0  0  0  0  0  0  0  0  0  0  0
    6.7584   -1.7866   24.6471 H   0  0  0  0  0  0  0  0  0  0  0  0
    8.2739   -2.6671   24.4925 H   0  0  0  0  0  0  0  0  0  0  0  0
   10.0910   -2.8922   22.9661 H   0  0  0  0  0  0  0  0  0  0  0  0
   10.1966   -2.8391   21.1959 H   0  0  0  0  0  0  0  0  0  0  0  0
   11.0615   -0.4625   21.3569 H   0  0  0  0  0  0  0  0  0  0  0  0
   11.2060   -0.6909   23.0930 H   0  0  0  0  0  0  0  0  0  0  0  0
   12.8243   -2.0534   20.8664 H   0  0  0  0  0  0  0  0  0  0  0  0
   13.4199   -1.2555   22.3483 H   0  0  0  0  0  0  0  0  0  0  0  0
   12.6754   -2.8473   22.4252 H   0  0  0  0  0  0  0  0  0  0  0  0
  1  2  1  0
  2  3  1  0
  3  4  1  0
  4  5  1  0
  5  6  2  0
  6  7  1  0
  7  8  2  0
  8  9  1  0
  9 10  2  0
 10 11  1  0
 11 12  2  0
 12 13  1  0
 10 14  1  0
  9 15  1  0
  8 16  1  0
  6 17  1  0
 17 18  2  0
 18 19  1  0
 19 20  1  0
 20 21  1  0
 21 22  1  0
 22 23  1  0
 23 24  1  0
 23 25  1  0
 23 26  1  0
 22 27  2  0
 27 28  1  0
 28 29  2  0
 29 30  1  0
 30 31  2  0
 31 32  1  0
 32 33  2  0
 32 34  1  0
 31 35  1  0
 30 36  1  0
 29 37  1  0
 20 38  1  0
 20 39  1  0
 19 40  1  0
 19 41  1  0
  3 42  1  0
  3 43  1  0
  2 44  1  0
  2 45  1  0
  1 46  1  0
  1 47  1  0
  1 48  1  0
 18  4  1  0
 33 21  1  0
 12  7  1  0
 33 28  1  0
M  END
>  <cnnaffinity>  (1) 
-6.32386

>  <filename>  (1) 
CCCn1nc(-c2cccnc2)nc1CCn1c(C)nc2ccccc21

$$$$
