
     RDKit          3D

 44 47  0  0  0  0  0  0  0  0999 V2000
   12.4435   -1.9471   22.0201 C   0  0  0  0  0  0  0  0  0  0  0  0
   11.0553   -1.3868   22.3561 C   0  0  0  0  0  0  0  0  0  0  0  0
    9.9406   -2.3954   22.0200 C   0  0  0  0  0  0  0  0  0  0  0  0
    8.6154   -1.7934   21.8629 N   0  0  0  0  0  0  0  0  0  0  0  0
    8.2714   -1.3342   20.6403 N   0  0  0  0  0  0  0  0  0  0  0  0
    7.1624   -0.6549   20.8680 C   0  0  0  0  0  0  0  0  0  0  0  0
    6.4710    0.0616   19.8039 C   0  0  0  0  0  0  0  0  0  0  0  0
    5.2708    0.7590   19.9956 C   0  0  0  0  0  0  0  0  0  0  0  0
    4.7188    1.4221   18.9018 C   0  0  0  0  0  0  0  0  0  0  0  0
    5.3852    1.3722   17.6709 C   0  0  0  0  0  0  0  0  0  0  0  0
    6.5331    0.7080   17.4808 N   0  0  0  0  0  0  0  0  0  0  0  0
    7.0638    0.0741   18.5301 C   0  0  0  0  0  0  0  0  0  0  0  0
    8.0076   -0.4400   18.3648 H   0  0  0  0  0  0  0  0  0  0  0  0
    4.9814    1.8853   16.7995 H   0  0  0  0  0  0  0  0  0  0  0  0
    3.7998    1.9896   18.9869 H   0  0  0  0  0  0  0  0  0  0  0  0
    4.8007    0.7907   20.9812 H   0  0  0  0  0  0  0  0  0  0  0  0
    6.7752   -0.6401   22.1623 N   0  0  0  0  0  0  0  0  0  0  0  0
    7.6897   -1.3847   22.7606 C   0  0  0  0  0  0  0  0  0  0  0  0
    7.7421   -1.6890   24.1946 C   0  0  0  0  0  0  0  0  0  0  0  0
    7.7041   -0.6721   25.1627 C   0  0  0  0  0  0  0  0  0  0  0  0
    7.8643   -0.9686   26.5205 C   0  0  0  0  0  0  0  0  0  0  0  0
    8.0140   -2.2987   26.9314 C   0  0  0  0  0  0  0  0  0  0  0  0
    7.9702   -3.3195   25.9943 C   0  0  0  0  0  0  0  0  0  0  0  0
    7.8666   -3.0119   24.6431 C   0  0  0  0  0  0  0  0  0  0  0  0
    7.8819   -4.1013   23.8395 O   0  0  0  0  0  0  0  0  0  0  0  0
    7.9550   -5.2728   24.6853 C   0  0  0  0  0  0  0  0  0  0  0  0
    8.0250   -4.8164   26.1683 C   0  0  0  0  0  0  0  0  0  0  0  0
    9.2419   -5.3508   26.9328 C   0  0  0  0  0  0  0  0  0  0  0  0
   10.1793   -5.0044   26.4853 H   0  0  0  0  0  0  0  0  0  0  0  0
    9.2295   -6.4429   26.9114 H   0  0  0  0  0  0  0  0  0  0  0  0
    9.2327   -5.0316   27.9808 H   0  0  0  0  0  0  0  0  0  0  0  0
    7.1310   -5.1761   26.7001 H   0  0  0  0  0  0  0  0  0  0  0  0
    7.0689   -5.8808   24.4812 H   0  0  0  0  0  0  0  0  0  0  0  0
    8.8427   -5.8386   24.3854 H   0  0  0  0  0  0  0  0  0  0  0  0
    8.1765   -2.5497   27.9671 H   0  0  0  0  0  0  0  0  0  0  0  0
    7.8616   -0.1691   27.2564 H   0  0  0  0  0  0  0  0  0  0  0  0
    7.5584    0.3602   24.8454 H   0  0  0  0  0  0  0  0  0  0  0  0
   10.1300   -2.8323   21.0432 H   0  0  0  0  0  0  0  0  0  0  0  0
    9.8801   -3.2117   22.7413 H   0  0  0  0  0  0  0  0  0  0  0  0
   10.8640   -0.4659   21.7861 H   0  0  0  0  0  0  0  0  0  0  0  0
   11.0073   -1.1323   23.4231 H   0  0  0  0  0  0  0  0  0  0  0  0
   12.5747   -2.9343   22.4773 H   0  0  0  0  0  0  0  0  0  0  0  0
   13.2358   -1.3021   22.4114 H   0  0  0  0  0  0  0  0  0  0  0  0
   12.6129   -2.0456   20.9373 H   0  0  0  0  0  0  0  0  0  0  0  0
  1  2  1  0
  2  3  1  0
  3  4  1  0
  4  5  1  0
  5  6  2  0
  6  7  1  0
  7  8  2  0
  8  9  1  0
  9 10  2  0
 10 11  1  0
 11 12  2  0
 12 13  1  0
 10 14  1  0
  9 15  1  0
  8 16  1  0
  6 17  1  0
 17 18  2  0
 18 19  1  0
 19 20  2  0
 20 21  1  0
 21 22  2  0
 22 23  1  0
 23 24  2  0
 24 25  1  0
 25 26  1  0
 26 27  1  0
 27 28  1  0
 28 29  1  0
 28 30  1  0
 28 31  1  0
 27 32  1  0
 26 33  1  0
 26 34  1  0
 22 35  1  0
 21 36  1  0
 20 37  1  0
  3 38  1  0
  3 39  1  0
  2 40  1  0
  2 41  1  0
  1 42  1  0
  1 43  1  0
  1 44  1  0
 18  4  1  0
 24 19  1  0
 12  7  1  0
 27 23  1  0
M  END
>  <cnnaffinity>  (1) 
-6.0261

>  <filename>  (1) 
CCCn1nc(-c2cccnc2)nc1-c1cccc2c1OCC2C

$$$$
