
     RDKit          3D

 40 43  0  0  0  0  0  0  0  0999 V2000
    7.7544   -0.7043   26.5870 C   0  0  0  0  0  0  0  0  0  0  0  0
    7.8043   -0.2590   25.1215 C   0  0  0  0  0  0  0  0  0  0  0  0
    7.5422   -1.4422   24.1868 C   0  0  0  0  0  0  0  0  0  0  0  0
    7.6275   -1.1134   22.7649 N   0  0  0  0  0  0  0  0  0  0  0  0
    6.6214   -0.4425   22.1479 N   0  0  0  0  0  0  0  0  0  0  0  0
    7.0436   -0.3666   20.9003 C   0  0  0  0  0  0  0  0  0  0  0  0
    6.3122    0.2381   19.7973 C   0  0  0  0  0  0  0  0  0  0  0  0
    5.0895    0.9119   19.9265 C   0  0  0  0  0  0  0  0  0  0  0  0
    4.5738    1.5379   18.7939 C   0  0  0  0  0  0  0  0  0  0  0  0
    5.2784    1.4505   17.5856 C   0  0  0  0  0  0  0  0  0  0  0  0
    6.4236    0.7673   17.4486 N   0  0  0  0  0  0  0  0  0  0  0  0
    6.9195    0.1739   18.5340 C   0  0  0  0  0  0  0  0  0  0  0  0
    7.8476   -0.3792   18.4047 H   0  0  0  0  0  0  0  0  0  0  0  0
    4.9082    1.9429   16.6874 H   0  0  0  0  0  0  0  0  0  0  0  0
    3.6538    2.1102   18.8313 H   0  0  0  0  0  0  0  0  0  0  0  0
    4.5784    0.9551   20.8921 H   0  0  0  0  0  0  0  0  0  0  0  0
    8.2501   -0.9435   20.6760 N   0  0  0  0  0  0  0  0  0  0  0  0
    8.5765   -1.4295   21.8527 C   0  0  0  0  0  0  0  0  0  0  0  0
    9.7012   -2.3934   22.0423 C   0  0  0  0  0  0  0  0  0  0  0  0
   10.8733   -2.1781   23.0814 C   0  0  0  0  0  0  0  0  0  0  0  0
   10.4015   -3.4719   23.7438 C   0  0  0  0  0  0  0  0  0  0  0  0
   10.4923   -4.2698   24.8775 C   0  0  0  0  0  0  0  0  0  0  0  0
    9.4259   -5.1492   25.1364 C   0  0  0  0  0  0  0  0  0  0  0  0
    8.3409   -5.2082   24.2577 C   0  0  0  0  0  0  0  0  0  0  0  0
    7.2791   -5.9503   24.6051 F   0  0  0  0  0  0  0  0  0  0  0  0
    8.2768   -4.4830   23.0598 C   0  0  0  0  0  0  0  0  0  0  0  0
    9.3507   -3.6378   22.8434 C   0  0  0  0  0  0  0  0  0  0  0  0
    7.4122   -4.5340   22.4052 H   0  0  0  0  0  0  0  0  0  0  0  0
    9.3896   -5.7523   26.0423 H   0  0  0  0  0  0  0  0  0  0  0  0
   11.3068   -4.2024   25.5933 H   0  0  0  0  0  0  0  0  0  0  0  0
   10.7731   -1.2954   23.7218 H   0  0  0  0  0  0  0  0  0  0  0  0
   11.8767   -2.1695   22.6420 H   0  0  0  0  0  0  0  0  0  0  0  0
   10.0774   -2.5891   21.0379 H   0  0  0  0  0  0  0  0  0  0  0  0
    6.5489   -1.8668   24.3701 H   0  0  0  0  0  0  0  0  0  0  0  0
    8.2809   -2.2145   24.4003 H   0  0  0  0  0  0  0  0  0  0  0  0
    8.7937    0.1639   24.8926 H   0  0  0  0  0  0  0  0  0  0  0  0
    7.0569    0.5199   24.9245 H   0  0  0  0  0  0  0  0  0  0  0  0
    7.9163    0.1380   27.2694 H   0  0  0  0  0  0  0  0  0  0  0  0
    8.5321   -1.4535   26.7940 H   0  0  0  0  0  0  0  0  0  0  0  0
    6.7808   -1.1497   26.8372 H   0  0  0  0  0  0  0  0  0  0  0  0
  1  2  1  0
  2  3  1  0
  3  4  1  0
  4  5  1  0
  5  6  2  0
  6  7  1  0
  7  8  2  0
  8  9  1  0
  9 10  2  0
 10 11  1  0
 11 12  2  0
 12 13  1  0
 10 14  1  0
  9 15  1  0
  8 16  1  0
  6 17  1  0
 17 18  2  0
 18 19  1  0
 19 20  1  0
 20 21  1  0
 21 22  2  0
 22 23  1  0
 23 24  2  0
 24 25  1  0
 24 26  1  0
 26 27  2  0
 26 28  1  0
 23 29  1  0
 22 30  1  0
 20 31  1  0
 20 32  1  0
 19 33  1  0
  3 34  1  0
  3 35  1  0
  2 36  1  0
  2 37  1  0
  1 38  1  0
  1 39  1  0
  1 40  1  0
 18  4  1  0
 27 19  1  0
 12  7  1  0
 27 21  1  0
M  END
>  <cnnaffinity>  (1) 
-6.04111

>  <filename>  (1) 
CCCn1nc(-c2cccnc2)nc1C1Cc2ccc(F)cc21

$$$$
