
     RDKit          3D

 43 46  0  0  0  0  0  0  0  0999 V2000
    7.6293   -0.7594   26.5082 C   0  0  0  0  0  0  0  0  0  0  0  0
    7.6322   -0.4418   25.0112 C   0  0  0  0  0  0  0  0  0  0  0  0
    7.1692   -1.6246   24.1524 C   0  0  0  0  0  0  0  0  0  0  0  0
    7.3103   -1.3631   22.7180 N   0  0  0  0  0  0  0  0  0  0  0  0
    6.4093   -0.5562   22.1023 N   0  0  0  0  0  0  0  0  0  0  0  0
    6.8313   -0.5350   20.8562 C   0  0  0  0  0  0  0  0  0  0  0  0
    6.2018    0.1832   19.7592 C   0  0  0  0  0  0  0  0  0  0  0  0
    5.0305    0.9484   19.8727 C   0  0  0  0  0  0  0  0  0  0  0  0
    4.6087    1.6519   18.7479 C   0  0  0  0  0  0  0  0  0  0  0  0
    5.3440    1.5527   17.5607 C   0  0  0  0  0  0  0  0  0  0  0  0
    6.4364    0.7842   17.4368 N   0  0  0  0  0  0  0  0  0  0  0  0
    6.8444    0.1152   18.5143 C   0  0  0  0  0  0  0  0  0  0  0  0
    7.7229   -0.5161   18.3891 H   0  0  0  0  0  0  0  0  0  0  0  0
    5.0437    2.1012   16.6690 H   0  0  0  0  0  0  0  0  0  0  0  0
    3.7375    2.2962   18.7740 H   0  0  0  0  0  0  0  0  0  0  0  0
    4.4798    0.9864   20.8154 H   0  0  0  0  0  0  0  0  0  0  0  0
    7.9507   -1.2660   20.6274 N   0  0  0  0  0  0  0  0  0  0  0  0
    8.2163   -1.7850   21.8042 C   0  0  0  0  0  0  0  0  0  0  0  0
    9.3564   -2.7199   22.0524 C   0  0  0  0  0  0  0  0  0  0  0  0
   10.5291   -2.1213   22.8973 C   0  0  0  0  0  0  0  0  0  0  0  0
   10.9125   -3.2094   23.9219 C   0  0  0  0  0  0  0  0  0  0  0  0
    9.7837   -4.1987   23.8852 C   0  0  0  0  0  0  0  0  0  0  0  0
    9.4879   -5.1947   24.8129 C   0  0  0  0  0  0  0  0  0  0  0  0
    8.3345   -5.9668   24.6468 C   0  0  0  0  0  0  0  0  0  0  0  0
    7.4988   -5.7558   23.5363 C   0  0  0  0  0  0  0  0  0  0  0  0
    7.8083   -4.7672   22.5935 C   0  0  0  0  0  0  0  0  0  0  0  0
    8.9378   -3.9683   22.8078 C   0  0  0  0  0  0  0  0  0  0  0  0
    7.1646   -4.5653   21.7375 H   0  0  0  0  0  0  0  0  0  0  0  0
    6.5993   -6.3538   23.4192 H   0  0  0  0  0  0  0  0  0  0  0  0
    8.0938   -6.7224   25.3908 H   0  0  0  0  0  0  0  0  0  0  0  0
   10.1366   -5.3382   25.6741 H   0  0  0  0  0  0  0  0  0  0  0  0
   10.9837   -2.7883   24.9223 H   0  0  0  0  0  0  0  0  0  0  0  0
   11.8667   -3.7020   23.7037 H   0  0  0  0  0  0  0  0  0  0  0  0
   11.3707   -1.7967   22.2772 H   0  0  0  0  0  0  0  0  0  0  0  0
   10.1920   -1.2193   23.4244 H   0  0  0  0  0  0  0  0  0  0  0  0
    9.7017   -2.9803   21.0479 H   0  0  0  0  0  0  0  0  0  0  0  0
    6.1063   -1.8246   24.3294 H   0  0  0  0  0  0  0  0  0  0  0  0
    7.7258   -2.5305   24.4087 H   0  0  0  0  0  0  0  0  0  0  0  0
    6.9729    0.4078   24.7913 H   0  0  0  0  0  0  0  0  0  0  0  0
    8.6464   -0.1388   24.7098 H   0  0  0  0  0  0  0  0  0  0  0  0
    7.9218    0.1224   27.0904 H   0  0  0  0  0  0  0  0  0  0  0  0
    6.6390   -1.0772   26.8616 H   0  0  0  0  0  0  0  0  0  0  0  0
    8.3428   -1.5614   26.7438 H   0  0  0  0  0  0  0  0  0  0  0  0
  1  2  1  0
  2  3  1  0
  3  4  1  0
  4  5  1  0
  5  6  2  0
  6  7  1  0
  7  8  2  0
  8  9  1  0
  9 10  2  0
 10 11  1  0
 11 12  2  0
 12 13  1  0
 10 14  1  0
  9 15  1  0
  8 16  1  0
  6 17  1  0
 17 18  2  0
 18 19  1  0
 19 20  1  0
 20 21  1  0
 21 22  1  0
 22 23  2  0
 23 24  1  0
 24 25  2  0
 25 26  1  0
 26 27  2  0
 26 28  1  0
 25 29  1  0
 24 30  1  0
 23 31  1  0
 21 32  1  0
 21 33  1  0
 20 34  1  0
 20 35  1  0
 19 36  1  0
  3 37  1  0
  3 38  1  0
  2 39  1  0
  2 40  1  0
  1 41  1  0
  1 42  1  0
  1 43  1  0
 18  4  1  0
 27 19  1  0
 12  7  1  0
 27 22  1  0
M  END
>  <cnnaffinity>  (1) 
-6.08138

>  <filename>  (1) 
CCCn1nc(-c2cccnc2)nc1C1CCc2ccccc21

$$$$
