
     RDKit          3D

 41 42  0  0  0  0  0  0  0  0999 V2000
    6.4143   -4.2126   21.2809 C   0  0  0  0  0  0  0  0  0  0  0  0
    6.2401   -2.7112   21.5023 C   0  0  0  0  0  0  0  0  0  0  0  0
    7.4515   -1.9393   20.9834 C   0  0  0  0  0  0  0  0  0  0  0  0
    7.3075   -0.4858   21.0637 N   0  0  0  0  0  0  0  0  0  0  0  0
    7.5766    0.0888   22.3113 C   0  0  0  0  0  0  0  0  0  0  0  0
    7.9477   -0.5640   23.2737 O   0  0  0  0  0  0  0  0  0  0  0  0
    7.4284    1.4497   22.3753 N   0  0  0  0  0  0  0  0  0  0  0  0
    8.0423    2.1583   23.4949 C   0  0  0  0  0  0  0  0  0  0  0  0
    8.0652    3.6253   23.1634 C   0  0  0  0  0  0  0  0  0  0  0  0
    6.8380    4.3076   23.1814 C   0  0  0  0  0  0  0  0  0  0  0  0
    6.7006    5.6212   22.9865 N   0  0  0  0  0  0  0  0  0  0  0  0
    7.8086    6.3159   22.6982 C   0  0  0  0  0  0  0  0  0  0  0  0
    9.0752    5.7335   22.5894 C   0  0  0  0  0  0  0  0  0  0  0  0
    9.2271    4.3567   22.8356 C   0  0  0  0  0  0  0  0  0  0  0  0
   10.5929    3.6572   22.7881 C   0  0  0  0  0  0  0  0  0  0  0  0
   10.9275    3.1603   24.0020 F   0  0  0  0  0  0  0  0  0  0  0  0
   11.5953    4.4679   22.4221 F   0  0  0  0  0  0  0  0  0  0  0  0
   10.5893    2.6061   21.9398 F   0  0  0  0  0  0  0  0  0  0  0  0
    9.9207    6.3559   22.3130 H   0  0  0  0  0  0  0  0  0  0  0  0
    7.6856    7.3855   22.5517 H   0  0  0  0  0  0  0  0  0  0  0  0
    5.9299    3.7506   23.4091 H   0  0  0  0  0  0  0  0  0  0  0  0
    7.4192    1.9952   24.3835 H   0  0  0  0  0  0  0  0  0  0  0  0
    9.0424    1.7785   23.7471 H   0  0  0  0  0  0  0  0  0  0  0  0
    7.5331    1.8750   21.4641 H   0  0  0  0  0  0  0  0  0  0  0  0
    6.6274    0.1502   19.9679 C   0  0  0  0  0  0  0  0  0  0  0  0
    5.3866    0.7760   20.1435 C   0  0  0  0  0  0  0  0  0  0  0  0
    4.7626    1.3588   19.0340 C   0  0  0  0  0  0  0  0  0  0  0  0
    5.4031    1.3243   17.7928 C   0  0  0  0  0  0  0  0  0  0  0  0
    6.5895    0.7253   17.6038 N   0  0  0  0  0  0  0  0  0  0  0  0
    7.1691    0.1438   18.6604 C   0  0  0  0  0  0  0  0  0  0  0  0
    8.1240   -0.3464   18.4750 H   0  0  0  0  0  0  0  0  0  0  0  0
    4.9441    1.7791   16.9156 H   0  0  0  0  0  0  0  0  0  0  0  0
    3.8005    1.8477   19.1284 H   0  0  0  0  0  0  0  0  0  0  0  0
    4.9460    0.8192   21.1376 H   0  0  0  0  0  0  0  0  0  0  0  0
    7.5886   -2.1545   19.9274 H   0  0  0  0  0  0  0  0  0  0  0  0
    8.3530   -2.2392   21.5270 H   0  0  0  0  0  0  0  0  0  0  0  0
    6.0893   -2.4896   22.5668 H   0  0  0  0  0  0  0  0  0  0  0  0
    5.3597   -2.3477   20.9655 H   0  0  0  0  0  0  0  0  0  0  0  0
    6.5859   -4.4380   20.2219 H   0  0  0  0  0  0  0  0  0  0  0  0
    5.5297   -4.7750   21.5915 H   0  0  0  0  0  0  0  0  0  0  0  0
    7.2732   -4.5930   21.8448 H   0  0  0  0  0  0  0  0  0  0  0  0
  1  2  1  0
  2  3  1  0
  3  4  1  0
  4  5  1  0
  5  6  2  0
  5  7  1  0
  7  8  1  0
  8  9  1  0
  9 10  2  0
 10 11  1  0
 11 12  2  0
 12 13  1  0
 13 14  2  0
 14 15  1  0
 15 16  1  0
 15 17  1  0
 15 18  1  0
 13 19  1  0
 12 20  1  0
 10 21  1  0
  8 22  1  0
  8 23  1  0
  7 24  1  0
  4 25  1  0
 25 26  2  0
 26 27  1  0
 27 28  2  0
 28 29  1  0
 29 30  2  0
 30 31  1  0
 28 32  1  0
 27 33  1  0
 26 34  1  0
  3 35  1  0
  3 36  1  0
  2 37  1  0
  2 38  1  0
  1 39  1  0
  1 40  1  0
  1 41  1  0
 14  9  1  0
 30 25  1  0
M  END
>  <cnnaffinity>  (1) 
-5.01118

>  <filename>  (1) 
CCCN(C(=O)NCc1cnccc1C(F)(F)F)c1cccnc1

$$$$
