
     RDKit          3D

 45 48  0  0  0  0  0  0  0  0999 V2000
   12.2992   -1.4763   21.7534 C   0  0  0  0  0  0  0  0  0  0  0  0
   10.9584   -0.9265   22.2308 C   0  0  0  0  0  0  0  0  0  0  0  0
    9.8430   -1.9701   22.0685 C   0  0  0  0  0  0  0  0  0  0  0  0
    8.5410   -1.3652   21.8174 N   0  0  0  0  0  0  0  0  0  0  0  0
    8.2726   -0.9288   20.5639 N   0  0  0  0  0  0  0  0  0  0  0  0
    7.1082   -0.3204   20.7016 C   0  0  0  0  0  0  0  0  0  0  0  0
    6.4058    0.2991   19.5811 C   0  0  0  0  0  0  0  0  0  0  0  0
    5.1940    0.9885   19.7519 C   0  0  0  0  0  0  0  0  0  0  0  0
    4.6368    1.6135   18.6397 C   0  0  0  0  0  0  0  0  0  0  0  0
    5.2929    1.5126   17.4084 C   0  0  0  0  0  0  0  0  0  0  0  0
    6.4193    0.8070   17.2230 N   0  0  0  0  0  0  0  0  0  0  0  0
    6.9557    0.2113   18.2927 C   0  0  0  0  0  0  0  0  0  0  0  0
    7.8593   -0.3702   18.1084 H   0  0  0  0  0  0  0  0  0  0  0  0
    4.8992    2.0241   16.5332 H   0  0  0  0  0  0  0  0  0  0  0  0
    3.7238    2.1935   18.7227 H   0  0  0  0  0  0  0  0  0  0  0  0
    4.7099    1.0319   20.7298 H   0  0  0  0  0  0  0  0  0  0  0  0
    6.6333   -0.3108   21.9706 N   0  0  0  0  0  0  0  0  0  0  0  0
    7.5610   -0.9559   22.6555 C   0  0  0  0  0  0  0  0  0  0  0  0
    7.4721   -1.2371   24.1255 C   0  0  0  0  0  0  0  0  0  0  0  0
    6.4091   -2.2912   24.4814 C   0  0  0  0  0  0  0  0  0  0  0  0
    6.6669   -3.5569   23.8339 N   0  0  0  0  0  0  0  0  0  0  0  0
    6.2051   -4.0080   22.6189 C   0  0  0  0  0  0  0  0  0  0  0  0
    6.7723   -5.1067   22.2019 N   0  0  0  0  0  0  0  0  0  0  0  0
    7.6975   -5.4093   23.1949 C   0  0  0  0  0  0  0  0  0  0  0  0
    8.6025   -6.4763   23.3131 C   0  0  0  0  0  0  0  0  0  0  0  0
    9.4415   -6.5133   24.4245 C   0  0  0  0  0  0  0  0  0  0  0  0
    9.4091   -5.5124   25.4152 C   0  0  0  0  0  0  0  0  0  0  0  0
    8.5189   -4.4460   25.3200 C   0  0  0  0  0  0  0  0  0  0  0  0
    7.6609   -4.4345   24.2115 C   0  0  0  0  0  0  0  0  0  0  0  0
    8.4971   -3.6627   26.0729 H   0  0  0  0  0  0  0  0  0  0  0  0
   10.0783   -5.5899   26.2671 H   0  0  0  0  0  0  0  0  0  0  0  0
   10.1165   -7.3510   24.5413 H   0  0  0  0  0  0  0  0  0  0  0  0
    8.6005   -7.2531   22.5564 H   0  0  0  0  0  0  0  0  0  0  0  0
    5.4352   -3.4653   22.0752 H   0  0  0  0  0  0  0  0  0  0  0  0
    5.4151   -1.9595   24.2020 H   0  0  0  0  0  0  0  0  0  0  0  0
    6.3741   -2.4666   25.5624 H   0  0  0  0  0  0  0  0  0  0  0  0
    8.4380   -1.5780   24.5081 H   0  0  0  0  0  0  0  0  0  0  0  0
    7.2376   -0.2995   24.6366 H   0  0  0  0  0  0  0  0  0  0  0  0
   10.0513   -2.5710   21.1801 H   0  0  0  0  0  0  0  0  0  0  0  0
    9.7895   -2.6561   22.9201 H   0  0  0  0  0  0  0  0  0  0  0  0
   10.6905   -0.0567   21.6218 H   0  0  0  0  0  0  0  0  0  0  0  0
   11.0150   -0.5732   23.2658 H   0  0  0  0  0  0  0  0  0  0  0  0
   12.6397   -2.3246   22.3616 H   0  0  0  0  0  0  0  0  0  0  0  0
   12.1815   -1.8266   20.7215 H   0  0  0  0  0  0  0  0  0  0  0  0
   13.0801   -0.7080   21.7416 H   0  0  0  0  0  0  0  0  0  0  0  0
  1  2  1  0
  2  3  1  0
  3  4  1  0
  4  5  1  0
  5  6  2  0
  6  7  1  0
  7  8  2  0
  8  9  1  0
  9 10  2  0
 10 11  1  0
 11 12  2  0
 12 13  1  0
 10 14  1  0
  9 15  1  0
  8 16  1  0
  6 17  1  0
 17 18  2  0
 18 19  1  0
 19 20  1  0
 20 21  1  0
 21 22  1  0
 22 23  2  0
 23 24  1  0
 24 25  2  0
 25 26  1  0
 26 27  2  0
 27 28  1  0
 28 29  2  0
 28 30  1  0
 27 31  1  0
 26 32  1  0
 25 33  1  0
 22 34  1  0
 20 35  1  0
 20 36  1  0
 19 37  1  0
 19 38  1  0
  3 39  1  0
  3 40  1  0
  2 41  1  0
  2 42  1  0
  1 43  1  0
  1 44  1  0
  1 45  1  0
 18  4  1  0
 29 21  1  0
 12  7  1  0
 29 24  1  0
M  END
>  <cnnaffinity>  (1) 
-6.26514

>  <filename>  (1) 
CCCn1nc(-c2cccnc2)nc1CCn1cnc2ccccc21

$$$$
