
     RDKit          3D

 44 47  0  0  0  0  0  0  0  0999 V2000
   11.6289   -0.5971   21.6604 C   0  0  0  0  0  0  0  0  0  0  0  0
   11.1448   -1.7407   22.5466 C   0  0  0  0  0  0  0  0  0  0  0  0
    9.8678   -2.4246   22.0546 C   0  0  0  0  0  0  0  0  0  0  0  0
    8.7056   -1.5516   21.9056 N   0  0  0  0  0  0  0  0  0  0  0  0
    8.3720   -1.1153   20.6694 N   0  0  0  0  0  0  0  0  0  0  0  0
    7.2818   -0.3981   20.8789 C   0  0  0  0  0  0  0  0  0  0  0  0
    6.5283    0.2124   19.7873 C   0  0  0  0  0  0  0  0  0  0  0  0
    5.2869    0.8535   19.9386 C   0  0  0  0  0  0  0  0  0  0  0  0
    4.7260    1.4486   18.8095 C   0  0  0  0  0  0  0  0  0  0  0  0
    5.4011    1.3606   17.5854 C   0  0  0  0  0  0  0  0  0  0  0  0
    6.5528    0.6937   17.4229 N   0  0  0  0  0  0  0  0  0  0  0  0
    7.0899    0.1301   18.5063 C   0  0  0  0  0  0  0  0  0  0  0  0
    8.0158   -0.4240   18.3661 H   0  0  0  0  0  0  0  0  0  0  0  0
    5.0006    1.8385   16.6946 H   0  0  0  0  0  0  0  0  0  0  0  0
    3.7910    1.9933   18.8652 H   0  0  0  0  0  0  0  0  0  0  0  0
    4.7801    0.8801   20.9066 H   0  0  0  0  0  0  0  0  0  0  0  0
    6.9166   -0.3233   22.1777 N   0  0  0  0  0  0  0  0  0  0  0  0
    7.8159   -1.0630   22.7961 C   0  0  0  0  0  0  0  0  0  0  0  0
    7.7408   -1.4078   24.2554 C   0  0  0  0  0  0  0  0  0  0  0  0
    7.3173   -2.8430   24.5234 C   0  0  0  0  0  0  0  0  0  0  0  0
    6.0469   -3.2369   24.1570 C   0  0  0  0  0  0  0  0  0  0  0  0
    5.5322   -4.4795   24.3496 N   0  0  0  0  0  0  0  0  0  0  0  0
    6.3190   -5.3859   24.8974 C   0  0  0  0  0  0  0  0  0  0  0  0
    7.6858   -5.1594   25.2564 C   0  0  0  0  0  0  0  0  0  0  0  0
    8.5648   -6.1882   25.7253 C   0  0  0  0  0  0  0  0  0  0  0  0
    9.9018   -5.9285   25.9045 C   0  0  0  0  0  0  0  0  0  0  0  0
   10.4170   -4.6271   25.6965 C   0  0  0  0  0  0  0  0  0  0  0  0
    9.5747   -3.5986   25.3295 C   0  0  0  0  0  0  0  0  0  0  0  0
    8.1960   -3.8338   25.0623 C   0  0  0  0  0  0  0  0  0  0  0  0
    9.9861   -2.6027   25.2210 H   0  0  0  0  0  0  0  0  0  0  0  0
   11.4770   -4.4477   25.8166 H   0  0  0  0  0  0  0  0  0  0  0  0
   10.5930   -6.7171   26.1827 H   0  0  0  0  0  0  0  0  0  0  0  0
    8.1692   -7.1819   25.9103 H   0  0  0  0  0  0  0  0  0  0  0  0
    5.8899   -6.3767   25.0528 H   0  0  0  0  0  0  0  0  0  0  0  0
    5.4017   -2.5086   23.6693 H   0  0  0  0  0  0  0  0  0  0  0  0
    6.9849   -0.7294   24.6615 H   0  0  0  0  0  0  0  0  0  0  0  0
    8.6824   -1.1592   24.7497 H   0  0  0  0  0  0  0  0  0  0  0  0
    9.5932   -3.2461   22.7233 H   0  0  0  0  0  0  0  0  0  0  0  0
   10.0224   -2.8337   21.0572 H   0  0  0  0  0  0  0  0  0  0  0  0
   10.9776   -1.3727   23.5660 H   0  0  0  0  0  0  0  0  0  0  0  0
   11.9231   -2.5137   22.6096 H   0  0  0  0  0  0  0  0  0  0  0  0
   10.8403    0.1473   21.5182 H   0  0  0  0  0  0  0  0  0  0  0  0
   11.9218   -0.9567   20.6682 H   0  0  0  0  0  0  0  0  0  0  0  0
   12.4965   -0.0901   22.0992 H   0  0  0  0  0  0  0  0  0  0  0  0
  1  2  1  0
  2  3  1  0
  3  4  1  0
  4  5  1  0
  5  6  2  0
  6  7  1  0
  7  8  2  0
  8  9  1  0
  9 10  2  0
 10 11  1  0
 11 12  2  0
 12 13  1  0
 10 14  1  0
  9 15  1  0
  8 16  1  0
  6 17  1  0
 17 18  2  0
 18 19  1  0
 19 20  1  0
 20 21  2  0
 21 22  1  0
 22 23  2  0
 23 24  1  0
 24 25  2  0
 25 26  1  0
 26 27  2  0
 27 28  1  0
 28 29  2  0
 28 30  1  0
 27 31  1  0
 26 32  1  0
 25 33  1  0
 23 34  1  0
 21 35  1  0
 19 36  1  0
 19 37  1  0
  3 38  1  0
  3 39  1  0
  2 40  1  0
  2 41  1  0
  1 42  1  0
  1 43  1  0
  1 44  1  0
 18  4  1  0
 29 20  1  0
 12  7  1  0
 29 24  1  0
M  END
>  <cnnaffinity>  (1) 
-6.06808

>  <filename>  (1) 
CCCn1nc(-c2cccnc2)nc1Cc1cncc2ccccc12

$$$$
