
     RDKit          3D

 45 48  0  0  0  0  0  0  0  0999 V2000
   11.6554   -0.6467   21.6129 C   0  0  0  0  0  0  0  0  0  0  0  0
   11.2064   -1.6549   22.6680 C   0  0  0  0  0  0  0  0  0  0  0  0
   10.0260   -2.5148   22.2076 C   0  0  0  0  0  0  0  0  0  0  0  0
    8.7794   -1.8093   22.0063 N   0  0  0  0  0  0  0  0  0  0  0  0
    8.4824   -1.3304   20.7784 N   0  0  0  0  0  0  0  0  0  0  0  0
    7.3468   -0.6947   20.9786 C   0  0  0  0  0  0  0  0  0  0  0  0
    6.6481    0.0015   19.9133 C   0  0  0  0  0  0  0  0  0  0  0  0
    5.4334    0.6522   20.1629 C   0  0  0  0  0  0  0  0  0  0  0  0
    4.8102    1.3020   19.1040 C   0  0  0  0  0  0  0  0  0  0  0  0
    5.4215    1.2770   17.8460 C   0  0  0  0  0  0  0  0  0  0  0  0
    6.5840    0.6541   17.5963 N   0  0  0  0  0  0  0  0  0  0  0  0
    7.1869    0.0367   18.6174 C   0  0  0  0  0  0  0  0  0  0  0  0
    8.1378   -0.4413   18.3819 H   0  0  0  0  0  0  0  0  0  0  0  0
    4.9614    1.7827   17.0006 H   0  0  0  0  0  0  0  0  0  0  0  0
    3.8778    1.8359   19.2418 H   0  0  0  0  0  0  0  0  0  0  0  0
    5.0058    0.6432   21.1671 H   0  0  0  0  0  0  0  0  0  0  0  0
    6.8932   -0.7450   22.2600 N   0  0  0  0  0  0  0  0  0  0  0  0
    7.8197   -1.4494   22.8826 C   0  0  0  0  0  0  0  0  0  0  0  0
    7.8008   -1.9124   24.3039 C   0  0  0  0  0  0  0  0  0  0  0  0
    7.1744   -3.3092   24.4795 C   0  0  0  0  0  0  0  0  0  0  0  0
    5.6879   -3.2861   24.1349 C   0  0  0  0  0  0  0  0  0  0  0  0
    4.9909   -4.9474   24.2131 S   0  0  0  0  0  0  0  0  0  0  0  0
    5.4887   -5.2550   25.8902 C   0  0  0  0  0  0  0  0  0  0  0  0
    4.7144   -6.1121   26.6804 C   0  0  0  0  0  0  0  0  0  0  0  0
    5.0611   -6.3775   28.0069 C   0  0  0  0  0  0  0  0  0  0  0  0
    6.2112   -5.7904   28.5519 C   0  0  0  0  0  0  0  0  0  0  0  0
    6.9890   -4.9272   27.7798 C   0  0  0  0  0  0  0  0  0  0  0  0
    6.6216   -4.6241   26.4581 C   0  0  0  0  0  0  0  0  0  0  0  0
    7.3803   -3.6624   25.8494 O   0  0  0  0  0  0  0  0  0  0  0  0
    7.8865   -4.4525   28.1630 H   0  0  0  0  0  0  0  0  0  0  0  0
    6.4916   -5.9986   29.5826 H   0  0  0  0  0  0  0  0  0  0  0  0
    4.4317   -7.0277   28.6073 H   0  0  0  0  0  0  0  0  0  0  0  0
    3.8200   -6.5483   26.2428 H   0  0  0  0  0  0  0  0  0  0  0  0
    5.5260   -2.8790   23.1356 H   0  0  0  0  0  0  0  0  0  0  0  0
    5.1668   -2.6538   24.8632 H   0  0  0  0  0  0  0  0  0  0  0  0
    7.6970   -4.0668   23.8694 H   0  0  0  0  0  0  0  0  0  0  0  0
    8.8135   -1.9339   24.7200 H   0  0  0  0  0  0  0  0  0  0  0  0
    7.2342   -1.1805   24.8888 H   0  0  0  0  0  0  0  0  0  0  0  0
   10.2436   -2.9179   21.2192 H   0  0  0  0  0  0  0  0  0  0  0  0
    9.8522   -3.3413   22.9110 H   0  0  0  0  0  0  0  0  0  0  0  0
   12.0128   -2.3768   22.8395 H   0  0  0  0  0  0  0  0  0  0  0  0
   11.0012   -1.1606   23.6319 H   0  0  0  0  0  0  0  0  0  0  0  0
   10.8545    0.0447   21.3215 H   0  0  0  0  0  0  0  0  0  0  0  0
   11.9743   -1.1806   20.7101 H   0  0  0  0  0  0  0  0  0  0  0  0
   12.5098   -0.0614   21.9669 H   0  0  0  0  0  0  0  0  0  0  0  0
  1  2  1  0
  2  3  1  0
  3  4  1  0
  4  5  1  0
  5  6  2  0
  6  7  1  0
  7  8  2  0
  8  9  1  0
  9 10  2  0
 10 11  1  0
 11 12  2  0
 12 13  1  0
 10 14  1  0
  9 15  1  0
  8 16  1  0
  6 17  1  0
 17 18  2  0
 18 19  1  0
 19 20  1  0
 20 21  1  0
 21 22  1  0
 22 23  1  0
 23 24  2  0
 24 25  1  0
 25 26  2  0
 26 27  1  0
 27 28  2  0
 28 29  1  0
 27 30  1  0
 26 31  1  0
 25 32  1  0
 24 33  1  0
 21 34  1  0
 21 35  1  0
 20 36  1  0
 19 37  1  0
 19 38  1  0
  3 39  1  0
  3 40  1  0
  2 41  1  0
  2 42  1  0
  1 43  1  0
  1 44  1  0
  1 45  1  0
 18  4  1  0
 29 20  1  0
 12  7  1  0
 28 23  1  0
M  END
>  <cnnaffinity>  (1) 
-6.22037

>  <filename>  (1) 
CCCn1nc(-c2cccnc2)nc1CC1CSc2ccccc2O1

$$$$
