
     RDKit          3D

 40 43  0  0  0  0  0  0  0  0999 V2000
   11.4139   -0.2561   21.8697 C   0  0  0  0  0  0  0  0  0  0  0  0
   11.1294   -1.5453   22.6361 C   0  0  0  0  0  0  0  0  0  0  0  0
   10.0362   -2.4504   22.0568 C   0  0  0  0  0  0  0  0  0  0  0  0
    8.7114   -1.8497   21.8958 N   0  0  0  0  0  0  0  0  0  0  0  0
    8.3688   -1.4086   20.6607 N   0  0  0  0  0  0  0  0  0  0  0  0
    7.2927   -0.6816   20.8847 C   0  0  0  0  0  0  0  0  0  0  0  0
    6.5790    0.0186   19.8217 C   0  0  0  0  0  0  0  0  0  0  0  0
    5.3716    0.6980   20.0486 C   0  0  0  0  0  0  0  0  0  0  0  0
    4.7831    1.3558   18.9701 C   0  0  0  0  0  0  0  0  0  0  0  0
    5.4288    1.3305   17.7264 C   0  0  0  0  0  0  0  0  0  0  0  0
    6.5846    0.6866   17.5032 N   0  0  0  0  0  0  0  0  0  0  0  0
    7.1391    0.0461   18.5364 C   0  0  0  0  0  0  0  0  0  0  0  0
    8.0769   -0.4659   18.3322 H   0  0  0  0  0  0  0  0  0  0  0  0
    4.9980    1.8420   16.8682 H   0  0  0  0  0  0  0  0  0  0  0  0
    3.8499    1.8997   19.0785 H   0  0  0  0  0  0  0  0  0  0  0  0
    4.9239    0.7195   21.0465 H   0  0  0  0  0  0  0  0  0  0  0  0
    6.9260   -0.6119   22.1844 N   0  0  0  0  0  0  0  0  0  0  0  0
    7.8101   -1.3768   22.7942 C   0  0  0  0  0  0  0  0  0  0  0  0
    7.8310   -1.6982   24.2264 C   0  0  0  0  0  0  0  0  0  0  0  0
    7.8651   -0.6953   25.2003 C   0  0  0  0  0  0  0  0  0  0  0  0
    8.0361   -1.0251   26.5622 C   0  0  0  0  0  0  0  0  0  0  0  0
    8.1026   -2.3559   26.9732 C   0  0  0  0  0  0  0  0  0  0  0  0
    7.9568   -3.3922   26.0289 C   0  0  0  0  0  0  0  0  0  0  0  0
    7.8521   -3.0421   24.6638 C   0  0  0  0  0  0  0  0  0  0  0  0
    7.7375   -4.2001   23.9460 N   0  0  0  0  0  0  0  0  0  0  0  0
    7.7510   -5.2829   24.8092 C   0  0  0  0  0  0  0  0  0  0  0  0
    7.8679   -4.8332   26.0914 C   0  0  0  0  0  0  0  0  0  0  0  0
    7.8399   -5.4335   26.9967 H   0  0  0  0  0  0  0  0  0  0  0  0
    7.7175   -6.3010   24.4362 H   0  0  0  0  0  0  0  0  0  0  0  0
    7.5947   -4.2045   22.9503 H   0  0  0  0  0  0  0  0  0  0  0  0
    8.2921   -2.6050   28.0029 H   0  0  0  0  0  0  0  0  0  0  0  0
    8.1235   -0.2291   27.2982 H   0  0  0  0  0  0  0  0  0  0  0  0
    7.7608    0.3488   24.8921 H   0  0  0  0  0  0  0  0  0  0  0  0
    9.9432   -3.3332   22.6962 H   0  0  0  0  0  0  0  0  0  0  0  0
   10.2936   -2.7506   21.0421 H   0  0  0  0  0  0  0  0  0  0  0  0
   12.0511   -2.1448   22.6549 H   0  0  0  0  0  0  0  0  0  0  0  0
   10.8756   -1.3103   23.6777 H   0  0  0  0  0  0  0  0  0  0  0  0
   12.1900    0.3193   22.3897 H   0  0  0  0  0  0  0  0  0  0  0  0
   11.7754   -0.4525   20.8526 H   0  0  0  0  0  0  0  0  0  0  0  0
   10.5256    0.3800   21.7987 H   0  0  0  0  0  0  0  0  0  0  0  0
  1  2  1  0
  2  3  1  0
  3  4  1  0
  4  5  1  0
  5  6  2  0
  6  7  1  0
  7  8  2  0
  8  9  1  0
  9 10  2  0
 10 11  1  0
 11 12  2  0
 12 13  1  0
 10 14  1  0
  9 15  1  0
  8 16  1  0
  6 17  1  0
 17 18  2  0
 18 19  1  0
 19 20  2  0
 20 21  1  0
 21 22  2  0
 22 23  1  0
 23 24  2  0
 24 25  1  0
 25 26  1  0
 26 27  2  0
 27 28  1  0
 26 29  1  0
 25 30  1  0
 22 31  1  0
 21 32  1  0
 20 33  1  0
  3 34  1  0
  3 35  1  0
  2 36  1  0
  2 37  1  0
  1 38  1  0
  1 39  1  0
  1 40  1  0
 18  4  1  0
 24 19  1  0
 12  7  1  0
 27 23  1  0
M  END
>  <cnnaffinity>  (1) 
-5.99942

>  <filename>  (1) 
CCCn1nc(-c2cccnc2)nc1-c1cccc2cc[nH]c12

$$$$
