
     RDKit          3D

 44 47  0  0  0  0  0  0  0  0999 V2000
   11.6520   -0.6104   21.6691 C   0  0  0  0  0  0  0  0  0  0  0  0
   11.2129   -1.7322   22.6070 C   0  0  0  0  0  0  0  0  0  0  0  0
    9.9982   -2.5168   22.1079 C   0  0  0  0  0  0  0  0  0  0  0  0
    8.7855   -1.7210   21.9729 N   0  0  0  0  0  0  0  0  0  0  0  0
    8.4649   -1.2443   20.7514 N   0  0  0  0  0  0  0  0  0  0  0  0
    7.3167   -0.6287   20.9583 C   0  0  0  0  0  0  0  0  0  0  0  0
    6.5893    0.0380   19.8876 C   0  0  0  0  0  0  0  0  0  0  0  0
    5.3695    0.6974   20.1019 C   0  0  0  0  0  0  0  0  0  0  0  0
    4.7810    1.3422   19.0181 C   0  0  0  0  0  0  0  0  0  0  0  0
    5.4272    1.3079   17.7756 C   0  0  0  0  0  0  0  0  0  0  0  0
    6.5858    0.6670   17.5604 N   0  0  0  0  0  0  0  0  0  0  0  0
    7.1473    0.0472   18.6008 C   0  0  0  0  0  0  0  0  0  0  0  0
    8.0887   -0.4653   18.4084 H   0  0  0  0  0  0  0  0  0  0  0  0
    4.9995    1.8123   16.9132 H   0  0  0  0  0  0  0  0  0  0  0  0
    3.8484    1.8853   19.1184 H   0  0  0  0  0  0  0  0  0  0  0  0
    4.9126    0.7113   21.0946 H   0  0  0  0  0  0  0  0  0  0  0  0
    6.8852   -0.6775   22.2398 N   0  0  0  0  0  0  0  0  0  0  0  0
    7.8299   -1.3617   22.8581 C   0  0  0  0  0  0  0  0  0  0  0  0
    7.7465   -1.7957   24.2829 C   0  0  0  0  0  0  0  0  0  0  0  0
    6.9109   -3.0831   24.3804 C   0  0  0  0  0  0  0  0  0  0  0  0
    7.6557   -4.1027   23.7031 O   0  0  0  0  0  0  0  0  0  0  0  0
    7.8564   -5.2369   24.5435 C   0  0  0  0  0  0  0  0  0  0  0  0
    7.2942   -4.8540   25.8886 C   0  0  0  0  0  0  0  0  0  0  0  0
    7.2941   -5.5333   27.1109 C   0  0  0  0  0  0  0  0  0  0  0  0
    6.5417   -5.0003   28.1685 C   0  0  0  0  0  0  0  0  0  0  0  0
    5.8583   -3.7822   28.0283 C   0  0  0  0  0  0  0  0  0  0  0  0
    5.9251   -3.0749   26.8250 C   0  0  0  0  0  0  0  0  0  0  0  0
    6.6687   -3.6139   25.7703 C   0  0  0  0  0  0  0  0  0  0  0  0
    5.3835   -2.1353   26.7160 H   0  0  0  0  0  0  0  0  0  0  0  0
    5.2968   -3.3628   28.8645 H   0  0  0  0  0  0  0  0  0  0  0  0
    6.4764   -5.5550   29.0989 H   0  0  0  0  0  0  0  0  0  0  0  0
    7.8668   -6.4509   27.2508 H   0  0  0  0  0  0  0  0  0  0  0  0
    8.9244   -5.4817   24.6053 H   0  0  0  0  0  0  0  0  0  0  0  0
    7.3329   -6.0947   24.1006 H   0  0  0  0  0  0  0  0  0  0  0  0
    5.9506   -2.9439   23.8588 H   0  0  0  0  0  0  0  0  0  0  0  0
    8.7423   -1.9956   24.6962 H   0  0  0  0  0  0  0  0  0  0  0  0
    7.2841   -0.9978   24.8709 H   0  0  0  0  0  0  0  0  0  0  0  0
    9.7787   -3.3707   22.7551 H   0  0  0  0  0  0  0  0  0  0  0  0
   10.1739   -2.8638   21.0880 H   0  0  0  0  0  0  0  0  0  0  0  0
   12.0375   -2.4484   22.7206 H   0  0  0  0  0  0  0  0  0  0  0  0
   10.9863   -1.3283   23.6039 H   0  0  0  0  0  0  0  0  0  0  0  0
   11.9974   -1.0104   20.7078 H   0  0  0  0  0  0  0  0  0  0  0  0
   12.4828   -0.0424   22.1030 H   0  0  0  0  0  0  0  0  0  0  0  0
   10.8268    0.0813   21.4648 H   0  0  0  0  0  0  0  0  0  0  0  0
  1  2  1  0
  2  3  1  0
  3  4  1  0
  4  5  1  0
  5  6  2  0
  6  7  1  0
  7  8  2  0
  8  9  1  0
  9 10  2  0
 10 11  1  0
 11 12  2  0
 12 13  1  0
 10 14  1  0
  9 15  1  0
  8 16  1  0
  6 17  1  0
 17 18  2  0
 18 19  1  0
 19 20  1  0
 20 21  1  0
 21 22  1  0
 22 23  1  0
 23 24  2  0
 24 25  1  0
 25 26  2  0
 26 27  1  0
 27 28  2  0
 27 29  1  0
 26 30  1  0
 25 31  1  0
 24 32  1  0
 22 33  1  0
 22 34  1  0
 20 35  1  0
 19 36  1  0
 19 37  1  0
  3 38  1  0
  3 39  1  0
  2 40  1  0
  2 41  1  0
  1 42  1  0
  1 43  1  0
  1 44  1  0
 18  4  1  0
 28 20  1  0
 12  7  1  0
 28 23  1  0
M  END
>  <cnnaffinity>  (1) 
-5.88909

>  <filename>  (1) 
CCCn1nc(-c2cccnc2)nc1CC1OCc2ccccc21

$$$$
