
     RDKit          3D

 45 48  0  0  0  0  0  0  0  0999 V2000
   12.3853   -1.5764   21.6789 C   0  0  0  0  0  0  0  0  0  0  0  0
   11.0292   -1.1199   22.2261 C   0  0  0  0  0  0  0  0  0  0  0  0
    9.8653   -2.1068   22.0221 C   0  0  0  0  0  0  0  0  0  0  0  0
    8.5760   -1.4314   21.8781 N   0  0  0  0  0  0  0  0  0  0  0  0
    8.2499   -0.9835   20.6476 N   0  0  0  0  0  0  0  0  0  0  0  0
    7.0756   -0.4042   20.8314 C   0  0  0  0  0  0  0  0  0  0  0  0
    6.3577    0.2225   19.7341 C   0  0  0  0  0  0  0  0  0  0  0  0
    5.1472    0.9169   19.8846 C   0  0  0  0  0  0  0  0  0  0  0  0
    4.6303    1.5511   18.7580 C   0  0  0  0  0  0  0  0  0  0  0  0
    5.3243    1.4559   17.5445 C   0  0  0  0  0  0  0  0  0  0  0  0
    6.4584    0.7579   17.3875 N   0  0  0  0  0  0  0  0  0  0  0  0
    6.9557    0.1562   18.4673 C   0  0  0  0  0  0  0  0  0  0  0  0
    7.8762   -0.4100   18.3332 H   0  0  0  0  0  0  0  0  0  0  0  0
    4.9581    1.9615   16.6571 H   0  0  0  0  0  0  0  0  0  0  0  0
    3.7200    2.1386   18.8024 H   0  0  0  0  0  0  0  0  0  0  0  0
    4.6374    0.9684   20.8512 H   0  0  0  0  0  0  0  0  0  0  0  0
    6.6343   -0.4387   22.1043 N   0  0  0  0  0  0  0  0  0  0  0  0
    7.5987   -1.0782   22.7477 C   0  0  0  0  0  0  0  0  0  0  0  0
    7.4754   -1.4523   24.1862 C   0  0  0  0  0  0  0  0  0  0  0  0
    6.4035   -2.5424   24.3882 C   0  0  0  0  0  0  0  0  0  0  0  0
    6.7728   -3.7789   23.7334 N   0  0  0  0  0  0  0  0  0  0  0  0
    6.4608   -4.1816   22.4478 C   0  0  0  0  0  0  0  0  0  0  0  0
    7.1738   -5.2917   22.1046 C   0  0  0  0  0  0  0  0  0  0  0  0
    8.0081   -5.6127   23.2399 C   0  0  0  0  0  0  0  0  0  0  0  0
    8.9313   -6.6079   23.6047 C   0  0  0  0  0  0  0  0  0  0  0  0
    9.5165   -6.5131   24.8687 C   0  0  0  0  0  0  0  0  0  0  0  0
    9.2096   -5.4404   25.7180 C   0  0  0  0  0  0  0  0  0  0  0  0
    8.3274   -4.4761   25.4173 N   0  0  0  0  0  0  0  0  0  0  0  0
    7.7441   -4.6168   24.2243 C   0  0  0  0  0  0  0  0  0  0  0  0
    9.6857   -5.3576   26.6932 H   0  0  0  0  0  0  0  0  0  0  0  0
   10.1801   -7.2831   25.2382 H   0  0  0  0  0  0  0  0  0  0  0  0
    9.1805   -7.4308   22.9322 H   0  0  0  0  0  0  0  0  0  0  0  0
    7.1200   -5.8200   21.1558 H   0  0  0  0  0  0  0  0  0  0  0  0
    5.7503   -3.5893   21.8772 H   0  0  0  0  0  0  0  0  0  0  0  0
    5.4409   -2.2419   23.9752 H   0  0  0  0  0  0  0  0  0  0  0  0
    6.2562   -2.7474   25.4526 H   0  0  0  0  0  0  0  0  0  0  0  0
    8.4258   -1.8142   24.5839 H   0  0  0  0  0  0  0  0  0  0  0  0
    7.1888   -0.5685   24.7631 H   0  0  0  0  0  0  0  0  0  0  0  0
    9.9716   -2.6574   21.0845 H   0  0  0  0  0  0  0  0  0  0  0  0
    9.7885   -2.8382   22.8277 H   0  0  0  0  0  0  0  0  0  0  0  0
   10.7457   -0.1899   21.7210 H   0  0  0  0  0  0  0  0  0  0  0  0
   11.1126   -0.9048   23.2975 H   0  0  0  0  0  0  0  0  0  0  0  0
   12.2945   -1.9116   20.6384 H   0  0  0  0  0  0  0  0  0  0  0  0
   12.8298   -2.3890   22.2645 H   0  0  0  0  0  0  0  0  0  0  0  0
   13.0998   -0.7444   21.6958 H   0  0  0  0  0  0  0  0  0  0  0  0
  1  2  1  0
  2  3  1  0
  3  4  1  0
  4  5  1  0
  5  6  2  0
  6  7  1  0
  7  8  2  0
  8  9  1  0
  9 10  2  0
 10 11  1  0
 11 12  2  0
 12 13  1  0
 10 14  1  0
  9 15  1  0
  8 16  1  0
  6 17  1  0
 17 18  2  0
 18 19  1  0
 19 20  1  0
 20 21  1  0
 21 22  1  0
 22 23  2  0
 23 24  1  0
 24 25  2  0
 25 26  1  0
 26 27  2  0
 27 28  1  0
 28 29  2  0
 27 30  1  0
 26 31  1  0
 25 32  1  0
 23 33  1  0
 22 34  1  0
 20 35  1  0
 20 36  1  0
 19 37  1  0
 19 38  1  0
  3 39  1  0
  3 40  1  0
  2 41  1  0
  2 42  1  0
  1 43  1  0
  1 44  1  0
  1 45  1  0
 18  4  1  0
 29 21  1  0
 12  7  1  0
 29 24  1  0
M  END
>  <cnnaffinity>  (1) 
-6.32663

>  <filename>  (1) 
CCCn1nc(-c2cccnc2)nc1CCn1ccc2cccnc21

$$$$
