
     RDKit          3D

 42 45  0  0  0  0  0  0  0  0999 V2000
    7.3449   -4.2629   23.9076 C   0  0  0  0  0  0  0  0  0  0  0  0
    6.7484   -2.9682   24.4570 C   0  0  0  0  0  0  0  0  0  0  0  0
    7.6255   -1.7209   24.2926 C   0  0  0  0  0  0  0  0  0  0  0  0
    7.8344   -1.3125   22.9035 N   0  0  0  0  0  0  0  0  0  0  0  0
    6.8042   -0.7117   22.2586 N   0  0  0  0  0  0  0  0  0  0  0  0
    7.2842   -0.4993   21.0519 C   0  0  0  0  0  0  0  0  0  0  0  0
    6.5370    0.1178   19.9577 C   0  0  0  0  0  0  0  0  0  0  0  0
    5.2997    0.7690   20.1044 C   0  0  0  0  0  0  0  0  0  0  0  0
    4.7516    1.3700   18.9728 C   0  0  0  0  0  0  0  0  0  0  0  0
    5.4371    1.2865   17.7540 C   0  0  0  0  0  0  0  0  0  0  0  0
    6.5960    0.6318   17.5981 N   0  0  0  0  0  0  0  0  0  0  0  0
    7.1247    0.0659   18.6856 C   0  0  0  0  0  0  0  0  0  0  0  0
    8.0583   -0.4732   18.5486 H   0  0  0  0  0  0  0  0  0  0  0  0
    5.0368    1.7568   16.8598 H   0  0  0  0  0  0  0  0  0  0  0  0
    3.8168    1.9161   19.0189 H   0  0  0  0  0  0  0  0  0  0  0  0
    4.7881    0.8009   21.0701 H   0  0  0  0  0  0  0  0  0  0  0  0
    8.5609   -0.9271   20.8756 N   0  0  0  0  0  0  0  0  0  0  0  0
    8.8848   -1.4355   22.0484 C   0  0  0  0  0  0  0  0  0  0  0  0
   10.1553   -2.2005   22.2892 C   0  0  0  0  0  0  0  0  0  0  0  0
   11.4704   -1.4706   22.1485 C   0  0  0  0  0  0  0  0  0  0  0  0
   12.4633   -1.7265   21.2495 C   0  0  0  0  0  0  0  0  0  0  0  0
   13.5801   -0.9675   21.5287 N   0  0  0  0  0  0  0  0  0  0  0  0
   13.2824   -0.1277   22.5768 C   0  0  0  0  0  0  0  0  0  0  0  0
   13.9811    0.9118   23.2360 C   0  0  0  0  0  0  0  0  0  0  0  0
   13.4227    1.5745   24.2444 N   0  0  0  0  0  0  0  0  0  0  0  0
   12.1897    1.2284   24.6816 C   0  0  0  0  0  0  0  0  0  0  0  0
   11.4298    0.2204   24.1204 C   0  0  0  0  0  0  0  0  0  0  0  0
   11.9688   -0.4446   23.0050 C   0  0  0  0  0  0  0  0  0  0  0  0
   10.4616   -0.0434   24.5366 H   0  0  0  0  0  0  0  0  0  0  0  0
   11.8028    1.8079   25.5130 H   0  0  0  0  0  0  0  0  0  0  0  0
   14.9885    1.2158   22.9516 H   0  0  0  0  0  0  0  0  0  0  0  0
   14.3935   -0.9176   20.9306 H   0  0  0  0  0  0  0  0  0  0  0  0
   12.4586   -2.3759   20.3900 H   0  0  0  0  0  0  0  0  0  0  0  0
   10.1239   -2.9939   21.5453 H   0  0  0  0  0  0  0  0  0  0  0  0
   10.1143   -2.6921   23.2674 H   0  0  0  0  0  0  0  0  0  0  0  0
    7.1380   -0.8762   24.7842 H   0  0  0  0  0  0  0  0  0  0  0  0
    8.5993   -1.8419   24.7790 H   0  0  0  0  0  0  0  0  0  0  0  0
    6.5361   -3.0730   25.5298 H   0  0  0  0  0  0  0  0  0  0  0  0
    5.7840   -2.7587   23.9766 H   0  0  0  0  0  0  0  0  0  0  0  0
    8.3000   -4.5125   24.3887 H   0  0  0  0  0  0  0  0  0  0  0  0
    6.6650   -5.1033   24.0877 H   0  0  0  0  0  0  0  0  0  0  0  0
    7.5184   -4.2082   22.8257 H   0  0  0  0  0  0  0  0  0  0  0  0
  1  2  1  0
  2  3  1  0
  3  4  1  0
  4  5  1  0
  5  6  2  0
  6  7  1  0
  7  8  2  0
  8  9  1  0
  9 10  2  0
 10 11  1  0
 11 12  2  0
 12 13  1  0
 10 14  1  0
  9 15  1  0
  8 16  1  0
  6 17  1  0
 17 18  2  0
 18 19  1  0
 19 20  1  0
 20 21  2  0
 21 22  1  0
 22 23  1  0
 23 24  2  0
 24 25  1  0
 25 26  2  0
 26 27  1  0
 27 28  2  0
 27 29  1  0
 26 30  1  0
 24 31  1  0
 22 32  1  0
 21 33  1  0
 19 34  1  0
 19 35  1  0
  3 36  1  0
  3 37  1  0
  2 38  1  0
  2 39  1  0
  1 40  1  0
  1 41  1  0
  1 42  1  0
 18  4  1  0
 28 20  1  0
 12  7  1  0
 28 23  1  0
M  END
>  <cnnaffinity>  (1) 
-6.53669

>  <filename>  (1) 
CCCn1nc(-c2cccnc2)nc1Cc1c[nH]c2cnccc12

$$$$
