
     RDKit          3D

 41 44  0  0  0  0  0  0  0  0999 V2000
   11.5774   -0.4774   21.9270 C   0  0  0  0  0  0  0  0  0  0  0  0
   11.1673   -1.6682   22.7920 C   0  0  0  0  0  0  0  0  0  0  0  0
   10.0474   -2.5094   22.1791 C   0  0  0  0  0  0  0  0  0  0  0  0
    8.7934   -1.8215   21.9593 N   0  0  0  0  0  0  0  0  0  0  0  0
    8.4993   -1.3376   20.7321 N   0  0  0  0  0  0  0  0  0  0  0  0
    7.3516   -0.7213   20.9306 C   0  0  0  0  0  0  0  0  0  0  0  0
    6.6472   -0.0013   19.8894 C   0  0  0  0  0  0  0  0  0  0  0  0
    5.4363    0.6527   20.1559 C   0  0  0  0  0  0  0  0  0  0  0  0
    4.8098    1.3047   19.1004 C   0  0  0  0  0  0  0  0  0  0  0  0
    5.4183    1.2813   17.8395 C   0  0  0  0  0  0  0  0  0  0  0  0
    6.5799    0.6613   17.5806 N   0  0  0  0  0  0  0  0  0  0  0  0
    7.1845    0.0423   18.5972 C   0  0  0  0  0  0  0  0  0  0  0  0
    8.1370   -0.4378   18.3730 H   0  0  0  0  0  0  0  0  0  0  0  0
    4.9571    1.7879   16.9967 H   0  0  0  0  0  0  0  0  0  0  0  0
    3.8763    1.8378   19.2401 H   0  0  0  0  0  0  0  0  0  0  0  0
    5.0105    0.6446   21.1625 H   0  0  0  0  0  0  0  0  0  0  0  0
    6.8840   -0.7943   22.2003 N   0  0  0  0  0  0  0  0  0  0  0  0
    7.8214   -1.4755   22.8275 C   0  0  0  0  0  0  0  0  0  0  0  0
    7.8127   -1.8443   24.2848 C   0  0  0  0  0  0  0  0  0  0  0  0
    6.6323   -2.7860   24.6235 C   0  0  0  0  0  0  0  0  0  0  0  0
    6.1015   -2.4081   26.3257 S   0  0  0  0  0  0  0  0  0  0  0  0
    6.8089   -0.7939   26.2605 C   0  0  0  0  0  0  0  0  0  0  0  0
    6.5288    0.2605   27.1384 C   0  0  0  0  0  0  0  0  0  0  0  0
    7.1859    1.4833   26.9667 C   0  0  0  0  0  0  0  0  0  0  0  0
    8.1152    1.6443   25.9261 C   0  0  0  0  0  0  0  0  0  0  0  0
    8.3667    0.5921   25.0428 C   0  0  0  0  0  0  0  0  0  0  0  0
    7.6963   -0.6287   25.1959 C   0  0  0  0  0  0  0  0  0  0  0  0
    9.0715    0.7197   24.2219 H   0  0  0  0  0  0  0  0  0  0  0  0
    8.6273    2.5934   25.7957 H   0  0  0  0  0  0  0  0  0  0  0  0
    6.9768    2.3122   27.6395 H   0  0  0  0  0  0  0  0  0  0  0  0
    5.8012    0.1267   27.9326 H   0  0  0  0  0  0  0  0  0  0  0  0
    5.7998   -2.6053   23.9351 H   0  0  0  0  0  0  0  0  0  0  0  0
    6.9092   -3.8408   24.5598 H   0  0  0  0  0  0  0  0  0  0  0  0
    8.7497   -2.3610   24.5378 H   0  0  0  0  0  0  0  0  0  0  0  0
    9.8626   -3.3963   22.8008 H   0  0  0  0  0  0  0  0  0  0  0  0
   10.3416   -2.8175   21.1755 H   0  0  0  0  0  0  0  0  0  0  0  0
   12.0046   -2.3713   22.8797 H   0  0  0  0  0  0  0  0  0  0  0  0
   10.9189   -1.3558   23.8199 H   0  0  0  0  0  0  0  0  0  0  0  0
   11.9360   -0.8339   20.9541 H   0  0  0  0  0  0  0  0  0  0  0  0
   12.3857    0.0893   22.3992 H   0  0  0  0  0  0  0  0  0  0  0  0
   10.7487    0.2153   21.7317 H   0  0  0  0  0  0  0  0  0  0  0  0
  1  2  1  0
  2  3  1  0
  3  4  1  0
  4  5  1  0
  5  6  2  0
  6  7  1  0
  7  8  2  0
  8  9  1  0
  9 10  2  0
 10 11  1  0
 11 12  2  0
 12 13  1  0
 10 14  1  0
  9 15  1  0
  8 16  1  0
  6 17  1  0
 17 18  2  0
 18 19  1  0
 19 20  1  0
 20 21  1  0
 21 22  1  0
 22 23  2  0
 23 24  1  0
 24 25  2  0
 25 26  1  0
 26 27  2  0
 26 28  1  0
 25 29  1  0
 24 30  1  0
 23 31  1  0
 20 32  1  0
 20 33  1  0
 19 34  1  0
  3 35  1  0
  3 36  1  0
  2 37  1  0
  2 38  1  0
  1 39  1  0
  1 40  1  0
  1 41  1  0
 18  4  1  0
 27 19  1  0
 12  7  1  0
 27 22  1  0
M  END
>  <cnnaffinity>  (1) 
-6.05067

>  <filename>  (1) 
CCCn1nc(-c2cccnc2)nc1C1CSc2ccccc21

$$$$
