
     RDKit          3D

 47 50  0  0  0  0  0  0  0  0999 V2000
   12.5692   -1.7808   21.8218 C   0  0  0  0  0  0  0  0  0  0  0  0
   11.2133   -1.0663   21.8239 C   0  0  0  0  0  0  0  0  0  0  0  0
   10.1150   -2.1018   22.0365 C   0  0  0  0  0  0  0  0  0  0  0  0
    8.7687   -1.5755   21.9325 N   0  0  0  0  0  0  0  0  0  0  0  0
    8.4106   -1.1103   20.7232 N   0  0  0  0  0  0  0  0  0  0  0  0
    7.1846   -0.6538   20.9232 C   0  0  0  0  0  0  0  0  0  0  0  0
    6.4742    0.0278   19.8525 C   0  0  0  0  0  0  0  0  0  0  0  0
    5.2676    0.7187   20.0361 C   0  0  0  0  0  0  0  0  0  0  0  0
    4.7327    1.3855   18.9340 C   0  0  0  0  0  0  0  0  0  0  0  0
    5.4134    1.3351   17.7112 C   0  0  0  0  0  0  0  0  0  0  0  0
    6.5609    0.6656   17.5262 N   0  0  0  0  0  0  0  0  0  0  0  0
    7.0754    0.0358   18.5842 C   0  0  0  0  0  0  0  0  0  0  0  0
    8.0163   -0.4894   18.4245 H   0  0  0  0  0  0  0  0  0  0  0  0
    5.0235    1.8559   16.8397 H   0  0  0  0  0  0  0  0  0  0  0  0
    3.8126    1.9536   19.0099 H   0  0  0  0  0  0  0  0  0  0  0  0
    4.7816    0.7381   21.0140 H   0  0  0  0  0  0  0  0  0  0  0  0
    6.7287   -0.8331   22.1796 N   0  0  0  0  0  0  0  0  0  0  0  0
    7.7415   -1.4098   22.8074 C   0  0  0  0  0  0  0  0  0  0  0  0
    7.8047   -1.7872   24.2814 C   0  0  0  0  0  0  0  0  0  0  0  0
    8.7179   -0.8332   25.0897 C   0  0  0  0  0  0  0  0  0  0  0  0
    8.1192    0.4970   25.1639 N   0  0  0  0  0  0  0  0  0  0  0  0
    8.9185    1.6931   24.8992 C   0  0  0  0  0  0  0  0  0  0  0  0
    8.9030    2.3773   25.7545 H   0  0  0  0  0  0  0  0  0  0  0  0
    9.9539    1.4069   24.6898 H   0  0  0  0  0  0  0  0  0  0  0  0
    8.5214    2.2289   24.0293 H   0  0  0  0  0  0  0  0  0  0  0  0
    6.7807    0.6679   25.4615 C   0  0  0  0  0  0  0  0  0  0  0  0
    6.3210    1.7706   25.7229 O   0  0  0  0  0  0  0  0  0  0  0  0
    5.9083   -0.5730   25.4268 C   0  0  0  0  0  0  0  0  0  0  0  0
    4.5685   -0.5015   25.8594 C   0  0  0  0  0  0  0  0  0  0  0  0
    3.7582   -1.6293   25.7954 C   0  0  0  0  0  0  0  0  0  0  0  0
    4.2732   -2.8422   25.3145 C   0  0  0  0  0  0  0  0  0  0  0  0
    5.6005   -2.9094   24.8853 C   0  0  0  0  0  0  0  0  0  0  0  0
    6.4226   -1.7752   24.9157 C   0  0  0  0  0  0  0  0  0  0  0  0
    6.0022   -3.8459   24.5078 H   0  0  0  0  0  0  0  0  0  0  0  0
    3.6378   -3.7235   25.2637 H   0  0  0  0  0  0  0  0  0  0  0  0
    2.7206   -1.5662   26.1126 H   0  0  0  0  0  0  0  0  0  0  0  0
    4.1809    0.4440   26.2291 H   0  0  0  0  0  0  0  0  0  0  0  0
    9.7097   -0.7604   24.6264 H   0  0  0  0  0  0  0  0  0  0  0  0
    8.8625   -1.2499   26.0987 H   0  0  0  0  0  0  0  0  0  0  0  0
    8.2110   -2.8017   24.3410 H   0  0  0  0  0  0  0  0  0  0  0  0
   10.1971   -2.8488   21.2506 H   0  0  0  0  0  0  0  0  0  0  0  0
   10.2334   -2.6053   22.9942 H   0  0  0  0  0  0  0  0  0  0  0  0
   11.1701   -0.3009   22.6061 H   0  0  0  0  0  0  0  0  0  0  0  0
   11.0133   -0.5573   20.8726 H   0  0  0  0  0  0  0  0  0  0  0  0
   13.4238   -1.1238   22.0179 H   0  0  0  0  0  0  0  0  0  0  0  0
   12.7325   -2.2644   20.8559 H   0  0  0  0  0  0  0  0  0  0  0  0
   12.5776   -2.5608   22.5942 H   0  0  0  0  0  0  0  0  0  0  0  0
  1  2  1  0
  2  3  1  0
  3  4  1  0
  4  5  1  0
  5  6  2  0
  6  7  1  0
  7  8  2  0
  8  9  1  0
  9 10  2  0
 10 11  1  0
 11 12  2  0
 12 13  1  0
 10 14  1  0
  9 15  1  0
  8 16  1  0
  6 17  1  0
 17 18  2  0
 18 19  1  0
 19 20  1  0
 20 21  1  0
 21 22  1  0
 22 23  1  0
 22 24  1  0
 22 25  1  0
 21 26  1  0
 26 27  2  0
 26 28  1  0
 28 29  2  0
 29 30  1  0
 30 31  2  0
 31 32  1  0
 32 33  2  0
 32 34  1  0
 31 35  1  0
 30 36  1  0
 29 37  1  0
 20 38  1  0
 20 39  1  0
 19 40  1  0
  3 41  1  0
  3 42  1  0
  2 43  1  0
  2 44  1  0
  1 45  1  0
  1 46  1  0
  1 47  1  0
 18  4  1  0
 33 19  1  0
 12  7  1  0
 33 28  1  0
M  END
>  <cnnaffinity>  (1) 
-5.96581

>  <filename>  (1) 
CCCn1nc(-c2cccnc2)nc1C1CN(C)C(=O)c2ccccc21

$$$$
