
     RDKit          3D

 48 51  0  0  0  0  0  0  0  0999 V2000
   12.4623   -1.9238   21.9399 C   0  0  0  0  0  0  0  0  0  0  0  0
   11.0689   -1.4205   22.3103 C   0  0  0  0  0  0  0  0  0  0  0  0
    9.9494   -2.4202   21.9780 C   0  0  0  0  0  0  0  0  0  0  0  0
    8.6365   -1.7821   21.8641 N   0  0  0  0  0  0  0  0  0  0  0  0
    8.2892   -1.2644   20.6658 N   0  0  0  0  0  0  0  0  0  0  0  0
    7.1781   -0.5963   20.9244 C   0  0  0  0  0  0  0  0  0  0  0  0
    6.4681    0.1172   19.8606 C   0  0  0  0  0  0  0  0  0  0  0  0
    5.2518    0.7987   20.0334 C   0  0  0  0  0  0  0  0  0  0  0  0
    4.6960    1.4366   18.9237 C   0  0  0  0  0  0  0  0  0  0  0  0
    5.3636    1.3761   17.6958 C   0  0  0  0  0  0  0  0  0  0  0  0
    6.5147    0.7129   17.5181 N   0  0  0  0  0  0  0  0  0  0  0  0
    7.0470    0.1055   18.5804 C   0  0  0  0  0  0  0  0  0  0  0  0
    7.9805   -0.4238   18.4020 H   0  0  0  0  0  0  0  0  0  0  0  0
    4.9559    1.8797   16.8207 H   0  0  0  0  0  0  0  0  0  0  0  0
    3.7681    1.9931   18.9942 H   0  0  0  0  0  0  0  0  0  0  0  0
    4.7521    0.8357   21.0026 H   0  0  0  0  0  0  0  0  0  0  0  0
    6.7991   -0.6417   22.2211 N   0  0  0  0  0  0  0  0  0  0  0  0
    7.7319   -1.3909   22.7927 C   0  0  0  0  0  0  0  0  0  0  0  0
    7.6696   -1.8535   24.2164 C   0  0  0  0  0  0  0  0  0  0  0  0
    6.7220   -3.0667   24.4078 C   0  0  0  0  0  0  0  0  0  0  0  0
    7.2148   -4.3113   23.6722 C   0  0  0  0  0  0  0  0  0  0  0  0
    8.2173   -4.6155   24.0004 H   0  0  0  0  0  0  0  0  0  0  0  0
    7.2727   -4.1249   22.5968 H   0  0  0  0  0  0  0  0  0  0  0  0
    6.5360   -5.1526   23.8376 H   0  0  0  0  0  0  0  0  0  0  0  0
    6.4911   -3.3457   25.8312 N   0  0  0  0  0  0  0  0  0  0  0  0
    7.2428   -4.1301   26.6740 C   0  0  0  0  0  0  0  0  0  0  0  0
    6.7971   -4.1997   27.8952 N   0  0  0  0  0  0  0  0  0  0  0  0
    5.6655   -3.3941   27.8975 C   0  0  0  0  0  0  0  0  0  0  0  0
    4.7865   -3.0707   28.9486 C   0  0  0  0  0  0  0  0  0  0  0  0
    3.7102   -2.2266   28.6798 C   0  0  0  0  0  0  0  0  0  0  0  0
    3.4888   -1.7231   27.3731 C   0  0  0  0  0  0  0  0  0  0  0  0
    4.3419   -2.0398   26.3153 C   0  0  0  0  0  0  0  0  0  0  0  0
    5.4450   -2.8596   26.6072 C   0  0  0  0  0  0  0  0  0  0  0  0
    4.1356   -1.6948   25.2998 H   0  0  0  0  0  0  0  0  0  0  0  0
    2.6222   -1.0913   27.1960 H   0  0  0  0  0  0  0  0  0  0  0  0
    3.0244   -1.9720   29.4849 H   0  0  0  0  0  0  0  0  0  0  0  0
    4.9711   -3.4777   29.9384 H   0  0  0  0  0  0  0  0  0  0  0  0
    8.1340   -4.6408   26.3189 H   0  0  0  0  0  0  0  0  0  0  0  0
    5.7405   -2.7875   24.0040 H   0  0  0  0  0  0  0  0  0  0  0  0
    7.2828   -1.0187   24.8054 H   0  0  0  0  0  0  0  0  0  0  0  0
    8.6666   -2.0984   24.6032 H   0  0  0  0  0  0  0  0  0  0  0  0
   10.1173   -2.8436   20.9877 H   0  0  0  0  0  0  0  0  0  0  0  0
    9.9025   -3.2490   22.6960 H   0  0  0  0  0  0  0  0  0  0  0  0
   11.0551   -1.1811   23.3828 H   0  0  0  0  0  0  0  0  0  0  0  0
   10.8531   -0.5000   21.7510 H   0  0  0  0  0  0  0  0  0  0  0  0
   12.5572   -2.0854   20.8584 H   0  0  0  0  0  0  0  0  0  0  0  0
   12.6987   -2.8695   22.4367 H   0  0  0  0  0  0  0  0  0  0  0  0
   13.2322   -1.2056   22.2379 H   0  0  0  0  0  0  0  0  0  0  0  0
  1  2  1  0
  2  3  1  0
  3  4  1  0
  4  5  1  0
  5  6  2  0
  6  7  1  0
  7  8  2  0
  8  9  1  0
  9 10  2  0
 10 11  1  0
 11 12  2  0
 12 13  1  0
 10 14  1  0
  9 15  1  0
  8 16  1  0
  6 17  1  0
 17 18  2  0
 18 19  1  0
 19 20  1  0
 20 21  1  0
 21 22  1  0
 21 23  1  0
 21 24  1  0
 20 25  1  0
 25 26  1  0
 26 27  2  0
 27 28  1  0
 28 29  2  0
 29 30  1  0
 30 31  2  0
 31 32  1  0
 32 33  2  0
 32 34  1  0
 31 35  1  0
 30 36  1  0
 29 37  1  0
 26 38  1  0
 20 39  1  0
 19 40  1  0
 19 41  1  0
  3 42  1  0
  3 43  1  0
  2 44  1  0
  2 45  1  0
  1 46  1  0
  1 47  1  0
  1 48  1  0
 18  4  1  0
 33 25  1  0
 12  7  1  0
 33 28  1  0
M  END
>  <cnnaffinity>  (1) 
-6.26942

>  <filename>  (1) 
CCCn1nc(-c2cccnc2)nc1CC(C)n1cnc2ccccc21

$$$$
