
     RDKit          3D

 29 30  0  0  0  0  0  0  0  0999 V2000
    4.9748    1.8261   16.9560 H   0  0  0  0  0  0  0  0  0  0  0  0
    5.4251    1.3023   17.7975 C   0  0  0  0  0  0  0  0  0  0  0  0
    6.5791    0.6631   17.5525 N   0  0  0  0  0  0  0  0  0  0  0  0
    7.1474    0.0127   18.5749 C   0  0  0  0  0  0  0  0  0  0  0  0
    8.0818   -0.5002   18.3561 H   0  0  0  0  0  0  0  0  0  0  0  0
    6.6178   -0.0122   19.8753 C   0  0  0  0  0  0  0  0  0  0  0  0
    7.3799   -0.7021   20.9280 C   0  0  0  0  0  0  0  0  0  0  0  0
    8.0325   -1.8031   20.7146 N   0  0  0  0  0  0  0  0  0  0  0  0
    8.5459   -2.1220   21.9398 N   0  0  0  0  0  0  0  0  0  0  0  0
    9.0385   -2.9720   22.1442 H   0  0  0  0  0  0  0  0  0  0  0  0
    8.2602   -1.2481   22.9362 C   0  0  0  0  0  0  0  0  0  0  0  0
    8.6025   -1.3522   24.1046 O   0  0  0  0  0  0  0  0  0  0  0  0
    7.5013   -0.2604   22.2473 N   0  0  0  0  0  0  0  0  0  0  0  0
    6.8844    0.9229   22.7717 N   0  0  0  0  0  0  0  0  0  0  0  0
    7.3527    1.7323   22.3632 H   0  0  0  0  0  0  0  0  0  0  0  0
    6.8926    1.0725   24.2292 C   0  0  0  0  0  0  0  0  0  0  0  0
    6.7501    0.0939   24.7030 H   0  0  0  0  0  0  0  0  0  0  0  0
    6.0189    1.6874   24.4790 H   0  0  0  0  0  0  0  0  0  0  0  0
    8.1531    1.7627   24.7598 C   0  0  0  0  0  0  0  0  0  0  0  0
    8.3033    2.7245   24.2404 H   0  0  0  0  0  0  0  0  0  0  0  0
    9.0213    1.1329   24.5306 H   0  0  0  0  0  0  0  0  0  0  0  0
    8.0454    2.0061   26.2636 C   0  0  0  0  0  0  0  0  0  0  0  0
    7.9325    1.0595   26.8064 H   0  0  0  0  0  0  0  0  0  0  0  0
    7.1758    2.6316   26.5051 H   0  0  0  0  0  0  0  0  0  0  0  0
    8.9344    2.5068   26.6535 H   0  0  0  0  0  0  0  0  0  0  0  0
    5.4034    0.6494   20.1169 C   0  0  0  0  0  0  0  0  0  0  0  0
    4.9634    0.6618   21.1189 H   0  0  0  0  0  0  0  0  0  0  0  0
    4.8006    1.3100   19.0505 C   0  0  0  0  0  0  0  0  0  0  0  0
    3.8653    1.8403   19.1799 H   0  0  0  0  0  0  0  0  0  0  0  0
  1  2  1  0
  2  3  2  0
  3  4  1  0
  4  5  1  0
  4  6  2  0
  6  7  1  0
  7  8  2  0
  8  9  1  0
  9 10  1  0
  9 11  1  0
 11 12  2  0
 11 13  1  0
 13 14  1  0
 14 15  1  0
 14 16  1  0
 16 17  1  0
 16 18  1  0
 16 19  1  0
 19 20  1  0
 19 21  1  0
 19 22  1  0
 22 23  1  0
 22 24  1  0
 22 25  1  0
  6 26  1  0
 26 27  1  0
 26 28  2  0
 28 29  1  0
 28  2  1  0
 13  7  1  0
M  END
>  <cnnaffinity>  (1) 
-4.51277

>  <filename>  (1) 
CCCNn1c(-c2cccnc2)n[nH]c1=O

$$$$
