
     RDKit          3D

 47 50  0  0  0  0  0  0  0  0999 V2000
   12.3805   -2.0201   22.1269 C   0  0  0  0  0  0  0  0  0  0  0  0
   10.9996   -1.4620   22.4633 C   0  0  0  0  0  0  0  0  0  0  0  0
    9.9035   -2.4694   22.0606 C   0  0  0  0  0  0  0  0  0  0  0  0
    8.5811   -1.8699   21.9250 N   0  0  0  0  0  0  0  0  0  0  0  0
    8.2521   -1.3301   20.7352 N   0  0  0  0  0  0  0  0  0  0  0  0
    7.1489   -0.6535   20.9917 C   0  0  0  0  0  0  0  0  0  0  0  0
    6.4768    0.0801   19.9260 C   0  0  0  0  0  0  0  0  0  0  0  0
    5.2689    0.7731   20.0966 C   0  0  0  0  0  0  0  0  0  0  0  0
    4.7258    1.4088   18.9809 C   0  0  0  0  0  0  0  0  0  0  0  0
    5.4023    1.3375   17.7580 C   0  0  0  0  0  0  0  0  0  0  0  0
    6.5593    0.6791   17.5890 N   0  0  0  0  0  0  0  0  0  0  0  0
    7.0795    0.0737   18.6579 C   0  0  0  0  0  0  0  0  0  0  0  0
    8.0234   -0.4481   18.5068 H   0  0  0  0  0  0  0  0  0  0  0  0
    5.0039    1.8335   16.8759 H   0  0  0  0  0  0  0  0  0  0  0  0
    3.8027    1.9732   19.0479 H   0  0  0  0  0  0  0  0  0  0  0  0
    4.7861    0.8104   21.0739 H   0  0  0  0  0  0  0  0  0  0  0  0
    6.7628   -0.6949   22.2902 N   0  0  0  0  0  0  0  0  0  0  0  0
    7.6772   -1.4765   22.8502 C   0  0  0  0  0  0  0  0  0  0  0  0
    7.7857   -1.8470   24.3139 C   0  0  0  0  0  0  0  0  0  0  0  0
    6.7153   -2.6851   24.8641 N   0  0  0  0  0  0  0  0  0  0  0  0
    5.5591   -2.0169   25.4665 C   0  0  0  0  0  0  0  0  0  0  0  0
    4.9064   -2.9126   26.5129 C   0  0  0  0  0  0  0  0  0  0  0  0
    4.5797   -4.2598   25.9050 C   0  0  0  0  0  0  0  0  0  0  0  0
    3.4490   -4.9877   26.2918 C   0  0  0  0  0  0  0  0  0  0  0  0
    3.1892   -6.2450   25.7461 C   0  0  0  0  0  0  0  0  0  0  0  0
    4.0710   -6.7970   24.8061 C   0  0  0  0  0  0  0  0  0  0  0  0
    5.1998   -6.0852   24.4084 C   0  0  0  0  0  0  0  0  0  0  0  0
    5.4498   -4.8063   24.9370 C   0  0  0  0  0  0  0  0  0  0  0  0
    6.6426   -4.0139   24.4613 C   0  0  0  0  0  0  0  0  0  0  0  0
    7.5087   -4.5005   23.7411 O   0  0  0  0  0  0  0  0  0  0  0  0
    5.8983   -6.5095   23.6877 H   0  0  0  0  0  0  0  0  0  0  0  0
    3.8733   -7.7799   24.3900 H   0  0  0  0  0  0  0  0  0  0  0  0
    2.3096   -6.8011   26.0584 H   0  0  0  0  0  0  0  0  0  0  0  0
    2.7747   -4.5621   27.0321 H   0  0  0  0  0  0  0  0  0  0  0  0
    4.0011   -2.4248   26.8921 H   0  0  0  0  0  0  0  0  0  0  0  0
    5.5865   -3.0455   27.3633 H   0  0  0  0  0  0  0  0  0  0  0  0
    5.8857   -1.0701   25.9155 H   0  0  0  0  0  0  0  0  0  0  0  0
    4.8200   -1.7627   24.7055 H   0  0  0  0  0  0  0  0  0  0  0  0
    8.7449   -2.3403   24.5010 H   0  0  0  0  0  0  0  0  0  0  0  0
    7.8114   -0.9135   24.8877 H   0  0  0  0  0  0  0  0  0  0  0  0
   10.1208   -2.8388   21.0588 H   0  0  0  0  0  0  0  0  0  0  0  0
    9.8216   -3.3422   22.7189 H   0  0  0  0  0  0  0  0  0  0  0  0
   10.9263   -1.2058   23.5294 H   0  0  0  0  0  0  0  0  0  0  0  0
   10.8004   -0.5498   21.8861 H   0  0  0  0  0  0  0  0  0  0  0  0
   12.5164   -2.0897   21.0425 H   0  0  0  0  0  0  0  0  0  0  0  0
   13.2178   -1.4339   22.5162 H   0  0  0  0  0  0  0  0  0  0  0  0
   12.4792   -3.0239   22.5473 H   0  0  0  0  0  0  0  0  0  0  0  0
  1  2  1  0
  2  3  1  0
  3  4  1  0
  4  5  1  0
  5  6  2  0
  6  7  1  0
  7  8  2  0
  8  9  1  0
  9 10  2  0
 10 11  1  0
 11 12  2  0
 12 13  1  0
 10 14  1  0
  9 15  1  0
  8 16  1  0
  6 17  1  0
 17 18  2  0
 18 19  1  0
 19 20  1  0
 20 21  1  0
 21 22  1  0
 22 23  1  0
 23 24  2  0
 24 25  1  0
 25 26  2  0
 26 27  1  0
 27 28  2  0
 28 29  1  0
 29 30  2  0
 27 31  1  0
 26 32  1  0
 25 33  1  0
 24 34  1  0
 22 35  1  0
 22 36  1  0
 21 37  1  0
 21 38  1  0
 19 39  1  0
 19 40  1  0
  3 41  1  0
  3 42  1  0
  2 43  1  0
  2 44  1  0
  1 45  1  0
  1 46  1  0
  1 47  1  0
 18  4  1  0
 29 20  1  0
 12  7  1  0
 28 23  1  0
M  END
>  <cnnaffinity>  (1) 
-6.04288

>  <filename>  (1) 
CCCn1nc(-c2cccnc2)nc1CN1CCc2ccccc2C1=O

$$$$
