
     RDKit          3D

 39 41  0  0  0  0  0  0  0  0999 V2000
   12.4330   -1.9573   22.0029 C   0  0  0  0  0  0  0  0  0  0  0  0
   11.0511   -1.4419   22.3948 C   0  0  0  0  0  0  0  0  0  0  0  0
    9.9285   -2.4329   22.0614 C   0  0  0  0  0  0  0  0  0  0  0  0
    8.6291   -1.7816   21.9201 N   0  0  0  0  0  0  0  0  0  0  0  0
    8.2945   -1.2870   20.7069 N   0  0  0  0  0  0  0  0  0  0  0  0
    7.1946   -0.5923   20.9517 C   0  0  0  0  0  0  0  0  0  0  0  0
    6.4892    0.1167   19.8846 C   0  0  0  0  0  0  0  0  0  0  0  0
    5.2710    0.7953   20.0605 C   0  0  0  0  0  0  0  0  0  0  0  0
    4.7104    1.4246   18.9475 C   0  0  0  0  0  0  0  0  0  0  0  0
    5.3772    1.3596   17.7207 C   0  0  0  0  0  0  0  0  0  0  0  0
    6.5358    0.7079   17.5447 N   0  0  0  0  0  0  0  0  0  0  0  0
    7.0704    0.1034   18.6088 C   0  0  0  0  0  0  0  0  0  0  0  0
    8.0061   -0.4257   18.4360 H   0  0  0  0  0  0  0  0  0  0  0  0
    4.9611    1.8445   16.8395 H   0  0  0  0  0  0  0  0  0  0  0  0
    3.7750    1.9689   19.0160 H   0  0  0  0  0  0  0  0  0  0  0  0
    4.7799    0.8308   21.0339 H   0  0  0  0  0  0  0  0  0  0  0  0
    6.8160   -0.5983   22.2473 N   0  0  0  0  0  0  0  0  0  0  0  0
    7.7197   -1.3660   22.8318 C   0  0  0  0  0  0  0  0  0  0  0  0
    7.6608   -1.7490   24.2762 C   0  0  0  0  0  0  0  0  0  0  0  0
    6.5068   -3.1278   24.6557 S   0  0  0  0  0  0  0  0  0  0  0  0
    7.3091   -4.4790   23.8315 C   0  0  0  0  0  0  0  0  0  0  0  0
    7.0534   -4.7573   22.4837 C   0  0  0  0  0  0  0  0  0  0  0  0
    7.7486   -5.8065   21.8820 C   0  0  0  0  0  0  0  0  0  0  0  0
    8.6418   -6.5675   22.5245 N   0  0  0  0  0  0  0  0  0  0  0  0
    8.8617   -6.3013   23.8172 C   0  0  0  0  0  0  0  0  0  0  0  0
    8.2155   -5.2884   24.5212 C   0  0  0  0  0  0  0  0  0  0  0  0
    8.4027   -5.1443   25.5774 H   0  0  0  0  0  0  0  0  0  0  0  0
    9.5983   -6.9276   24.3154 H   0  0  0  0  0  0  0  0  0  0  0  0
    7.5809   -6.0532   20.8351 H   0  0  0  0  0  0  0  0  0  0  0  0
    6.3424   -4.1589   21.9269 H   0  0  0  0  0  0  0  0  0  0  0  0
    8.6472   -1.9900   24.6816 H   0  0  0  0  0  0  0  0  0  0  0  0
    7.2634   -0.8947   24.8331 H   0  0  0  0  0  0  0  0  0  0  0  0
    9.8595   -3.2458   22.7896 H   0  0  0  0  0  0  0  0  0  0  0  0
   10.1014   -2.8761   21.0822 H   0  0  0  0  0  0  0  0  0  0  0  0
   11.0267   -1.1837   23.4622 H   0  0  0  0  0  0  0  0  0  0  0  0
   10.8316   -0.5283   21.8371 H   0  0  0  0  0  0  0  0  0  0  0  0
   12.6280   -2.9209   22.4784 H   0  0  0  0  0  0  0  0  0  0  0  0
   13.2373   -1.2827   22.3142 H   0  0  0  0  0  0  0  0  0  0  0  0
   12.5281   -2.0869   20.9151 H   0  0  0  0  0  0  0  0  0  0  0  0
  1  2  1  0
  2  3  1  0
  3  4  1  0
  4  5  1  0
  5  6  2  0
  6  7  1  0
  7  8  2  0
  8  9  1  0
  9 10  2  0
 10 11  1  0
 11 12  2  0
 12 13  1  0
 10 14  1  0
  9 15  1  0
  8 16  1  0
  6 17  1  0
 17 18  2  0
 18 19  1  0
 19 20  1  0
 20 21  1  0
 21 22  2  0
 22 23  1  0
 23 24  2  0
 24 25  1  0
 25 26  2  0
 26 27  1  0
 25 28  1  0
 23 29  1  0
 22 30  1  0
 19 31  1  0
 19 32  1  0
  3 33  1  0
  3 34  1  0
  2 35  1  0
  2 36  1  0
  1 37  1  0
  1 38  1  0
  1 39  1  0
 18  4  1  0
 26 21  1  0
 12  7  1  0
M  END
>  <cnnaffinity>  (1) 
-6.15604

>  <filename>  (1) 
CCCn1nc(-c2cccnc2)nc1CSc1ccncc1

$$$$
