
     RDKit          3D

 23 23  0  0  0  0  0  0  0  0999 V2000
    5.0803    1.8545   16.9584 H   0  0  0  0  0  0  0  0  0  0  0  0
    5.4514    1.2975   17.8156 C   0  0  0  0  0  0  0  0  0  0  0  0
    6.5727    0.5862   17.6122 N   0  0  0  0  0  0  0  0  0  0  0  0
    7.0684   -0.0911   18.6540 C   0  0  0  0  0  0  0  0  0  0  0  0
    7.9977   -0.6382   18.4899 H   0  0  0  0  0  0  0  0  0  0  0  0
    6.4491   -0.0983   19.9040 C   0  0  0  0  0  0  0  0  0  0  0  0
    7.3053   -0.9650   21.2195 S   0  0  0  0  0  4  0  0  0  0  0  0
    8.3554   -1.7462   20.5512 O   0  0  0  0  0  0  0  0  0  0  0  0
    7.9896    0.4203   21.8517 O   0  0  0  0  0  0  0  0  0  0  0  0
    9.3464    0.7177   21.4366 C   0  0  0  0  0  0  0  0  0  0  0  0
    9.4513    1.7887   21.6441 H   0  0  0  0  0  0  0  0  0  0  0  0
    9.4234    0.5680   20.3516 H   0  0  0  0  0  0  0  0  0  0  0  0
   10.3583   -0.0951   22.2406 C   0  0  0  0  0  0  0  0  0  0  0  0
   10.3864    0.3271   23.2505 H   0  0  0  0  0  0  0  0  0  0  0  0
   10.0077   -1.1308   22.3382 H   0  0  0  0  0  0  0  0  0  0  0  0
   11.7584   -0.0519   21.6394 C   0  0  0  0  0  0  0  0  0  0  0  0
   12.4954   -0.4118   22.3644 H   0  0  0  0  0  0  0  0  0  0  0  0
   12.0358    0.9695   21.3410 H   0  0  0  0  0  0  0  0  0  0  0  0
   11.8352   -0.6949   20.7555 H   0  0  0  0  0  0  0  0  0  0  0  0
    5.2806    0.6327   20.1310 C   0  0  0  0  0  0  0  0  0  0  0  0
    4.7975    0.6796   21.1119 H   0  0  0  0  0  0  0  0  0  0  0  0
    4.7705    1.3419   19.0398 C   0  0  0  0  0  0  0  0  0  0  0  0
    3.8775    1.9512   19.1287 H   0  0  0  0  0  0  0  0  0  0  0  0
  1  2  1  0
  2  3  2  0
  3  4  1  0
  4  5  1  0
  4  6  2  0
  6  7  1  0
  7  8  2  0
  7  9  1  1
  9 10  1  0
 10 11  1  0
 10 12  1  0
 10 13  1  0
 13 14  1  0
 13 15  1  0
 13 16  1  0
 16 17  1  0
 16 18  1  0
 16 19  1  0
  6 20  1  0
 20 21  1  0
 20 22  2  0
 22 23  1  0
 22  2  1  0
M  END
>  <cnnaffinity>  (1) 
-3.8272

>  <filename>  (1) 
CCCO[S@](=O)c1cccnc1

$$$$
