
     RDKit          3D

 44 46  0  0  0  0  0  0  0  0999 V2000
   -1.2576   -2.0644   24.3929 C   0  0  0  0  0  0  0  0  0  0  0  0
    0.2312   -2.1399   24.0504 C   0  0  0  0  0  0  0  0  0  0  0  0
    1.1073   -2.5422   25.2316 C   0  0  0  0  0  0  0  0  0  0  0  0
    2.4815   -2.6276   24.8332 O   0  0  0  0  0  0  0  0  0  0  0  0
    2.9880   -3.8499   24.4657 C   0  0  0  0  0  0  0  0  0  0  0  0
    2.1786   -4.9493   24.1619 C   0  0  0  0  0  0  0  0  0  0  0  0
    2.7467   -6.1984   23.8925 C   0  0  0  0  0  0  0  0  0  0  0  0
    4.1280   -6.3429   23.9141 C   0  0  0  0  0  0  0  0  0  0  0  0
    4.8242   -7.9157   23.6800 Cl  0  0  0  0  0  0  0  0  0  0  0  0
    4.9602   -5.2504   24.1434 C   0  0  0  0  0  0  0  0  0  0  0  0
    4.4036   -3.9908   24.3716 C   0  0  0  0  0  0  0  0  0  0  0  0
    5.2367   -2.8511   24.4706 N   0  0  0  0  0  0  0  0  0  0  0  0
    6.5931   -2.8061   24.5768 C   0  0  0  0  0  0  0  0  0  0  0  0
    7.3040   -3.7859   24.6763 O   0  0  0  0  0  0  0  0  0  0  0  0
    7.2367   -1.4397   24.5078 C   0  0  0  0  0  0  0  0  0  0  0  0
    7.7114   -1.2888   23.1023 C   0  0  0  0  0  0  0  0  0  0  0  0
    8.8244   -1.8483   22.5628 C   0  0  0  0  0  0  0  0  0  0  0  0
    8.8589   -1.5761   20.8666 S   0  0  0  0  0  0  0  0  0  0  0  0
    7.3500   -0.7041   21.0066 C   0  0  0  0  0  0  0  0  0  0  0  0
    6.6505   -0.0675   19.8842 C   0  0  0  0  0  0  0  0  0  0  0  0
    5.4293    0.6005   20.0914 C   0  0  0  0  0  0  0  0  0  0  0  0
    4.8609    1.2908   19.0257 C   0  0  0  0  0  0  0  0  0  0  0  0
    5.5104    1.2655   17.7867 C   0  0  0  0  0  0  0  0  0  0  0  0
    6.6440    0.5842   17.5596 N   0  0  0  0  0  0  0  0  0  0  0  0
    7.1948   -0.0640   18.5914 C   0  0  0  0  0  0  0  0  0  0  0  0
    8.1189   -0.6010   18.3769 H   0  0  0  0  0  0  0  0  0  0  0  0
    5.1047    1.8159   16.9403 H   0  0  0  0  0  0  0  0  0  0  0  0
    3.9490    1.8658   19.1479 H   0  0  0  0  0  0  0  0  0  0  0  0
    4.9589    0.5809   21.0755 H   0  0  0  0  0  0  0  0  0  0  0  0
    6.8840   -0.6643   22.2228 N   0  0  0  0  0  0  0  0  0  0  0  0
    9.5810   -2.4093   23.0885 H   0  0  0  0  0  0  0  0  0  0  0  0
    6.5414   -0.6389   24.7553 H   0  0  0  0  0  0  0  0  0  0  0  0
    8.0756   -1.4611   25.2080 H   0  0  0  0  0  0  0  0  0  0  0  0
    4.7527   -1.9694   24.4366 H   0  0  0  0  0  0  0  0  0  0  0  0
    6.0325   -5.3730   24.1510 H   0  0  0  0  0  0  0  0  0  0  0  0
    2.1178   -7.0547   23.6870 H   0  0  0  0  0  0  0  0  0  0  0  0
    1.1020   -4.8230   24.1435 H   0  0  0  0  0  0  0  0  0  0  0  0
    1.0594   -1.7897   26.0230 H   0  0  0  0  0  0  0  0  0  0  0  0
    0.7744   -3.4815   25.6974 H   0  0  0  0  0  0  0  0  0  0  0  0
    0.3928   -2.8448   23.2222 H   0  0  0  0  0  0  0  0  0  0  0  0
    0.5827   -1.1544   23.7170 H   0  0  0  0  0  0  0  0  0  0  0  0
   -1.8366   -1.7046   23.5341 H   0  0  0  0  0  0  0  0  0  0  0  0
   -1.6579   -3.0431   24.6843 H   0  0  0  0  0  0  0  0  0  0  0  0
   -1.4388   -1.3794   25.2292 H   0  0  0  0  0  0  0  0  0  0  0  0
  1  2  1  0
  2  3  1  0
  3  4  1  0
  4  5  1  0
  5  6  2  0
  6  7  1  0
  7  8  2  0
  8  9  1  0
  8 10  1  0
 10 11  2  0
 11 12  1  0
 12 13  1  0
 13 14  2  0
 13 15  1  0
 15 16  1  0
 16 17  2  0
 17 18  1  0
 18 19  1  0
 19 20  1  0
 20 21  2  0
 21 22  1  0
 22 23  2  0
 23 24  1  0
 24 25  2  0
 25 26  1  0
 23 27  1  0
 22 28  1  0
 21 29  1  0
 19 30  2  0
 17 31  1  0
 15 32  1  0
 15 33  1  0
 12 34  1  0
 10 35  1  0
  7 36  1  0
  6 37  1  0
  3 38  1  0
  3 39  1  0
  2 40  1  0
  2 41  1  0
  1 42  1  0
  1 43  1  0
  1 44  1  0
 11  5  1  0
 30 16  1  0
 25 20  1  0
M  END
>  <cnnaffinity>  (1) 
-5.66315

>  <filename>  (1) 
CCCOc1ccc(Cl)cc1NC(=O)Cc1csc(-c2cccnc2)n1

$$$$
