
     RDKit          3D

 30 31  0  0  0  0  0  0  0  0999 V2000
    4.9208    1.7841   16.9893 H   0  0  0  0  0  0  0  0  0  0  0  0
    5.3998    1.2949   17.8339 C   0  0  0  0  0  0  0  0  0  0  0  0
    6.5623    0.6744   17.5773 N   0  0  0  0  0  0  0  0  0  0  0  0
    7.1677    0.0664   18.6054 C   0  0  0  0  0  0  0  0  0  0  0  0
    8.1104   -0.4258   18.3707 H   0  0  0  0  0  0  0  0  0  0  0  0
    6.6490    0.0056   19.9086 C   0  0  0  0  0  0  0  0  0  0  0  0
    7.3652   -0.7180   20.9792 C   0  0  0  0  0  0  0  0  0  0  0  0
    8.7532   -0.5818   21.1388 C   0  0  0  0  0  0  0  0  0  0  0  0
    9.3149    0.0676   20.4837 H   0  0  0  0  0  0  0  0  0  0  0  0
    9.3659   -1.2657   22.1731 C   0  0  0  0  0  0  0  0  0  0  0  0
   10.4384   -1.1644   22.3094 H   0  0  0  0  0  0  0  0  0  0  0  0
    8.7338   -2.0799   23.0371 N   0  0  0  0  0  0  0  0  0  0  0  0
    7.4231   -2.1994   22.8766 C   0  0  0  0  0  0  0  0  0  0  0  0
    6.6906   -2.9711   23.6987 O   0  0  0  0  0  0  0  0  0  0  0  0
    7.3130   -3.7582   24.7210 C   0  0  0  0  0  0  0  0  0  0  0  0
    6.4898   -4.0300   25.3835 H   0  0  0  0  0  0  0  0  0  0  0  0
    8.0192   -3.1533   25.2976 H   0  0  0  0  0  0  0  0  0  0  0  0
    7.9677   -5.0174   24.1698 C   0  0  0  0  0  0  0  0  0  0  0  0
    8.7371   -4.7239   23.4495 H   0  0  0  0  0  0  0  0  0  0  0  0
    7.2180   -5.5980   23.6192 H   0  0  0  0  0  0  0  0  0  0  0  0
    8.5883   -5.8825   25.2701 C   0  0  0  0  0  0  0  0  0  0  0  0
    9.3517   -5.3354   25.8355 H   0  0  0  0  0  0  0  0  0  0  0  0
    7.8419   -6.2485   25.9880 H   0  0  0  0  0  0  0  0  0  0  0  0
    9.0918   -6.7514   24.8415 H   0  0  0  0  0  0  0  0  0  0  0  0
    6.6974   -1.5426   21.8670 C   0  0  0  0  0  0  0  0  0  0  0  0
    5.6342   -1.7052   21.7907 H   0  0  0  0  0  0  0  0  0  0  0  0
    5.4277    0.6521   20.1513 C   0  0  0  0  0  0  0  0  0  0  0  0
    5.0058    0.6422   21.1591 H   0  0  0  0  0  0  0  0  0  0  0  0
    4.8023    1.3176   19.0992 C   0  0  0  0  0  0  0  0  0  0  0  0
    3.8717    1.8464   19.2519 H   0  0  0  0  0  0  0  0  0  0  0  0
  1  2  1  0
  2  3  2  0
  3  4  1  0
  4  5  1  0
  4  6  2  0
  6  7  1  0
  7  8  2  0
  8  9  1  0
  8 10  1  0
 10 11  1  0
 10 12  2  0
 12 13  1  0
 13 14  1  0
 14 15  1  0
 15 16  1  0
 15 17  1  0
 15 18  1  0
 18 19  1  0
 18 20  1  0
 18 21  1  0
 21 22  1  0
 21 23  1  0
 21 24  1  0
 13 25  2  0
 25 26  1  0
  6 27  1  0
 27 28  1  0
 27 29  2  0
 29 30  1  0
 29  2  1  0
 25  7  1  0
M  END
>  <cnnaffinity>  (1) 
-4.59069

>  <filename>  (1) 
CCCOc1cc(-c2cccnc2)ccn1

$$$$
