
     RDKit          3D

 30 31  0  0  0  0  0  0  0  0999 V2000
    5.1902    1.8519   17.1124 H   0  0  0  0  0  0  0  0  0  0  0  0
    5.6181    1.2605   17.9192 C   0  0  0  0  0  0  0  0  0  0  0  0
    6.7828    0.6519   17.6537 N   0  0  0  0  0  0  0  0  0  0  0  0
    7.3536   -0.0607   18.6369 C   0  0  0  0  0  0  0  0  0  0  0  0
    8.2831   -0.5785   18.3993 H   0  0  0  0  0  0  0  0  0  0  0  0
    6.7835   -0.2126   19.9249 C   0  0  0  0  0  0  0  0  0  0  0  0
    7.4072   -0.9616   20.9672 N   0  0  0  0  0  0  0  0  0  0  0  0
    6.7215   -1.9257   21.7003 C   0  0  0  0  0  0  0  0  0  0  0  0
    5.6181   -2.3664   21.5070 O   0  0  0  0  0  0  0  0  0  0  0  0
    7.5683   -2.3835   22.6779 N   0  0  0  0  0  0  0  0  0  0  0  0
    7.3083   -3.1841   23.2197 H   0  0  0  0  0  0  0  0  0  0  0  0
    8.7870   -1.7832   22.6764 C   0  0  0  0  0  0  0  0  0  0  0  0
    9.7075   -2.0692   23.3999 O   0  0  0  0  0  0  0  0  0  0  0  0
    8.7451   -0.7471   21.5257 C   0  0  2  0  0  0  0  0  0  0  0  0
    9.5249   -1.0270   20.8015 H   0  0  0  0  0  0  0  0  0  0  0  0
    8.9286    0.5446   22.0184 O   0  0  0  0  0  0  0  0  0  0  0  0
    9.8237    1.3593   21.2585 C   0  0  0  0  0  0  0  0  0  0  0  0
    9.6532    1.1485   20.1941 H   0  0  0  0  0  0  0  0  0  0  0  0
    9.5067    2.3875   21.4622 H   0  0  0  0  0  0  0  0  0  0  0  0
   11.3105    1.1746   21.5911 C   0  0  0  0  0  0  0  0  0  0  0  0
   11.5915    0.1297   21.3938 H   0  0  0  0  0  0  0  0  0  0  0  0
   11.8697    1.7876   20.8706 H   0  0  0  0  0  0  0  0  0  0  0  0
   11.7334    1.5612   23.0090 C   0  0  0  0  0  0  0  0  0  0  0  0
   12.8064    1.3905   23.1399 H   0  0  0  0  0  0  0  0  0  0  0  0
   11.5491    2.6207   23.2193 H   0  0  0  0  0  0  0  0  0  0  0  0
   11.2103    0.9738   23.7707 H   0  0  0  0  0  0  0  0  0  0  0  0
    5.5305    0.3702   20.1582 C   0  0  0  0  0  0  0  0  0  0  0  0
    5.0279    0.1863   21.1102 H   0  0  0  0  0  0  0  0  0  0  0  0
    4.9576    1.1462   19.1480 C   0  0  0  0  0  0  0  0  0  0  0  0
    4.0111    1.6508   19.2974 H   0  0  0  0  0  0  0  0  0  0  0  0
  1  2  1  0
  2  3  2  0
  3  4  1  0
  4  5  1  0
  4  6  2  0
  6  7  1  0
  7  8  1  0
  8  9  2  0
  8 10  1  0
 10 11  1  0
 10 12  1  0
 12 13  2  0
 12 14  1  0
 14 15  1  6
 14 16  1  0
 16 17  1  0
 17 18  1  0
 17 19  1  0
 17 20  1  0
 20 21  1  0
 20 22  1  0
 20 23  1  0
 23 24  1  0
 23 25  1  0
 23 26  1  0
  6 27  1  0
 27 28  1  0
 27 29  2  0
 29 30  1  0
 29  2  1  0
 14  7  1  0
M  END
>  <cnnaffinity>  (1) 
-4.56469

>  <filename>  (1) 
CCCO[C@H]1C(=O)NC(=O)N1c1cccnc1

$$$$
