
     RDKit          3D

 34 35  0  0  0  0  0  0  0  0999 V2000
    9.2250   -1.9700   20.8276 C   0  0  0  0  0  0  0  0  0  0  0  0
    7.7000   -1.9967   20.9423 C   0  0  0  0  0  0  0  0  0  0  0  0
    7.1612   -0.6445   21.1679 N   0  0  0  0  0  0  0  0  0  0  0  0
    7.3434   -0.1330   22.4572 C   0  0  0  0  0  0  0  0  0  0  0  0
    7.4556   -0.8701   23.4217 O   0  0  0  0  0  0  0  0  0  0  0  0
    7.4630    1.3889   22.6160 C   0  0  0  0  0  0  0  0  0  0  0  0
    8.0249    2.2248   21.6205 C   0  0  0  0  0  0  0  0  0  0  0  0
    8.0915    3.5887   21.8507 C   0  0  0  0  0  0  0  0  0  0  0  0
    7.6765    4.1719   22.9667 N   0  0  0  0  0  0  0  0  0  0  0  0
    7.1987    3.3935   23.9135 C   0  0  0  0  0  0  0  0  0  0  0  0
    6.8171    3.9637   25.0931 O   0  0  0  0  0  0  0  0  0  0  0  0
    7.0298    5.3115   25.2561 C   0  0  0  0  0  0  0  0  0  0  0  0
    6.4064    6.0485   24.3401 F   0  0  0  0  0  0  0  0  0  0  0  0
    6.5285    5.6223   26.4494 F   0  0  0  0  0  0  0  0  0  0  0  0
    8.3276    5.6260   25.2618 F   0  0  0  0  0  0  0  0  0  0  0  0
    7.0771    2.0030   23.8123 C   0  0  0  0  0  0  0  0  0  0  0  0
    6.7581    1.4368   24.6777 H   0  0  0  0  0  0  0  0  0  0  0  0
    8.5142    4.2487   21.1052 H   0  0  0  0  0  0  0  0  0  0  0  0
    8.4031    1.8476   20.6815 H   0  0  0  0  0  0  0  0  0  0  0  0
    6.5771    0.0604   20.0623 C   0  0  0  0  0  0  0  0  0  0  0  0
    5.3846    0.7823   20.2222 C   0  0  0  0  0  0  0  0  0  0  0  0
    4.8111    1.3934   19.1023 C   0  0  0  0  0  0  0  0  0  0  0  0
    5.4630    1.3050   17.8678 C   0  0  0  0  0  0  0  0  0  0  0  0
    6.6191    0.6458   17.6949 N   0  0  0  0  0  0  0  0  0  0  0  0
    7.1483    0.0363   18.7655 C   0  0  0  0  0  0  0  0  0  0  0  0
    8.0766   -0.5075   18.5921 H   0  0  0  0  0  0  0  0  0  0  0  0
    5.0522    1.7903   16.9859 H   0  0  0  0  0  0  0  0  0  0  0  0
    3.8797    1.9463   19.1758 H   0  0  0  0  0  0  0  0  0  0  0  0
    4.9362    0.8742   21.2120 H   0  0  0  0  0  0  0  0  0  0  0  0
    7.3916   -2.6250   21.7837 H   0  0  0  0  0  0  0  0  0  0  0  0
    7.2021   -2.3981   20.0559 H   0  0  0  0  0  0  0  0  0  0  0  0
    9.5615   -1.1939   20.1294 H   0  0  0  0  0  0  0  0  0  0  0  0
    9.6617   -1.7454   21.8047 H   0  0  0  0  0  0  0  0  0  0  0  0
    9.6264   -2.9348   20.5063 H   0  0  0  0  0  0  0  0  0  0  0  0
  1  2  1  0
  2  3  1  0
  3  4  1  0
  4  5  2  0
  4  6  1  0
  6  7  2  0
  7  8  1  0
  8  9  2  0
  9 10  1  0
 10 11  1  0
 11 12  1  0
 12 13  1  0
 12 14  1  0
 12 15  1  0
 10 16  2  0
 16 17  1  0
  8 18  1  0
  7 19  1  0
  3 20  1  0
 20 21  2  0
 21 22  1  0
 22 23  2  0
 23 24  1  0
 24 25  2  0
 25 26  1  0
 23 27  1  0
 22 28  1  0
 21 29  1  0
  2 30  1  0
  2 31  1  0
  1 32  1  0
  1 33  1  0
  1 34  1  0
 16  6  1  0
 25 20  1  0
M  END
>  <cnnaffinity>  (1) 
-4.97752

>  <filename>  (1) 
CCN(C(=O)c1ccnc(OC(F)(F)F)c1)c1cccnc1

$$$$
