
     RDKit          3D

 42 43  0  0  0  0  0  0  0  0999 V2000
    9.4928   -1.7935   20.7973 C   0  0  0  0  0  0  0  0  0  0  0  0
    8.7614   -0.5158   21.2007 C   0  0  0  0  0  0  0  0  0  0  0  0
    7.3073   -0.6353   21.0325 N   0  0  0  0  0  0  0  0  0  0  0  0
    6.6000   -1.5840   21.8069 C   0  0  0  0  0  0  0  0  0  0  0  0
    5.7599   -2.3245   21.3413 O   0  0  0  0  0  0  0  0  0  0  0  0
    6.9879   -1.5971   23.1494 N   0  0  0  0  0  0  0  0  0  0  0  0
    7.1197   -0.3769   23.9402 C   0  0  0  0  0  0  0  0  0  0  0  0
    8.1200   -0.2757   24.3911 H   0  0  0  0  0  0  0  0  0  0  0  0
    6.3873   -0.3758   24.7604 H   0  0  0  0  0  0  0  0  0  0  0  0
    6.9403    0.5056   23.3204 H   0  0  0  0  0  0  0  0  0  0  0  0
    7.0247   -2.8850   23.8440 C   0  0  0  0  0  0  0  0  0  0  0  0
    5.7056   -3.6597   23.8813 C   0  0  0  0  0  0  0  0  0  0  0  0
    4.6299   -3.1117   24.5906 C   0  0  0  0  0  0  0  0  0  0  0  0
    3.3881   -3.7466   24.6570 C   0  0  0  0  0  0  0  0  0  0  0  0
    3.2053   -4.9661   24.0081 C   0  0  0  0  0  0  0  0  0  0  0  0
    4.2633   -5.5472   23.3061 C   0  0  0  0  0  0  0  0  0  0  0  0
    5.5145   -4.9077   23.2459 C   0  0  0  0  0  0  0  0  0  0  0  0
    6.6654   -5.5797   22.5043 C   0  0  0  0  0  0  0  0  0  0  0  0
    7.7002   -5.8539   23.3317 F   0  0  0  0  0  0  0  0  0  0  0  0
    7.1680   -4.8010   21.5226 F   0  0  0  0  0  0  0  0  0  0  0  0
    6.3253   -6.7467   21.9307 F   0  0  0  0  0  0  0  0  0  0  0  0
    4.1191   -6.5047   22.8049 H   0  0  0  0  0  0  0  0  0  0  0  0
    2.2414   -5.4650   24.0393 H   0  0  0  0  0  0  0  0  0  0  0  0
    2.5757   -3.2889   25.2140 H   0  0  0  0  0  0  0  0  0  0  0  0
    4.7666   -2.1682   25.1101 H   0  0  0  0  0  0  0  0  0  0  0  0
    7.8151   -3.5134   23.4173 H   0  0  0  0  0  0  0  0  0  0  0  0
    7.3231   -2.6753   24.8798 H   0  0  0  0  0  0  0  0  0  0  0  0
    6.6555   -0.0039   19.9318 C   0  0  0  0  0  0  0  0  0  0  0  0
    5.4249    0.6334   20.1535 C   0  0  0  0  0  0  0  0  0  0  0  0
    4.8027    1.3010   19.0953 C   0  0  0  0  0  0  0  0  0  0  0  0
    5.4181    1.2851   17.8375 C   0  0  0  0  0  0  0  0  0  0  0  0
    6.5829    0.6633   17.5937 N   0  0  0  0  0  0  0  0  0  0  0  0
    7.1906    0.0536   18.6220 C   0  0  0  0  0  0  0  0  0  0  0  0
    8.1454   -0.4218   18.3947 H   0  0  0  0  0  0  0  0  0  0  0  0
    4.9619    1.7932   16.9904 H   0  0  0  0  0  0  0  0  0  0  0  0
    3.8682    1.8420   19.2338 H   0  0  0  0  0  0  0  0  0  0  0  0
    4.9771    0.6040   21.1465 H   0  0  0  0  0  0  0  0  0  0  0  0
    9.0077   -0.2244   22.2289 H   0  0  0  0  0  0  0  0  0  0  0  0
    9.1002    0.3094   20.5659 H   0  0  0  0  0  0  0  0  0  0  0  0
   10.5663   -1.6833   20.9725 H   0  0  0  0  0  0  0  0  0  0  0  0
    9.1589   -2.6960   21.3209 H   0  0  0  0  0  0  0  0  0  0  0  0
    9.3251   -1.9550   19.7327 H   0  0  0  0  0  0  0  0  0  0  0  0
  1  2  1  0
  2  3  1  0
  3  4  1  0
  4  5  2  0
  4  6  1  0
  6  7  1  0
  7  8  1  0
  7  9  1  0
  7 10  1  0
  6 11  1  0
 11 12  1  0
 12 13  2  0
 13 14  1  0
 14 15  2  0
 15 16  1  0
 16 17  2  0
 17 18  1  0
 18 19  1  0
 18 20  1  0
 18 21  1  0
 16 22  1  0
 15 23  1  0
 14 24  1  0
 13 25  1  0
 11 26  1  0
 11 27  1  0
  3 28  1  0
 28 29  2  0
 29 30  1  0
 30 31  2  0
 31 32  1  0
 32 33  2  0
 33 34  1  0
 31 35  1  0
 30 36  1  0
 29 37  1  0
  2 38  1  0
  2 39  1  0
  1 40  1  0
  1 41  1  0
  1 42  1  0
 17 12  1  0
 33 28  1  0
M  END
>  <cnnaffinity>  (1) 
-5.59423

>  <filename>  (1) 
CCN(C(=O)N(C)Cc1ccccc1C(F)(F)F)c1cccnc1

$$$$
