
     RDKit          3D

 40 41  0  0  0  0  0  0  0  0999 V2000
    4.9247    1.7973   16.9202 H   0  0  0  0  0  0  0  0  0  0  0  0
    5.3823    1.3332   17.7946 C   0  0  0  0  0  0  0  0  0  0  0  0
    6.5566    0.7070   17.5977 N   0  0  0  0  0  0  0  0  0  0  0  0
    7.1256    0.1268   18.6630 C   0  0  0  0  0  0  0  0  0  0  0  0
    8.0735   -0.3795   18.4702 H   0  0  0  0  0  0  0  0  0  0  0  0
    6.5976    0.1478   19.9692 C   0  0  0  0  0  0  0  0  0  0  0  0
    7.2954   -0.5333   21.0903 C   0  0  0  0  0  0  0  0  0  0  0  0
    7.7456   -1.8430   20.9161 C   0  0  0  0  0  0  0  0  0  0  0  0
    7.4026   -2.4050   20.0662 H   0  0  0  0  0  0  0  0  0  0  0  0
    8.5314   -2.4332   21.9005 C   0  0  0  0  0  0  0  0  0  0  0  0
    8.9478   -3.4190   21.7212 H   0  0  0  0  0  0  0  0  0  0  0  0
    8.8029   -1.8522   23.0747 N   0  0  0  0  0  0  0  0  0  0  0  0
    8.2335   -0.6590   23.3206 C   0  0  0  0  0  0  0  0  0  0  0  0
    8.4352   -0.1130   24.7042 C   0  0  0  0  0  0  0  0  0  0  0  0
    7.6112    0.5558   24.9806 H   0  0  0  0  0  0  0  0  0  0  0  0
    8.4545   -0.9478   25.4114 H   0  0  0  0  0  0  0  0  0  0  0  0
    9.7584    0.6498   24.7292 C   0  0  0  0  0  0  0  0  0  0  0  0
    9.9628    1.0323   25.7425 H   0  0  0  0  0  0  0  0  0  0  0  0
   10.5650   -0.0713   24.5177 H   0  0  0  0  0  0  0  0  0  0  0  0
    9.7130    1.7183   23.7280 N   0  0  0  0  0  0  0  0  0  0  0  0
   10.6918    1.5993   22.6471 C   0  0  0  0  0  0  0  0  0  0  0  0
   10.3922    2.2989   21.8528 H   0  0  0  0  0  0  0  0  0  0  0  0
   10.5995    0.5977   22.2040 H   0  0  0  0  0  0  0  0  0  0  0  0
   12.1377    1.8808   23.0668 C   0  0  0  0  0  0  0  0  0  0  0  0
   12.4242    1.2434   23.9134 H   0  0  0  0  0  0  0  0  0  0  0  0
   12.8291    1.6937   22.2386 H   0  0  0  0  0  0  0  0  0  0  0  0
   12.2469    2.9261   23.3824 H   0  0  0  0  0  0  0  0  0  0  0  0
    9.5734    3.0715   24.2549 C   0  0  0  0  0  0  0  0  0  0  0  0
   10.3690    3.3060   24.9823 H   0  0  0  0  0  0  0  0  0  0  0  0
    9.6973    3.7755   23.4212 H   0  0  0  0  0  0  0  0  0  0  0  0
    8.2185    3.3349   24.8977 C   0  0  0  0  0  0  0  0  0  0  0  0
    8.1807    4.3646   25.2701 H   0  0  0  0  0  0  0  0  0  0  0  0
    7.4144    3.2064   24.1635 H   0  0  0  0  0  0  0  0  0  0  0  0
    8.0318    2.6654   25.7443 H   0  0  0  0  0  0  0  0  0  0  0  0
    7.5378    0.0558   22.3321 C   0  0  0  0  0  0  0  0  0  0  0  0
    7.2020    1.0613   22.5452 H   0  0  0  0  0  0  0  0  0  0  0  0
    5.3675    0.7986   20.1425 C   0  0  0  0  0  0  0  0  0  0  0  0
    4.9110    0.8156   21.1326 H   0  0  0  0  0  0  0  0  0  0  0  0
    4.7491    1.3872   19.0389 C   0  0  0  0  0  0  0  0  0  0  0  0
    3.7907    1.8869   19.1313 H   0  0  0  0  0  0  0  0  0  0  0  0
  1  2  1  0
  2  3  2  0
  3  4  1  0
  4  5  1  0
  4  6  2  0
  6  7  1  0
  7  8  2  0
  8  9  1  0
  8 10  1  0
 10 11  1  0
 10 12  2  0
 12 13  1  0
 13 14  1  0
 14 15  1  0
 14 16  1  0
 14 17  1  0
 17 18  1  0
 17 19  1  0
 17 20  1  0
 20 21  1  0
 21 22  1  0
 21 23  1  0
 21 24  1  0
 24 25  1  0
 24 26  1  0
 24 27  1  0
 20 28  1  0
 28 29  1  0
 28 30  1  0
 28 31  1  0
 31 32  1  0
 31 33  1  0
 31 34  1  0
 13 35  2  0
 35 36  1  0
  6 37  1  0
 37 38  1  0
 37 39  2  0
 39 40  1  0
 39  2  1  0
 35  7  1  0
M  END
>  <cnnaffinity>  (1) 
-4.99793

>  <filename>  (1) 
CCN(CC)CCc1cc(-c2cccnc2)ccn1

$$$$
