
     RDKit          3D

 34 35  0  0  0  0  0  0  0  0999 V2000
    6.8325   -2.9624   21.0671 C   0  0  0  0  0  0  0  0  0  0  0  0
    6.7081   -1.5905   21.7141 C   0  0  0  0  0  0  0  0  0  0  0  0
    7.4401   -0.6273   20.8988 N   0  0  0  0  0  0  0  0  0  0  0  0
    8.7754   -0.3565   21.1914 C   0  0  0  0  0  0  0  0  0  0  0  0
    9.4098    0.4446   20.5050 O   0  0  0  0  0  0  0  0  0  0  0  0
    9.4228   -1.0306   22.4083 C   0  0  0  0  0  0  0  0  0  0  0  0
   10.9052   -0.8098   22.4447 C   0  0  0  0  0  0  0  0  0  0  0  0
   11.6758   -1.6646   21.6661 C   0  0  0  0  0  0  0  0  0  0  0  0
   13.0617   -1.5445   21.6259 C   0  0  0  0  0  0  0  0  0  0  0  0
   13.6809   -0.5237   22.3488 C   0  0  0  0  0  0  0  0  0  0  0  0
   12.9034    0.3946   23.0677 C   0  0  0  0  0  0  0  0  0  0  0  0
   11.5168    0.2460   23.1404 C   0  0  0  0  0  0  0  0  0  0  0  0
   10.3584    1.6935   24.4159 I   0  0  0  0  0  0  0  0  0  0  0  0
   13.3656    1.2283   23.5859 H   0  0  0  0  0  0  0  0  0  0  0  0
   14.7589   -0.4538   22.3671 H   0  0  0  0  0  0  0  0  0  0  0  0
   13.6537   -2.2625   21.0649 H   0  0  0  0  0  0  0  0  0  0  0  0
   11.1503   -2.4253   21.1135 H   0  0  0  0  0  0  0  0  0  0  0  0
    8.9683   -0.6534   23.3253 H   0  0  0  0  0  0  0  0  0  0  0  0
    9.2228   -2.1037   22.3606 H   0  0  0  0  0  0  0  0  0  0  0  0
    6.7479    0.0206   19.8523 C   0  0  0  0  0  0  0  0  0  0  0  0
    5.5034    0.5899   20.1124 C   0  0  0  0  0  0  0  0  0  0  0  0
    4.8461    1.2454   19.0734 C   0  0  0  0  0  0  0  0  0  0  0  0
    5.4326    1.3038   17.8030 C   0  0  0  0  0  0  0  0  0  0  0  0
    6.6205    0.7341   17.5289 N   0  0  0  0  0  0  0  0  0  0  0  0
    7.2636    0.1136   18.5389 C   0  0  0  0  0  0  0  0  0  0  0  0
    8.2155   -0.3704   18.3357 H   0  0  0  0  0  0  0  0  0  0  0  0
    4.9066    1.8145   17.0049 H   0  0  0  0  0  0  0  0  0  0  0  0
    3.8867    1.7181   19.2402 H   0  0  0  0  0  0  0  0  0  0  0  0
    5.0727    0.5260   21.1115 H   0  0  0  0  0  0  0  0  0  0  0  0
    5.6591   -1.2965   21.7689 H   0  0  0  0  0  0  0  0  0  0  0  0
    7.0987   -1.6199   22.7390 H   0  0  0  0  0  0  0  0  0  0  0  0
    7.8527   -3.3401   21.1947 H   0  0  0  0  0  0  0  0  0  0  0  0
    6.1381   -3.6647   21.5387 H   0  0  0  0  0  0  0  0  0  0  0  0
    6.5994   -2.8951   19.9966 H   0  0  0  0  0  0  0  0  0  0  0  0
  1  2  1  0
  2  3  1  0
  3  4  1  0
  4  5  2  0
  4  6  1  0
  6  7  1  0
  7  8  2  0
  8  9  1  0
  9 10  2  0
 10 11  1  0
 11 12  2  0
 12 13  1  0
 11 14  1  0
 10 15  1  0
  9 16  1  0
  8 17  1  0
  6 18  1  0
  6 19  1  0
  3 20  1  0
 20 21  2  0
 21 22  1  0
 22 23  2  0
 23 24  1  0
 24 25  2  0
 25 26  1  0
 23 27  1  0
 22 28  1  0
 21 29  1  0
  2 30  1  0
  2 31  1  0
  1 32  1  0
  1 33  1  0
  1 34  1  0
 12  7  1  0
 25 20  1  0
M  END
>  <cnnaffinity>  (1) 
-5.22853

>  <filename>  (1) 
CCN(C(=O)Cc1ccccc1I)c1cccnc1

$$$$
