
     RDKit          3D

 31 32  0  0  0  0  0  0  0  0999 V2000
    9.9572   -2.4606   21.8822 H   0  0  0  0  0  0  0  0  0  0  0  0
    9.0203   -1.9192   21.9180 C   0  0  0  0  0  0  0  0  0  0  0  0
    8.5559   -1.3360   20.7688 N   0  0  0  0  0  0  0  0  0  0  0  0
    7.4249   -0.7275   20.9687 C   0  0  0  0  0  0  0  0  0  0  0  0
    6.6727   -0.0056   19.9280 C   0  0  0  0  0  0  0  0  0  0  0  0
    7.1834    0.0493   18.6135 C   0  0  0  0  0  0  0  0  0  0  0  0
    8.1275   -0.4293   18.3717 H   0  0  0  0  0  0  0  0  0  0  0  0
    6.5722    0.6654   17.5961 N   0  0  0  0  0  0  0  0  0  0  0  0
    5.4099    1.2835   17.8491 C   0  0  0  0  0  0  0  0  0  0  0  0
    4.9315    1.7759   17.0026 H   0  0  0  0  0  0  0  0  0  0  0  0
    4.8164    1.3005   19.1156 C   0  0  0  0  0  0  0  0  0  0  0  0
    3.8853    1.8338   19.2613 H   0  0  0  0  0  0  0  0  0  0  0  0
    5.4478    0.6438   20.1726 C   0  0  0  0  0  0  0  0  0  0  0  0
    4.9996    0.6387   21.1674 H   0  0  0  0  0  0  0  0  0  0  0  0
    6.8370   -0.8357   22.6187 S   0  0  0  0  0  0  0  0  0  0  0  0
    8.2511   -1.7754   23.0496 C   0  0  0  0  0  0  0  0  0  0  0  0
    8.4703   -2.2546   24.3242 N   0  0  0  0  0  0  0  0  0  0  0  0
    7.6000   -1.8827   25.4353 C   0  0  0  0  0  0  0  0  0  0  0  0
    6.5514   -1.9269   25.1124 H   0  0  0  0  0  0  0  0  0  0  0  0
    7.7121   -2.6397   26.2218 H   0  0  0  0  0  0  0  0  0  0  0  0
    7.9410   -0.5050   25.9920 C   0  0  0  0  0  0  0  0  0  0  0  0
    7.8173    0.2561   25.2169 H   0  0  0  0  0  0  0  0  0  0  0  0
    7.2885   -0.2491   26.8334 H   0  0  0  0  0  0  0  0  0  0  0  0
    8.9794   -0.4710   26.3407 H   0  0  0  0  0  0  0  0  0  0  0  0
    9.6053   -3.1323   24.5858 C   0  0  0  0  0  0  0  0  0  0  0  0
    9.8073   -3.1270   25.6639 H   0  0  0  0  0  0  0  0  0  0  0  0
   10.5085   -2.7264   24.1098 H   0  0  0  0  0  0  0  0  0  0  0  0
    9.3413   -4.5588   24.1219 C   0  0  0  0  0  0  0  0  0  0  0  0
    9.1503   -4.5827   23.0447 H   0  0  0  0  0  0  0  0  0  0  0  0
    8.4623   -4.9719   24.6270 H   0  0  0  0  0  0  0  0  0  0  0  0
   10.1951   -5.2052   24.3481 H   0  0  0  0  0  0  0  0  0  0  0  0
  1  2  1  0
  2  3  1  0
  3  4  2  0
  4  5  1  0
  5  6  2  0
  6  7  1  0
  6  8  1  0
  8  9  2  0
  9 10  1  0
  9 11  1  0
 11 12  1  0
 11 13  2  0
 13 14  1  0
  4 15  1  0
 15 16  1  0
 16 17  1  0
 17 18  1  0
 18 19  1  0
 18 20  1  0
 18 21  1  0
 21 22  1  0
 21 23  1  0
 21 24  1  0
 17 25  1  0
 25 26  1  0
 25 27  1  0
 25 28  1  0
 28 29  1  0
 28 30  1  0
 28 31  1  0
 16  2  2  0
 13  5  1  0
M  END
>  <cnnaffinity>  (1) 
-4.66971

>  <filename>  (1) 
CCN(CC)c1cnc(-c2cccnc2)s1

$$$$
