
     RDKit          3D

 38 39  0  0  0  0  0  0  0  0999 V2000
    4.9946    1.7602   16.8953 H   0  0  0  0  0  0  0  0  0  0  0  0
    5.4362    1.2798   17.7682 C   0  0  0  0  0  0  0  0  0  0  0  0
    6.6020    0.6468   17.5642 N   0  0  0  0  0  0  0  0  0  0  0  0
    7.1678    0.0467   18.6207 C   0  0  0  0  0  0  0  0  0  0  0  0
    8.1177   -0.4473   18.4203 H   0  0  0  0  0  0  0  0  0  0  0  0
    6.6242    0.0591   19.9194 C   0  0  0  0  0  0  0  0  0  0  0  0
    7.3167   -0.5819   21.0503 C   0  0  0  0  0  0  0  0  0  0  0  0
    7.5058   -0.0019   22.2840 C   0  0  0  0  0  0  0  0  0  0  0  0
    7.1466    1.0061   22.4562 H   0  0  0  0  0  0  0  0  0  0  0  0
    8.1880   -0.7225   23.2987 C   0  0  0  0  0  0  0  0  0  0  0  0
    8.3477   -0.2346   24.2615 H   0  0  0  0  0  0  0  0  0  0  0  0
    8.6276   -2.0213   23.1069 C   0  0  0  0  0  0  0  0  0  0  0  0
    9.3523   -2.8486   24.1258 C   0  0  0  0  0  0  0  0  0  0  0  0
   10.2067   -3.3456   23.6432 H   0  0  0  0  0  0  0  0  0  0  0  0
    9.7793   -2.1782   24.9019 H   0  0  0  0  0  0  0  0  0  0  0  0
    8.5435   -3.9140   24.7187 N   0  0  0  0  0  0  0  0  0  0  0  0
    9.2992   -4.7566   25.6583 C   0  0  0  0  0  0  0  0  0  0  0  0
    8.5682   -5.2741   26.2925 H   0  0  0  0  0  0  0  0  0  0  0  0
    9.9361   -4.1537   26.3393 H   0  0  0  0  0  0  0  0  0  0  0  0
   10.1702   -5.8405   25.0243 C   0  0  0  0  0  0  0  0  0  0  0  0
   10.4319   -6.5702   25.8026 H   0  0  0  0  0  0  0  0  0  0  0  0
   11.1144   -5.4522   24.6165 H   0  0  0  0  0  0  0  0  0  0  0  0
    9.6181   -6.3835   24.2513 H   0  0  0  0  0  0  0  0  0  0  0  0
    7.2508   -3.4788   25.2647 C   0  0  0  0  0  0  0  0  0  0  0  0
    6.7538   -2.8674   24.5014 H   0  0  0  0  0  0  0  0  0  0  0  0
    6.6283   -4.3783   25.3727 H   0  0  0  0  0  0  0  0  0  0  0  0
    7.2849   -2.7086   26.5908 C   0  0  0  0  0  0  0  0  0  0  0  0
    7.8658   -3.2366   27.3561 H   0  0  0  0  0  0  0  0  0  0  0  0
    6.2649   -2.5924   26.9688 H   0  0  0  0  0  0  0  0  0  0  0  0
    7.7142   -1.7084   26.4625 H   0  0  0  0  0  0  0  0  0  0  0  0
    8.3445   -2.6715   21.8336 C   0  0  0  0  0  0  0  0  0  0  0  0
    8.5403   -3.8304   21.5109 O   0  0  0  0  0  0  0  0  0  0  0  0
    7.8086   -1.8463   20.8524 N   0  0  0  0  0  0  0  0  0  0  0  0
    7.6401   -2.3796   20.0164 H   0  0  0  0  0  0  0  0  0  0  0  0
    5.4011    0.7281   20.1086 C   0  0  0  0  0  0  0  0  0  0  0  0
    4.9331    0.7561   21.0951 H   0  0  0  0  0  0  0  0  0  0  0  0
    4.7913    1.3360   19.0078 C   0  0  0  0  0  0  0  0  0  0  0  0
    3.8484    1.8674   19.1047 H   0  0  0  0  0  0  0  0  0  0  0  0
  1  2  1  0
  2  3  2  0
  3  4  1  0
  4  5  1  0
  4  6  2  0
  6  7  1  0
  7  8  2  0
  8  9  1  0
  8 10  1  0
 10 11  1  0
 10 12  2  0
 12 13  1  0
 13 14  1  0
 13 15  1  0
 13 16  1  0
 16 17  1  0
 17 18  1  0
 17 19  1  0
 17 20  1  0
 20 21  1  0
 20 22  1  0
 20 23  1  0
 16 24  1  0
 24 25  1  0
 24 26  1  0
 24 27  1  0
 27 28  1  0
 27 29  1  0
 27 30  1  0
 12 31  1  0
 31 32  2  0
 31 33  1  0
 33 34  1  0
  6 35  1  0
 35 36  1  0
 35 37  2  0
 37 38  1  0
 37  2  1  0
 33  7  1  0
M  END
>  <cnnaffinity>  (1) 
-5.20366

>  <filename>  (1) 
CCN(CC)Cc1ccc(-c2cccnc2)[nH]c1=O

$$$$
