
     RDKit          3D

 41 42  0  0  0  0  0  0  0  0999 V2000
    8.2151    0.7683   22.6718 C   0  0  0  0  0  0  0  0  0  0  0  0
    8.5435   -0.1141   21.4690 C   0  0  0  0  0  0  0  0  0  0  0  0
    7.3754   -0.7892   20.8925 N   0  0  0  0  0  0  0  0  0  0  0  0
    6.7183   -1.8411   21.5568 C   0  0  0  0  0  0  0  0  0  0  0  0
    5.5841   -2.1712   21.2574 O   0  0  0  0  0  0  0  0  0  0  0  0
    7.5074   -2.5819   22.5901 C   0  0  0  0  0  0  0  0  0  0  0  0
    6.9879   -3.2821   23.6188 C   0  0  0  0  0  0  0  0  0  0  0  0
    5.5396   -3.2504   24.0107 C   0  0  0  0  0  0  0  0  0  0  0  0
    5.3395   -2.2908   24.5080 H   0  0  0  0  0  0  0  0  0  0  0  0
    5.2894   -4.0610   24.7075 H   0  0  0  0  0  0  0  0  0  0  0  0
    4.8944   -3.3107   23.1339 H   0  0  0  0  0  0  0  0  0  0  0  0
    7.8932   -4.0181   24.5508 C   0  0  0  0  0  0  0  0  0  0  0  0
    7.6850   -5.4005   24.7173 C   0  0  0  0  0  0  0  0  0  0  0  0
    8.4930   -6.1469   25.5720 C   0  0  0  0  0  0  0  0  0  0  0  0
    9.5409   -5.5368   26.2540 C   0  0  0  0  0  0  0  0  0  0  0  0
    9.7141   -4.1677   26.1328 C   0  0  0  0  0  0  0  0  0  0  0  0
    8.8566   -3.3796   25.3614 C   0  0  0  0  0  0  0  0  0  0  0  0
    8.9214   -1.8675   25.4888 C   0  0  0  0  0  0  0  0  0  0  0  0
    9.6919   -1.3225   24.5218 F   0  0  0  0  0  0  0  0  0  0  0  0
    9.4220   -1.4594   26.6710 F   0  0  0  0  0  0  0  0  0  0  0  0
    7.6992   -1.2964   25.3987 F   0  0  0  0  0  0  0  0  0  0  0  0
   10.4978   -3.7165   26.6985 H   0  0  0  0  0  0  0  0  0  0  0  0
   10.1938   -6.1040   26.9082 H   0  0  0  0  0  0  0  0  0  0  0  0
    8.2970   -7.1885   25.7623 H   0  0  0  0  0  0  0  0  0  0  0  0
    6.8613   -5.8652   24.1822 H   0  0  0  0  0  0  0  0  0  0  0  0
    8.5790   -2.5720   22.4442 H   0  0  0  0  0  0  0  0  0  0  0  0
    6.6781   -0.0697   19.8492 C   0  0  0  0  0  0  0  0  0  0  0  0
    5.4582    0.5718   20.1013 C   0  0  0  0  0  0  0  0  0  0  0  0
    4.8480    1.2967   19.0692 C   0  0  0  0  0  0  0  0  0  0  0  0
    5.4621    1.3388   17.8132 C   0  0  0  0  0  0  0  0  0  0  0  0
    6.6267    0.7232   17.5486 N   0  0  0  0  0  0  0  0  0  0  0  0
    7.2196    0.0576   18.5501 C   0  0  0  0  0  0  0  0  0  0  0  0
    8.1677   -0.4264   18.3157 H   0  0  0  0  0  0  0  0  0  0  0  0
    5.0043    1.8832   16.9868 H   0  0  0  0  0  0  0  0  0  0  0  0
    3.9143    1.8284   19.2276 H   0  0  0  0  0  0  0  0  0  0  0  0
    5.0020    0.4890   21.0860 H   0  0  0  0  0  0  0  0  0  0  0  0
    9.2942   -0.8584   21.7512 H   0  0  0  0  0  0  0  0  0  0  0  0
    8.9985    0.4868   20.6716 H   0  0  0  0  0  0  0  0  0  0  0  0
    7.7905    0.1916   23.5005 H   0  0  0  0  0  0  0  0  0  0  0  0
    7.5085    1.5627   22.4108 H   0  0  0  0  0  0  0  0  0  0  0  0
    9.1320    1.2429   23.0348 H   0  0  0  0  0  0  0  0  0  0  0  0
  1  2  1  0
  2  3  1  0
  3  4  1  0
  4  5  2  0
  4  6  1  0
  6  7  2  3
  7  8  1  0
  8  9  1  0
  8 10  1  0
  8 11  1  0
  7 12  1  0
 12 13  2  0
 13 14  1  0
 14 15  2  0
 15 16  1  0
 16 17  2  0
 17 18  1  0
 18 19  1  0
 18 20  1  0
 18 21  1  0
 16 22  1  0
 15 23  1  0
 14 24  1  0
 13 25  1  0
  6 26  1  0
  3 27  1  0
 27 28  2  0
 28 29  1  0
 29 30  2  0
 30 31  1  0
 31 32  2  0
 32 33  1  0
 30 34  1  0
 29 35  1  0
 28 36  1  0
  2 37  1  0
  2 38  1  0
  1 39  1  0
  1 40  1  0
  1 41  1  0
 17 12  1  0
 32 27  1  0
M  END
>  <cnnaffinity>  (1) 
-5.58011

>  <filename>  (1) 
CCN(C(=O)C=C(C)c1ccccc1C(F)(F)F)c1cccnc1

$$$$
