
     RDKit          3D

 39 40  0  0  0  0  0  0  0  0999 V2000
    9.1637   -1.9680   20.9339 C   0  0  0  0  0  0  0  0  0  0  0  0
    7.6450   -1.8743   21.0362 C   0  0  0  0  0  0  0  0  0  0  0  0
    7.2389   -0.4728   21.1128 N   0  0  0  0  0  0  0  0  0  0  0  0
    7.3891    0.1995   22.3276 C   0  0  0  0  0  0  0  0  0  0  0  0
    7.8021   -0.3903   23.3185 O   0  0  0  0  0  0  0  0  0  0  0  0
    7.1654    1.5651   22.3931 N   0  0  0  0  0  0  0  0  0  0  0  0
    7.5372    2.3766   23.5567 C   0  0  0  0  0  0  0  0  0  0  0  0
    8.9599    2.0372   23.9710 C   0  0  0  0  0  0  0  0  0  0  0  0
   10.0252    2.3525   23.1126 C   0  0  0  0  0  0  0  0  0  0  0  0
   11.3148    1.8896   23.3610 C   0  0  0  0  0  0  0  0  0  0  0  0
   11.5671    1.1075   24.4805 C   0  0  0  0  0  0  0  0  0  0  0  0
   13.3245    0.4444   24.7603 Br  0  0  0  0  0  0  0  0  0  0  0  0
   10.5416    0.8603   25.3986 C   0  0  0  0  0  0  0  0  0  0  0  0
    9.2268    1.3260   25.1689 C   0  0  0  0  0  0  0  0  0  0  0  0
    8.1169    1.0576   26.1882 C   0  0  0  0  0  0  0  0  0  0  0  0
    8.5802    0.3571   27.2579 F   0  0  0  0  0  0  0  0  0  0  0  0
    7.5979    2.2295   26.6556 F   0  0  0  0  0  0  0  0  0  0  0  0
    7.1097    0.3339   25.6317 F   0  0  0  0  0  0  0  0  0  0  0  0
   10.7722    0.2837   26.2937 H   0  0  0  0  0  0  0  0  0  0  0  0
   12.1294    2.1280   22.6852 H   0  0  0  0  0  0  0  0  0  0  0  0
    9.8518    2.9249   22.2093 H   0  0  0  0  0  0  0  0  0  0  0  0
    6.8368    2.1818   24.3801 H   0  0  0  0  0  0  0  0  0  0  0  0
    7.4657    3.4459   23.3108 H   0  0  0  0  0  0  0  0  0  0  0  0
    7.1035    2.0204   21.4888 H   0  0  0  0  0  0  0  0  0  0  0  0
    6.6265    0.1154   19.9791 C   0  0  0  0  0  0  0  0  0  0  0  0
    5.4836    0.8985   20.1537 C   0  0  0  0  0  0  0  0  0  0  0  0
    4.9056    1.4862   19.0263 C   0  0  0  0  0  0  0  0  0  0  0  0
    5.4698    1.2842   17.7616 C   0  0  0  0  0  0  0  0  0  0  0  0
    6.5564    0.5129   17.5713 N   0  0  0  0  0  0  0  0  0  0  0  0
    7.1131   -0.0642   18.6576 C   0  0  0  0  0  0  0  0  0  0  0  0
    7.9962   -0.6816   18.5091 H   0  0  0  0  0  0  0  0  0  0  0  0
    5.0180    1.7643   16.9002 H   0  0  0  0  0  0  0  0  0  0  0  0
    4.0213    2.1059   19.1177 H   0  0  0  0  0  0  0  0  0  0  0  0
    5.0556    1.0238   21.1471 H   0  0  0  0  0  0  0  0  0  0  0  0
    7.3017   -2.4169   21.9259 H   0  0  0  0  0  0  0  0  0  0  0  0
    7.1750   -2.3503   20.1685 H   0  0  0  0  0  0  0  0  0  0  0  0
    9.6350   -1.5769   21.8429 H   0  0  0  0  0  0  0  0  0  0  0  0
    9.4598   -3.0132   20.8066 H   0  0  0  0  0  0  0  0  0  0  0  0
    9.5194   -1.3897   20.0745 H   0  0  0  0  0  0  0  0  0  0  0  0
  1  2  1  0
  2  3  1  0
  3  4  1  0
  4  5  2  0
  4  6  1  0
  6  7  1  0
  7  8  1  0
  8  9  2  0
  9 10  1  0
 10 11  2  0
 11 12  1  0
 11 13  1  0
 13 14  2  0
 14 15  1  0
 15 16  1  0
 15 17  1  0
 15 18  1  0
 13 19  1  0
 10 20  1  0
  9 21  1  0
  7 22  1  0
  7 23  1  0
  6 24  1  0
  3 25  1  0
 25 26  2  0
 26 27  1  0
 27 28  2  0
 28 29  1  0
 29 30  2  0
 30 31  1  0
 28 32  1  0
 27 33  1  0
 26 34  1  0
  2 35  1  0
  2 36  1  0
  1 37  1  0
  1 38  1  0
  1 39  1  0
 14  8  1  0
 30 25  1  0
M  END
>  <cnnaffinity>  (1) 
-5.43

>  <filename>  (1) 
CCN(C(=O)NCc1ccc(Br)cc1C(F)(F)F)c1cccnc1

$$$$
