
     RDKit          3D

 35 36  0  0  0  0  0  0  0  0999 V2000
    8.2714   -2.9257   26.0127 C   0  0  0  0  0  0  0  0  0  0  0  0
    8.7915   -1.5479   25.6218 C   0  0  0  0  0  0  0  0  0  0  0  0
    7.9421   -0.8816   24.6255 N   0  0  0  0  0  0  0  0  0  0  0  0
    8.1159   -1.2126   23.2843 C   0  0  0  0  0  0  0  0  0  0  0  0
    8.9080   -2.0831   22.9555 O   0  0  0  0  0  0  0  0  0  0  0  0
    7.3376   -0.4459   22.2707 C   0  0  0  0  0  0  0  0  0  0  0  0
    7.4178   -0.7189   20.9565 C   0  0  0  0  0  0  0  0  0  0  0  0
    6.6609    0.0013   19.9116 C   0  0  0  0  0  0  0  0  0  0  0  0
    5.4434    0.6579   20.1583 C   0  0  0  0  0  0  0  0  0  0  0  0
    4.8075    1.3106   19.1004 C   0  0  0  0  0  0  0  0  0  0  0  0
    5.4003    1.2949   17.8337 C   0  0  0  0  0  0  0  0  0  0  0  0
    6.5642    0.6766   17.5718 N   0  0  0  0  0  0  0  0  0  0  0  0
    7.1605    0.0556   18.5920 C   0  0  0  0  0  0  0  0  0  0  0  0
    8.1104   -0.4210   18.3577 H   0  0  0  0  0  0  0  0  0  0  0  0
    4.9193    1.7868   16.9911 H   0  0  0  0  0  0  0  0  0  0  0  0
    3.8750    1.8434   19.2541 H   0  0  0  0  0  0  0  0  0  0  0  0
    5.0008    0.6337   21.1569 H   0  0  0  0  0  0  0  0  0  0  0  0
    8.0887   -1.5101   20.6060 H   0  0  0  0  0  0  0  0  0  0  0  0
    6.7322    0.3821   22.6325 H   0  0  0  0  0  0  0  0  0  0  0  0
    6.8252   -0.1360   25.1026 C   0  0  0  0  0  0  0  0  0  0  0  0
    5.5398   -0.6984   25.0994 C   0  0  0  0  0  0  0  0  0  0  0  0
    4.4310    0.0281   25.5425 C   0  0  0  0  0  0  0  0  0  0  0  0
    4.5981    1.3283   26.0267 C   0  0  0  0  0  0  0  0  0  0  0  0
    5.8727    1.8980   26.0674 C   0  0  0  0  0  0  0  0  0  0  0  0
    6.9768    1.1684   25.6112 C   0  0  0  0  0  0  0  0  0  0  0  0
    8.5414    1.9213   25.6681 Cl  0  0  0  0  0  0  0  0  0  0  0  0
    6.0283    2.9043   26.4461 H   0  0  0  0  0  0  0  0  0  0  0  0
    3.7430    1.8991   26.3775 H   0  0  0  0  0  0  0  0  0  0  0  0
    3.4399   -0.4142   25.4952 H   0  0  0  0  0  0  0  0  0  0  0  0
    5.4153   -1.7061   24.7130 H   0  0  0  0  0  0  0  0  0  0  0  0
    8.8451   -0.8907   26.4931 H   0  0  0  0  0  0  0  0  0  0  0  0
    9.8036   -1.6220   25.2097 H   0  0  0  0  0  0  0  0  0  0  0  0
    7.2710   -2.8501   26.4539 H   0  0  0  0  0  0  0  0  0  0  0  0
    8.9320   -3.3978   26.7493 H   0  0  0  0  0  0  0  0  0  0  0  0
    8.2200   -3.5732   25.1326 H   0  0  0  0  0  0  0  0  0  0  0  0
  1  2  1  0
  2  3  1  0
  3  4  1  0
  4  5  2  0
  4  6  1  0
  6  7  2  3
  7  8  1  0
  8  9  2  0
  9 10  1  0
 10 11  2  0
 11 12  1  0
 12 13  2  0
 13 14  1  0
 11 15  1  0
 10 16  1  0
  9 17  1  0
  7 18  1  0
  6 19  1  0
  3 20  1  0
 20 21  2  0
 21 22  1  0
 22 23  2  0
 23 24  1  0
 24 25  2  0
 25 26  1  0
 24 27  1  0
 23 28  1  0
 22 29  1  0
 21 30  1  0
  2 31  1  0
  2 32  1  0
  1 33  1  0
  1 34  1  0
  1 35  1  0
 13  8  1  0
 25 20  1  0
M  END
>  <cnnaffinity>  (1) 
-5.05218

>  <filename>  (1) 
CCN(C(=O)C=Cc1cccnc1)c1ccccc1Cl

$$$$
