
     RDKit          3D

 32 33  0  0  0  0  0  0  0  0999 V2000
    4.9133    1.8110   16.9692 H   0  0  0  0  0  0  0  0  0  0  0  0
    5.3848    1.3057   17.8097 C   0  0  0  0  0  0  0  0  0  0  0  0
    6.5451    0.6838   17.5426 N   0  0  0  0  0  0  0  0  0  0  0  0
    7.1539    0.0569   18.5565 C   0  0  0  0  0  0  0  0  0  0  0  0
    8.1140   -0.4038   18.3249 H   0  0  0  0  0  0  0  0  0  0  0  0
    6.6504    0.0103   19.8738 C   0  0  0  0  0  0  0  0  0  0  0  0
    7.3623   -0.6598   20.9600 C   0  0  0  0  0  0  0  0  0  0  0  0
    7.4741   -0.3451   22.3049 C   0  0  0  0  0  0  0  0  0  0  0  0
    7.0952    0.8465   22.8854 N   0  0  0  0  0  0  0  0  0  0  0  0
    7.6157    2.1001   22.3497 C   0  0  0  0  0  0  0  0  0  0  0  0
    7.2323    2.2620   21.3304 H   0  0  0  0  0  0  0  0  0  0  0  0
    7.2000    2.9089   22.9678 H   0  0  0  0  0  0  0  0  0  0  0  0
    9.1466    2.1707   22.3337 C   0  0  0  0  0  0  0  0  0  0  0  0
    9.5612    1.4116   21.6599 H   0  0  0  0  0  0  0  0  0  0  0  0
    9.4768    3.1560   21.9881 H   0  0  0  0  0  0  0  0  0  0  0  0
    9.5616    2.0001   23.3356 H   0  0  0  0  0  0  0  0  0  0  0  0
    6.4307    0.8316   24.1747 C   0  0  0  0  0  0  0  0  0  0  0  0
    5.6951    1.6549   24.1803 H   0  0  0  0  0  0  0  0  0  0  0  0
    5.8672   -0.1059   24.2413 H   0  0  0  0  0  0  0  0  0  0  0  0
    7.3904    0.9830   25.3494 C   0  0  0  0  0  0  0  0  0  0  0  0
    8.1417    0.1849   25.3226 H   0  0  0  0  0  0  0  0  0  0  0  0
    7.9021    1.9537   25.3120 H   0  0  0  0  0  0  0  0  0  0  0  0
    6.8414    0.9302   26.2966 H   0  0  0  0  0  0  0  0  0  0  0  0
    8.0826   -1.3711   22.9835 N   0  0  0  0  0  0  0  0  0  0  0  0
    8.3604   -2.2651   22.0736 C   0  0  0  0  0  0  0  0  0  0  0  0
    8.8434   -3.2238   22.2315 H   0  0  0  0  0  0  0  0  0  0  0  0
    7.9651   -1.8862   20.8335 N   0  0  0  0  0  0  0  0  0  0  0  0
    7.9506   -2.4496   19.9999 H   0  0  0  0  0  0  0  0  0  0  0  0
    5.4321    0.6592   20.1266 C   0  0  0  0  0  0  0  0  0  0  0  0
    5.0245    0.6423   21.1377 H   0  0  0  0  0  0  0  0  0  0  0  0
    4.7931    1.3200   19.0778 C   0  0  0  0  0  0  0  0  0  0  0  0
    3.8649    1.8516   19.2354 H   0  0  0  0  0  0  0  0  0  0  0  0
  1  2  1  0
  2  3  2  0
  3  4  1  0
  4  5  1  0
  4  6  2  0
  6  7  1  0
  7  8  2  0
  8  9  1  0
  9 10  1  0
 10 11  1  0
 10 12  1  0
 10 13  1  0
 13 14  1  0
 13 15  1  0
 13 16  1  0
  9 17  1  0
 17 18  1  0
 17 19  1  0
 17 20  1  0
 20 21  1  0
 20 22  1  0
 20 23  1  0
  8 24  1  0
 24 25  2  0
 25 26  1  0
 25 27  1  0
 27 28  1  0
  6 29  1  0
 29 30  1  0
 29 31  2  0
 31 32  1  0
 31  2  1  0
 27  7  1  0
M  END
>  <cnnaffinity>  (1) 
-4.69823

>  <filename>  (1) 
CCN(CC)c1nc[nH]c1-c1cccnc1

$$$$
