
     RDKit          3D

 53 55  0  0  0  0  0  0  0  0999 V2000
    3.9503   -3.7120   26.2607 C   0  0  0  0  0  0  0  0  0  0  0  0
    4.0839   -3.2832   24.7993 C   0  0  0  0  0  0  0  0  0  0  0  0
    5.4560   -2.9157   24.4469 N   0  0  0  0  0  0  0  0  0  0  0  0
    6.1948   -3.6546   23.4119 C   0  0  0  0  0  0  0  0  0  0  0  0
    6.9602   -2.8859   22.2852 C   0  0  0  0  0  0  0  0  0  0  0  0
    7.9902   -3.3536   21.8398 O   0  0  0  0  0  0  0  0  0  0  0  0
    6.3779   -1.7425   21.7883 N   0  0  0  0  0  0  0  0  0  0  0  0
    7.2266   -0.7181   21.1785 C   0  0  0  0  0  0  0  0  0  0  0  0
    7.6639    0.2510   22.3032 C   0  0  0  0  0  0  0  0  0  0  0  0
    8.6097    1.3684   21.8642 C   0  0  0  0  0  0  0  0  0  0  0  0
    9.9653    0.8686   21.3489 C   0  0  0  0  0  0  0  0  0  0  0  0
   10.8705    2.0978   21.4971 C   0  0  0  0  0  0  0  0  0  0  0  0
   10.2769    2.9071   22.5074 O   0  0  0  0  0  0  0  0  0  0  0  0
    9.0914    2.2920   22.9873 C   0  0  0  0  0  0  0  0  0  0  0  0
    8.3872    3.0848   23.2585 H   0  0  0  0  0  0  0  0  0  0  0  0
    9.3135    1.7036   23.8967 H   0  0  0  0  0  0  0  0  0  0  0  0
   11.8935    1.8295   21.7942 H   0  0  0  0  0  0  0  0  0  0  0  0
   10.9337    2.6790   20.5683 H   0  0  0  0  0  0  0  0  0  0  0  0
   10.3337    0.0563   21.9942 H   0  0  0  0  0  0  0  0  0  0  0  0
    9.9010    0.4769   20.3318 H   0  0  0  0  0  0  0  0  0  0  0  0
    8.1239    1.9803   21.0857 H   0  0  0  0  0  0  0  0  0  0  0  0
    8.1546   -0.3569   23.0777 H   0  0  0  0  0  0  0  0  0  0  0  0
    6.7672    0.6759   22.7787 H   0  0  0  0  0  0  0  0  0  0  0  0
    6.5518   -0.0393   20.0025 C   0  0  0  0  0  0  0  0  0  0  0  0
    5.3663    0.6983   20.1264 C   0  0  0  0  0  0  0  0  0  0  0  0
    4.8449    1.3441   19.0049 C   0  0  0  0  0  0  0  0  0  0  0  0
    5.5198    1.2367   17.7859 C   0  0  0  0  0  0  0  0  0  0  0  0
    6.6547    0.5384   17.6379 N   0  0  0  0  0  0  0  0  0  0  0  0
    7.1469   -0.0714   18.7253 C   0  0  0  0  0  0  0  0  0  0  0  0
    8.0802   -0.6155   18.5645 H   0  0  0  0  0  0  0  0  0  0  0  0
    5.1391    1.7420   16.8992 H   0  0  0  0  0  0  0  0  0  0  0  0
    3.9358    1.9317   19.0682 H   0  0  0  0  0  0  0  0  0  0  0  0
    4.8656    0.7771   21.0930 H   0  0  0  0  0  0  0  0  0  0  0  0
    8.1160   -1.2346   20.7898 H   0  0  0  0  0  0  0  0  0  0  0  0
    5.6354   -1.3724   22.3717 H   0  0  0  0  0  0  0  0  0  0  0  0
    6.9634   -4.3175   23.8370 H   0  0  0  0  0  0  0  0  0  0  0  0
    5.4873   -4.3151   22.8883 H   0  0  0  0  0  0  0  0  0  0  0  0
    6.1161   -1.8733   25.1397 C   0  0  0  0  0  0  0  0  0  0  0  0
    7.4780   -1.9981   25.5015 C   0  0  0  0  0  0  0  0  0  0  0  0
    8.1829   -0.9149   26.0325 C   0  0  0  0  0  0  0  0  0  0  0  0
    7.5316    0.3073   26.2321 C   0  0  0  0  0  0  0  0  0  0  0  0
    6.1646    0.4269   25.9525 C   0  0  0  0  0  0  0  0  0  0  0  0
    5.4606   -0.6561   25.4164 C   0  0  0  0  0  0  0  0  0  0  0  0
    4.4070   -0.5687   25.1714 H   0  0  0  0  0  0  0  0  0  0  0  0
    5.6405    1.3577   26.1609 H   0  0  0  0  0  0  0  0  0  0  0  0
    8.0857    1.1636   26.6066 H   0  0  0  0  0  0  0  0  0  0  0  0
    9.2413   -1.0172   26.2765 H   0  0  0  0  0  0  0  0  0  0  0  0
    7.9726   -2.9542   25.3711 H   0  0  0  0  0  0  0  0  0  0  0  0
    3.7733   -4.0974   24.1285 H   0  0  0  0  0  0  0  0  0  0  0  0
    3.3895   -2.4529   24.5913 H   0  0  0  0  0  0  0  0  0  0  0  0
    2.9400   -4.0784   26.4811 H   0  0  0  0  0  0  0  0  0  0  0  0
    4.1636   -2.8580   26.9150 H   0  0  0  0  0  0  0  0  0  0  0  0
    4.6678   -4.5068   26.4889 H   0  0  0  0  0  0  0  0  0  0  0  0
  1  2  1  0
  2  3  1  0
  3  4  1  0
  4  5  1  0
  5  6  2  0
  5  7  1  0
  7  8  1  0
  8  9  1  0
  9 10  1  0
 10 11  1  0
 11 12  1  0
 12 13  1  0
 13 14  1  0
 14 15  1  0
 14 16  1  0
 12 17  1  0
 12 18  1  0
 11 19  1  0
 11 20  1  0
 10 21  1  0
  9 22  1  0
  9 23  1  0
  8 24  1  0
 24 25  2  0
 25 26  1  0
 26 27  2  0
 27 28  1  0
 28 29  2  0
 29 30  1  0
 27 31  1  0
 26 32  1  0
 25 33  1  0
  8 34  1  0
  7 35  1  0
  4 36  1  0
  4 37  1  0
  3 38  1  0
 38 39  2  0
 39 40  1  0
 40 41  2  0
 41 42  1  0
 42 43  2  0
 43 44  1  0
 42 45  1  0
 41 46  1  0
 40 47  1  0
 39 48  1  0
  2 49  1  0
  2 50  1  0
  1 51  1  0
  1 52  1  0
  1 53  1  0
 14 10  1  0
 29 24  1  0
 43 38  1  0
M  END
>  <cnnaffinity>  (1) 
-6.09608

>  <filename>  (1) 
CCN(CC(=O)NC(CC1CCOC1)c1cccnc1)c1ccccc1

$$$$
