
     RDKit          3D

 45 46  0  0  0  0  0  0  0  0999 V2000
   10.6426    0.5315   21.8114 C   0  0  0  0  0  0  0  0  0  0  0  0
    9.3214    1.0117   21.2213 C   0  0  0  0  0  0  0  0  0  0  0  0
    8.1682    0.3626   21.8438 N   0  0  0  0  0  0  0  0  0  0  0  0
    7.8619    0.5158   23.1801 C   0  0  0  0  0  0  0  0  0  0  0  0
    7.4026   -0.4107   23.8382 O   0  0  0  0  0  0  0  0  0  0  0  0
    8.1179    1.8308   23.8386 C   0  0  0  0  0  0  0  0  0  0  0  0
    8.7233    1.8817   25.0941 C   0  0  0  0  0  0  0  0  0  0  0  0
    8.8925    3.1004   25.7478 C   0  0  0  0  0  0  0  0  0  0  0  0
    8.4411    4.2806   25.1402 C   0  0  0  0  0  0  0  0  0  0  0  0
    8.5490    5.5245   25.6678 O   0  0  0  0  0  0  0  0  0  0  0  0
    9.1743    5.6851   26.9198 C   0  0  0  0  0  0  0  0  0  0  0  0
   10.2118    5.3304   26.8991 H   0  0  0  0  0  0  0  0  0  0  0  0
    9.1606    6.7545   27.1232 H   0  0  0  0  0  0  0  0  0  0  0  0
    8.6311    5.1550   27.7117 H   0  0  0  0  0  0  0  0  0  0  0  0
    7.7906    4.2432   23.9064 C   0  0  0  0  0  0  0  0  0  0  0  0
    7.6069    3.0200   23.2717 C   0  0  0  0  0  0  0  0  0  0  0  0
    6.9039    2.8692   22.1289 O   0  0  0  0  0  0  0  0  0  0  0  0
    6.3931    4.0039   21.4665 C   0  0  0  0  0  0  0  0  0  0  0  0
    5.5949    4.4865   22.0425 H   0  0  0  0  0  0  0  0  0  0  0  0
    7.1786    4.7442   21.2650 H   0  0  0  0  0  0  0  0  0  0  0  0
    5.9894    3.6299   20.5267 H   0  0  0  0  0  0  0  0  0  0  0  0
    7.4128    5.1683   23.4878 H   0  0  0  0  0  0  0  0  0  0  0  0
    9.3230    3.1376   26.7347 H   0  0  0  0  0  0  0  0  0  0  0  0
    9.0529    0.9580   25.5712 H   0  0  0  0  0  0  0  0  0  0  0  0
    7.3645   -0.6180   21.1014 C   0  0  0  0  0  0  0  0  0  0  0  0
    8.1578   -1.8620   20.7453 C   0  0  0  0  0  0  0  0  0  0  0  0
    7.4682   -2.5770   20.2913 H   0  0  0  0  0  0  0  0  0  0  0  0
    8.9830   -1.6609   20.0512 H   0  0  0  0  0  0  0  0  0  0  0  0
    8.5649   -2.3159   21.6521 H   0  0  0  0  0  0  0  0  0  0  0  0
    6.6524    0.0297   19.9301 C   0  0  0  0  0  0  0  0  0  0  0  0
    5.4331    0.6866   20.1521 C   0  0  0  0  0  0  0  0  0  0  0  0
    4.7996    1.3186   19.0831 C   0  0  0  0  0  0  0  0  0  0  0  0
    5.4132    1.2841   17.8256 C   0  0  0  0  0  0  0  0  0  0  0  0
    6.5696    0.6532   17.5850 N   0  0  0  0  0  0  0  0  0  0  0  0
    7.1695    0.0537   18.6262 C   0  0  0  0  0  0  0  0  0  0  0  0
    8.1144   -0.4374   18.3847 H   0  0  0  0  0  0  0  0  0  0  0  0
    4.9528    1.7900   16.9807 H   0  0  0  0  0  0  0  0  0  0  0  0
    3.8670    1.8602   19.2189 H   0  0  0  0  0  0  0  0  0  0  0  0
    5.0004    0.7151   21.1549 H   0  0  0  0  0  0  0  0  0  0  0  0
    6.5830   -0.9367   21.8078 H   0  0  0  0  0  0  0  0  0  0  0  0
    9.2879    0.8116   20.1480 H   0  0  0  0  0  0  0  0  0  0  0  0
    9.2416    2.1019   21.3205 H   0  0  0  0  0  0  0  0  0  0  0  0
   10.7423   -0.5568   21.7341 H   0  0  0  0  0  0  0  0  0  0  0  0
   10.7220    0.7966   22.8695 H   0  0  0  0  0  0  0  0  0  0  0  0
   11.4909    0.9852   21.2893 H   0  0  0  0  0  0  0  0  0  0  0  0
  1  2  1  0
  2  3  1  0
  3  4  1  0
  4  5  2  0
  4  6  1  0
  6  7  2  0
  7  8  1  0
  8  9  2  0
  9 10  1  0
 10 11  1  0
 11 12  1  0
 11 13  1  0
 11 14  1  0
  9 15  1  0
 15 16  2  0
 16 17  1  0
 17 18  1  0
 18 19  1  0
 18 20  1  0
 18 21  1  0
 15 22  1  0
  8 23  1  0
  7 24  1  0
  3 25  1  0
 25 26  1  0
 26 27  1  0
 26 28  1  0
 26 29  1  0
 25 30  1  0
 30 31  2  0
 31 32  1  0
 32 33  2  0
 33 34  1  0
 34 35  2  0
 35 36  1  0
 33 37  1  0
 32 38  1  0
 31 39  1  0
 25 40  1  0
  2 41  1  0
  2 42  1  0
  1 43  1  0
  1 44  1  0
  1 45  1  0
 16  6  1  0
 35 30  1  0
M  END
>  <cnnaffinity>  (1) 
-4.90594

>  <filename>  (1) 
CCN(C(=O)c1ccc(OC)cc1OC)C(C)c1cccnc1

$$$$
