
     RDKit          3D

 41 42  0  0  0  0  0  0  0  0999 V2000
    8.8595   -1.6385   23.8401 C   0  0  0  0  0  0  0  0  0  0  0  0
    7.4328   -1.3236   23.4022 C   0  0  0  0  0  0  0  0  0  0  0  0
    7.3432   -0.3347   22.3124 N   0  0  0  0  0  0  0  0  0  0  0  0
    7.3504    1.0837   22.7071 C   0  0  0  0  0  0  0  0  0  0  0  0
    6.1426    1.5403   23.5778 C   0  0  0  0  0  0  0  0  0  0  0  0
    5.0193    1.6851   23.1282 O   0  0  0  0  0  0  0  0  0  0  0  0
    6.4512    1.7505   24.8907 N   0  0  0  0  0  0  0  0  0  0  0  0
    5.5407    1.8884   25.9526 C   0  0  0  0  0  0  0  0  0  0  0  0
    4.2839    1.2779   25.9286 C   0  0  0  0  0  0  0  0  0  0  0  0
    3.4244    1.4294   27.0212 C   0  0  0  0  0  0  0  0  0  0  0  0
    3.8086    2.2061   28.1172 C   0  0  0  0  0  0  0  0  0  0  0  0
    5.0600    2.8169   28.1390 C   0  0  0  0  0  0  0  0  0  0  0  0
    5.9437    2.6494   27.0666 C   0  0  0  0  0  0  0  0  0  0  0  0
    7.2926    3.3147   27.0727 C   0  0  0  0  0  0  0  0  0  0  0  0
    7.4476    4.2006   26.0679 F   0  0  0  0  0  0  0  0  0  0  0  0
    8.2984    2.4066   26.9250 F   0  0  0  0  0  0  0  0  0  0  0  0
    7.5337    3.9808   28.2149 F   0  0  0  0  0  0  0  0  0  0  0  0
    5.3580    3.4384   28.9834 H   0  0  0  0  0  0  0  0  0  0  0  0
    3.1309    2.3532   28.9508 H   0  0  0  0  0  0  0  0  0  0  0  0
    2.4469    0.9519   27.0081 H   0  0  0  0  0  0  0  0  0  0  0  0
    4.0023    0.7084   25.0495 H   0  0  0  0  0  0  0  0  0  0  0  0
    7.4216    1.7938   25.1358 H   0  0  0  0  0  0  0  0  0  0  0  0
    7.3746    1.7172   21.8179 H   0  0  0  0  0  0  0  0  0  0  0  0
    8.2763    1.3138   23.2530 H   0  0  0  0  0  0  0  0  0  0  0  0
    7.3552   -0.7855   21.0017 C   0  0  0  0  0  0  0  0  0  0  0  0
    7.8545   -1.8567   20.6953 O   0  0  0  0  0  0  0  0  0  0  0  0
    6.7023    0.0772   19.9662 C   0  0  0  0  0  0  0  0  0  0  0  0
    5.5597    0.8681   20.1554 C   0  0  0  0  0  0  0  0  0  0  0  0
    4.9979    1.4908   19.0442 C   0  0  0  0  0  0  0  0  0  0  0  0
    5.5816    1.2958   17.7888 C   0  0  0  0  0  0  0  0  0  0  0  0
    6.6854    0.5565   17.6029 N   0  0  0  0  0  0  0  0  0  0  0  0
    7.2238   -0.0333   18.6724 C   0  0  0  0  0  0  0  0  0  0  0  0
    8.1276   -0.6114   18.4983 H   0  0  0  0  0  0  0  0  0  0  0  0
    5.1322    1.7424   16.9044 H   0  0  0  0  0  0  0  0  0  0  0  0
    4.1413    2.1435   19.1524 H   0  0  0  0  0  0  0  0  0  0  0  0
    5.1045    1.0044   21.1388 H   0  0  0  0  0  0  0  0  0  0  0  0
    6.9349   -2.2440   23.0711 H   0  0  0  0  0  0  0  0  0  0  0  0
    6.8468   -0.9269   24.2440 H   0  0  0  0  0  0  0  0  0  0  0  0
    9.3828   -0.7658   24.2536 H   0  0  0  0  0  0  0  0  0  0  0  0
    9.4313   -2.0394   22.9984 H   0  0  0  0  0  0  0  0  0  0  0  0
    8.8374   -2.4002   24.6259 H   0  0  0  0  0  0  0  0  0  0  0  0
  1  2  1  0
  2  3  1  0
  3  4  1  0
  4  5  1  0
  5  6  2  0
  5  7  1  0
  7  8  1  0
  8  9  2  0
  9 10  1  0
 10 11  2  0
 11 12  1  0
 12 13  2  0
 13 14  1  0
 14 15  1  0
 14 16  1  0
 14 17  1  0
 12 18  1  0
 11 19  1  0
 10 20  1  0
  9 21  1  0
  7 22  1  0
  4 23  1  0
  4 24  1  0
  3 25  1  0
 25 26  2  0
 25 27  1  0
 27 28  2  0
 28 29  1  0
 29 30  2  0
 30 31  1  0
 31 32  2  0
 32 33  1  0
 30 34  1  0
 29 35  1  0
 28 36  1  0
  2 37  1  0
  2 38  1  0
  1 39  1  0
  1 40  1  0
  1 41  1  0
 13  8  1  0
 32 27  1  0
M  END
>  <cnnaffinity>  (1) 
-4.93301

>  <filename>  (1) 
CCN(CC(=O)Nc1ccccc1C(F)(F)F)C(=O)c1cccnc1

$$$$
