
     RDKit          3D

 32 33  0  0  0  0  0  0  0  0999 V2000
    4.9209    1.7768   17.0004 H   0  0  0  0  0  0  0  0  0  0  0  0
    5.4067    1.2877   17.8459 C   0  0  0  0  0  0  0  0  0  0  0  0
    6.5742    0.6700   17.5981 N   0  0  0  0  0  0  0  0  0  0  0  0
    7.1849    0.0478   18.6114 C   0  0  0  0  0  0  0  0  0  0  0  0
    8.1290   -0.4342   18.3742 H   0  0  0  0  0  0  0  0  0  0  0  0
    6.6673   -0.0040   19.9192 C   0  0  0  0  0  0  0  0  0  0  0  0
    7.3661   -0.6896   20.9554 N   0  0  0  0  0  0  0  0  0  0  0  0
    8.2791   -1.6387   20.6731 N   0  0  0  0  0  0  0  0  0  0  0  0
    8.7272   -2.0460   21.8491 C   0  0  0  0  0  0  0  0  0  0  0  0
    9.4775   -2.8191   21.9112 H   0  0  0  0  0  0  0  0  0  0  0  0
    8.1223   -1.3490   22.9399 C   0  0  0  0  0  0  0  0  0  0  0  0
    8.3874   -1.4393   24.3051 N   0  0  0  0  0  0  0  0  0  0  0  0
    7.5969   -0.6533   25.2424 C   0  0  0  0  0  0  0  0  0  0  0  0
    7.5796    0.3883   24.8966 H   0  0  0  0  0  0  0  0  0  0  0  0
    8.1225   -0.6367   26.2033 H   0  0  0  0  0  0  0  0  0  0  0  0
    6.1744   -1.1600   25.4591 C   0  0  0  0  0  0  0  0  0  0  0  0
    5.6273   -0.5093   26.1505 H   0  0  0  0  0  0  0  0  0  0  0  0
    6.1801   -2.1733   25.8724 H   0  0  0  0  0  0  0  0  0  0  0  0
    5.6301   -1.1889   24.5145 H   0  0  0  0  0  0  0  0  0  0  0  0
    9.3356   -2.4270   24.7980 C   0  0  0  0  0  0  0  0  0  0  0  0
    9.6241   -2.1349   25.8117 H   0  0  0  0  0  0  0  0  0  0  0  0
   10.2470   -2.3628   24.1910 H   0  0  0  0  0  0  0  0  0  0  0  0
    8.8149   -3.8604   24.8166 C   0  0  0  0  0  0  0  0  0  0  0  0
    8.5012   -4.1792   23.8186 H   0  0  0  0  0  0  0  0  0  0  0  0
    7.9537   -3.9495   25.4867 H   0  0  0  0  0  0  0  0  0  0  0  0
    9.5896   -4.5508   25.1702 H   0  0  0  0  0  0  0  0  0  0  0  0
    7.2553   -0.4864   22.2999 C   0  0  0  0  0  0  0  0  0  0  0  0
    6.5921    0.2566   22.7077 H   0  0  0  0  0  0  0  0  0  0  0  0
    5.4471    0.6447   20.1708 C   0  0  0  0  0  0  0  0  0  0  0  0
    4.9944    0.6287   21.1643 H   0  0  0  0  0  0  0  0  0  0  0  0
    4.8149    1.3020   19.1124 C   0  0  0  0  0  0  0  0  0  0  0  0
    3.8819    1.8366   19.2661 H   0  0  0  0  0  0  0  0  0  0  0  0
  1  2  1  0
  2  3  2  0
  3  4  1  0
  4  5  1  0
  4  6  2  0
  6  7  1  0
  7  8  1  0
  8  9  2  0
  9 10  1  0
  9 11  1  0
 11 12  1  0
 12 13  1  0
 13 14  1  0
 13 15  1  0
 13 16  1  0
 16 17  1  0
 16 18  1  0
 16 19  1  0
 12 20  1  0
 20 21  1  0
 20 22  1  0
 20 23  1  0
 23 24  1  0
 23 25  1  0
 23 26  1  0
 11 27  2  0
 27 28  1  0
  6 29  1  0
 29 30  1  0
 29 31  2  0
 31 32  1  0
 31  2  1  0
 27  7  1  0
M  END
>  <cnnaffinity>  (1) 
-4.74503

>  <filename>  (1) 
CCN(CC)c1cnn(-c2cccnc2)c1

$$$$
