
     RDKit          3D

 33 34  0  0  0  0  0  0  0  0999 V2000
    4.9642    1.7778   17.0088 H   0  0  0  0  0  0  0  0  0  0  0  0
    5.4220    1.2716   17.8555 C   0  0  0  0  0  0  0  0  0  0  0  0
    6.5888    0.6525   17.6148 N   0  0  0  0  0  0  0  0  0  0  0  0
    7.1877    0.0310   18.6374 C   0  0  0  0  0  0  0  0  0  0  0  0
    8.1350   -0.4630   18.4234 H   0  0  0  0  0  0  0  0  0  0  0  0
    6.6590   -0.0019   19.9432 C   0  0  0  0  0  0  0  0  0  0  0  0
    7.3537   -0.7654   20.8994 O   0  0  0  0  0  0  0  0  0  0  0  0
    7.3774   -0.4232   22.1881 C   0  0  0  0  0  0  0  0  0  0  0  0
    7.0230    0.7085   22.7307 N   0  0  0  0  0  0  0  0  0  0  0  0
    7.2705    0.5825   24.0504 N   0  0  0  0  0  0  0  0  0  0  0  0
    7.7453   -0.5625   24.3374 N   0  0  0  0  0  0  0  0  0  0  0  0
    7.8219   -1.2563   23.1491 N   0  0  0  0  0  0  0  0  0  0  0  0
    8.4513   -2.5204   22.9852 C   0  0  0  0  0  0  0  0  0  0  0  0
    8.9161   -2.8104   21.9046 O   0  0  0  0  0  0  0  0  0  0  0  0
    8.5040   -3.3261   24.0956 N   0  0  0  0  0  0  0  0  0  0  0  0
    7.6397   -3.2728   25.2855 C   0  0  0  0  0  0  0  0  0  0  0  0
    6.7486   -2.6752   25.0808 H   0  0  0  0  0  0  0  0  0  0  0  0
    7.3006   -4.3041   25.4669 H   0  0  0  0  0  0  0  0  0  0  0  0
    8.3695   -2.7534   26.5258 C   0  0  0  0  0  0  0  0  0  0  0  0
    7.6580   -2.6282   27.3509 H   0  0  0  0  0  0  0  0  0  0  0  0
    8.8382   -1.7847   26.3331 H   0  0  0  0  0  0  0  0  0  0  0  0
    9.1418   -3.4562   26.8644 H   0  0  0  0  0  0  0  0  0  0  0  0
    9.3595   -4.5201   24.0191 C   0  0  0  0  0  0  0  0  0  0  0  0
   10.2813   -4.2226   23.5055 H   0  0  0  0  0  0  0  0  0  0  0  0
    9.6413   -4.7815   25.0500 H   0  0  0  0  0  0  0  0  0  0  0  0
    8.6437   -5.6803   23.3227 C   0  0  0  0  0  0  0  0  0  0  0  0
    8.4847   -5.4514   22.2650 H   0  0  0  0  0  0  0  0  0  0  0  0
    7.6556   -5.8470   23.7732 H   0  0  0  0  0  0  0  0  0  0  0  0
    9.2110   -6.6134   23.3799 H   0  0  0  0  0  0  0  0  0  0  0  0
    5.4456    0.6473   20.1914 C   0  0  0  0  0  0  0  0  0  0  0  0
    5.0154    0.6722   21.1931 H   0  0  0  0  0  0  0  0  0  0  0  0
    4.8187    1.2889   19.1151 C   0  0  0  0  0  0  0  0  0  0  0  0
    3.8820    1.8210   19.2460 H   0  0  0  0  0  0  0  0  0  0  0  0
  1  2  1  0
  2  3  2  0
  3  4  1  0
  4  5  1  0
  4  6  2  0
  6  7  1  0
  7  8  1  0
  8  9  2  0
  9 10  1  0
 10 11  2  0
 11 12  1  0
 12 13  1  0
 13 14  2  0
 13 15  1  0
 15 16  1  0
 16 17  1  0
 16 18  1  0
 16 19  1  0
 19 20  1  0
 19 21  1  0
 19 22  1  0
 15 23  1  0
 23 24  1  0
 23 25  1  0
 23 26  1  0
 26 27  1  0
 26 28  1  0
 26 29  1  0
  6 30  1  0
 30 31  1  0
 30 32  2  0
 32 33  1  0
 32  2  1  0
 12  8  1  0
M  END
>  <cnnaffinity>  (1) 
-4.96395

>  <filename>  (1) 
CCN(CC)C(=O)n1nnnc1Oc1cccnc1

$$$$
