
     RDKit          3D

 39 40  0  0  0  0  0  0  0  0999 V2000
    4.9477    1.8514   16.9790 H   0  0  0  0  0  0  0  0  0  0  0  0
    5.4435    1.3294   17.7940 C   0  0  0  0  0  0  0  0  0  0  0  0
    6.6073    0.7289   17.4992 N   0  0  0  0  0  0  0  0  0  0  0  0
    7.2208    0.0634   18.4862 C   0  0  0  0  0  0  0  0  0  0  0  0
    8.1640   -0.4079   18.2207 H   0  0  0  0  0  0  0  0  0  0  0  0
    6.7096   -0.0625   19.7981 C   0  0  0  0  0  0  0  0  0  0  0  0
    7.4219   -0.7851   20.8038 N   0  0  0  0  0  0  0  0  0  0  0  0
    8.7752   -0.6102   21.1126 C   0  0  0  0  0  0  0  0  0  0  0  0
    9.3825    0.1076   20.5841 H   0  0  0  0  0  0  0  0  0  0  0  0
    9.0885   -1.3938   22.1696 C   0  0  0  0  0  0  0  0  0  0  0  0
   10.3365   -1.5315   22.9728 C   0  0  0  0  0  0  0  0  0  0  0  0
   11.1912   -1.4318   22.2979 H   0  0  0  0  0  0  0  0  0  0  0  0
   10.3818   -2.5238   23.4353 H   0  0  0  0  0  0  0  0  0  0  0  0
   10.4766   -0.4527   24.0625 C   0  0  0  0  0  0  0  0  0  0  0  0
    9.6104   -0.5272   24.7325 H   0  0  0  0  0  0  0  0  0  0  0  0
   11.3515   -0.6535   24.7120 H   0  0  0  0  0  0  0  0  0  0  0  0
   10.5358    0.8812   23.4708 N   0  0  0  0  0  0  0  0  0  0  0  0
    9.7013    1.8868   24.1157 C   0  0  0  0  0  0  0  0  0  0  0  0
    9.8620    1.9289   25.2157 H   0  0  0  0  0  0  0  0  0  0  0  0
    9.9729    2.8784   23.7255 H   0  0  0  0  0  0  0  0  0  0  0  0
    8.2265    1.6314   23.8099 C   0  0  0  0  0  0  0  0  0  0  0  0
    8.0557    1.6431   22.7260 H   0  0  0  0  0  0  0  0  0  0  0  0
    7.9090    0.6445   24.1674 H   0  0  0  0  0  0  0  0  0  0  0  0
    7.5980    2.3933   24.2837 H   0  0  0  0  0  0  0  0  0  0  0  0
   11.8446    1.3287   23.0054 C   0  0  0  0  0  0  0  0  0  0  0  0
   12.3228    0.5108   22.4497 H   0  0  0  0  0  0  0  0  0  0  0  0
   11.6907    2.1409   22.2752 H   0  0  0  0  0  0  0  0  0  0  0  0
   12.7615    1.8157   24.1246 C   0  0  0  0  0  0  0  0  0  0  0  0
   12.9248    1.0270   24.8686 H   0  0  0  0  0  0  0  0  0  0  0  0
   13.7339    2.1413   23.7412 H   0  0  0  0  0  0  0  0  0  0  0  0
   12.2687    2.6541   24.6273 H   0  0  0  0  0  0  0  0  0  0  0  0
    7.9136   -2.0431   22.5205 N   0  0  0  0  0  0  0  0  0  0  0  0
    7.7346   -2.6837   23.2678 H   0  0  0  0  0  0  0  0  0  0  0  0
    6.8723   -1.7334   21.6833 C   0  0  0  0  0  0  0  0  0  0  0  0
    5.7674   -2.2401   21.6980 O   0  0  0  0  0  0  0  0  0  0  0  0
    5.4962    0.5771   20.0900 C   0  0  0  0  0  0  0  0  0  0  0  0
    5.0935    0.5344   21.1031 H   0  0  0  0  0  0  0  0  0  0  0  0
    4.8590    1.2835   19.0641 C   0  0  0  0  0  0  0  0  0  0  0  0
    3.9282    1.8072   19.2434 H   0  0  0  0  0  0  0  0  0  0  0  0
  1  2  1  0
  2  3  2  0
  3  4  1  0
  4  5  1  0
  4  6  2  0
  6  7  1  0
  7  8  1  0
  8  9  1  0
  8 10  2  0
 10 11  1  0
 11 12  1  0
 11 13  1  0
 11 14  1  0
 14 15  1  0
 14 16  1  0
 14 17  1  0
 17 18  1  0
 18 19  1  0
 18 20  1  0
 18 21  1  0
 21 22  1  0
 21 23  1  0
 21 24  1  0
 17 25  1  0
 25 26  1  0
 25 27  1  0
 25 28  1  0
 28 29  1  0
 28 30  1  0
 28 31  1  0
 10 32  1  0
 32 33  1  0
 32 34  1  0
 34 35  2  0
  6 36  1  0
 36 37  1  0
 36 38  2  0
 38 39  1  0
 38  2  1  0
 34  7  1  0
M  END
>  <cnnaffinity>  (1) 
-5.0339

>  <filename>  (1) 
CCN(CC)CCc1cn(-c2cccnc2)c(=O)[nH]1

$$$$
