
     RDKit          3D

 41 43  0  0  0  0  0  0  0  0999 V2000
    8.3622    0.9255   22.5191 C   0  0  0  0  0  0  0  0  0  0  0  0
    8.6003   -0.1260   21.4373 C   0  0  0  0  0  0  0  0  0  0  0  0
    7.3463   -0.7074   20.9482 N   0  0  0  0  0  0  0  0  0  0  0  0
    6.6749   -1.7633   21.5701 C   0  0  0  0  0  0  0  0  0  0  0  0
    5.5727   -2.1274   21.1965 O   0  0  0  0  0  0  0  0  0  0  0  0
    7.4399   -2.5102   22.6455 C   0  0  0  0  0  0  0  0  0  0  0  0
    8.5128   -3.4898   22.2217 C   0  0  0  0  0  0  0  0  0  0  0  0
    7.2139   -3.9969   22.8061 C   0  0  0  0  0  0  0  0  0  0  0  0
    7.2020   -4.6473   24.1636 C   0  0  0  0  0  0  0  0  0  0  0  0
    8.2206   -5.5560   24.4880 C   0  0  0  0  0  0  0  0  0  0  0  0
    8.3237   -6.1198   25.7607 C   0  0  0  0  0  0  0  0  0  0  0  0
    7.3774   -5.7916   26.7358 C   0  0  0  0  0  0  0  0  0  0  0  0
    6.3204   -4.9334   26.4173 C   0  0  0  0  0  0  0  0  0  0  0  0
    6.1985   -4.3943   25.1237 C   0  0  0  0  0  0  0  0  0  0  0  0
    5.0318   -3.4735   24.8057 C   0  0  0  0  0  0  0  0  0  0  0  0
    5.4035   -2.1736   24.8499 F   0  0  0  0  0  0  0  0  0  0  0  0
    4.0203   -3.6122   25.6872 F   0  0  0  0  0  0  0  0  0  0  0  0
    4.5150   -3.6917   23.5815 F   0  0  0  0  0  0  0  0  0  0  0  0
    5.5791   -4.6898   27.1725 H   0  0  0  0  0  0  0  0  0  0  0  0
    7.4494   -6.2174   27.7323 H   0  0  0  0  0  0  0  0  0  0  0  0
    9.1467   -6.7929   25.9916 H   0  0  0  0  0  0  0  0  0  0  0  0
    8.9574   -5.7719   23.7193 H   0  0  0  0  0  0  0  0  0  0  0  0
    6.4988   -4.4386   22.1152 H   0  0  0  0  0  0  0  0  0  0  0  0
    9.4104   -3.5797   22.8332 H   0  0  0  0  0  0  0  0  0  0  0  0
    8.6965   -3.6187   21.1558 H   0  0  0  0  0  0  0  0  0  0  0  0
    7.5966   -1.9412   23.5579 H   0  0  0  0  0  0  0  0  0  0  0  0
    6.6644    0.0058   19.9005 C   0  0  0  0  0  0  0  0  0  0  0  0
    5.4487    0.6433   20.1582 C   0  0  0  0  0  0  0  0  0  0  0  0
    4.8173    1.3133   19.1067 C   0  0  0  0  0  0  0  0  0  0  0  0
    5.4033    1.2989   17.8377 C   0  0  0  0  0  0  0  0  0  0  0  0
    6.5674    0.6853   17.5719 N   0  0  0  0  0  0  0  0  0  0  0  0
    7.1825    0.0719   18.5909 C   0  0  0  0  0  0  0  0  0  0  0  0
    8.1264   -0.4232   18.3629 H   0  0  0  0  0  0  0  0  0  0  0  0
    4.9224    1.7911   16.9937 H   0  0  0  0  0  0  0  0  0  0  0  0
    3.8826    1.8373   19.2572 H   0  0  0  0  0  0  0  0  0  0  0  0
    5.0173    0.5977   21.1621 H   0  0  0  0  0  0  0  0  0  0  0  0
    9.0896    0.3369   20.5719 H   0  0  0  0  0  0  0  0  0  0  0  0
    9.2751   -0.9180   21.7837 H   0  0  0  0  0  0  0  0  0  0  0  0
    7.7440    1.7433   22.1293 H   0  0  0  0  0  0  0  0  0  0  0  0
    7.8413    0.4937   23.3817 H   0  0  0  0  0  0  0  0  0  0  0  0
    9.3088    1.3505   22.8713 H   0  0  0  0  0  0  0  0  0  0  0  0
  1  2  1  0
  2  3  1  0
  3  4  1  0
  4  5  2  0
  4  6  1  0
  6  7  1  0
  7  8  1  0
  8  9  1  0
  9 10  2  0
 10 11  1  0
 11 12  2  0
 12 13  1  0
 13 14  2  0
 14 15  1  0
 15 16  1  0
 15 17  1  0
 15 18  1  0
 13 19  1  0
 12 20  1  0
 11 21  1  0
 10 22  1  0
  8 23  1  0
  7 24  1  0
  7 25  1  0
  6 26  1  0
  3 27  1  0
 27 28  2  0
 28 29  1  0
 29 30  2  0
 30 31  1  0
 31 32  2  0
 32 33  1  0
 30 34  1  0
 29 35  1  0
 28 36  1  0
  2 37  1  0
  2 38  1  0
  1 39  1  0
  1 40  1  0
  1 41  1  0
  8  6  1  0
 14  9  1  0
 32 27  1  0
M  END
>  <cnnaffinity>  (1) 
-5.49062

>  <filename>  (1) 
CCN(C(=O)C1CC1c1ccccc1C(F)(F)F)c1cccnc1

$$$$
