
     RDKit          3D

 40 42  0  0  0  0  0  0  0  0999 V2000
    4.9223    1.7773   17.0008 H   0  0  0  0  0  0  0  0  0  0  0  0
    5.4053    1.2881   17.8443 C   0  0  0  0  0  0  0  0  0  0  0  0
    6.5685    0.6730   17.5837 N   0  0  0  0  0  0  0  0  0  0  0  0
    7.1807    0.0563   18.5983 C   0  0  0  0  0  0  0  0  0  0  0  0
    8.1268   -0.4301   18.3752 H   0  0  0  0  0  0  0  0  0  0  0  0
    6.6647    0.0041   19.9080 C   0  0  0  0  0  0  0  0  0  0  0  0
    7.4156   -0.7115   20.9597 C   0  0  0  0  0  0  0  0  0  0  0  0
    8.5508   -1.3246   20.7723 N   0  0  0  0  0  0  0  0  0  0  0  0
    9.0451   -1.8964   21.9109 N   0  0  0  0  0  0  0  0  0  0  0  0
    8.2920   -1.7005   22.9535 C   0  0  0  0  0  0  0  0  0  0  0  0
    8.6055   -2.2439   24.3165 C   0  0  0  0  0  0  0  0  0  0  0  0
    9.4989   -1.3372   25.1503 C   0  0  0  0  0  0  0  0  0  0  0  0
    9.6319   -1.7954   26.1466 H   0  0  0  0  0  0  0  0  0  0  0  0
   10.4950   -1.3377   24.6917 H   0  0  0  0  0  0  0  0  0  0  0  0
    9.0243    0.0374   25.2554 N   0  0  0  0  0  0  0  0  0  0  0  0
   10.0962    0.9927   25.5650 C   0  0  0  0  0  0  0  0  0  0  0  0
    9.6690    1.8763   26.0542 H   0  0  0  0  0  0  0  0  0  0  0  0
   10.8342    0.5847   26.2829 H   0  0  0  0  0  0  0  0  0  0  0  0
   10.8072    1.4565   24.3026 C   0  0  0  0  0  0  0  0  0  0  0  0
   11.3087    0.6254   23.7973 H   0  0  0  0  0  0  0  0  0  0  0  0
   11.5586    2.2186   24.5350 H   0  0  0  0  0  0  0  0  0  0  0  0
   10.0833    1.8838   23.6031 H   0  0  0  0  0  0  0  0  0  0  0  0
    7.8391    0.1904   26.1064 C   0  0  0  0  0  0  0  0  0  0  0  0
    7.4651    1.2130   25.9658 H   0  0  0  0  0  0  0  0  0  0  0  0
    7.0477   -0.4638   25.7301 H   0  0  0  0  0  0  0  0  0  0  0  0
    8.0468   -0.0714   27.5984 C   0  0  0  0  0  0  0  0  0  0  0  0
    8.2458   -1.1285   27.7935 H   0  0  0  0  0  0  0  0  0  0  0  0
    8.9020    0.4870   27.9737 H   0  0  0  0  0  0  0  0  0  0  0  0
    7.1737    0.2337   28.1821 H   0  0  0  0  0  0  0  0  0  0  0  0
    8.8262   -3.7347   24.4347 C   0  0  0  0  0  0  0  0  0  0  0  0
    8.7204   -4.3286   23.5310 H   0  0  0  0  0  0  0  0  0  0  0  0
    9.6008   -4.0894   25.1126 H   0  0  0  0  0  0  0  0  0  0  0  0
    7.5923   -3.1249   25.0167 C   0  0  0  0  0  0  0  0  0  0  0  0
    7.5335   -3.0633   26.1029 H   0  0  0  0  0  0  0  0  0  0  0  0
    6.6483   -3.3211   24.5168 H   0  0  0  0  0  0  0  0  0  0  0  0
    6.8503   -0.8098   22.5980 S   0  0  0  0  0  0  0  0  0  0  0  0
    5.4418    0.6488   20.1657 C   0  0  0  0  0  0  0  0  0  0  0  0
    5.0002    0.6371   21.1653 H   0  0  0  0  0  0  0  0  0  0  0  0
    4.8099    1.3060   19.1107 C   0  0  0  0  0  0  0  0  0  0  0  0
    3.8783    1.8397   19.2609 H   0  0  0  0  0  0  0  0  0  0  0  0
  1  2  1  0
  2  3  2  0
  3  4  1  0
  4  5  1  0
  4  6  2  0
  6  7  1  0
  7  8  2  0
  8  9  1  0
  9 10  2  0
 10 11  1  0
 11 12  1  0
 12 13  1  0
 12 14  1  0
 12 15  1  0
 15 16  1  0
 16 17  1  0
 16 18  1  0
 16 19  1  0
 19 20  1  0
 19 21  1  0
 19 22  1  0
 15 23  1  0
 23 24  1  0
 23 25  1  0
 23 26  1  0
 26 27  1  0
 26 28  1  0
 26 29  1  0
 11 30  1  0
 30 31  1  0
 30 32  1  0
 30 33  1  0
 33 34  1  0
 33 35  1  0
 10 36  1  0
  6 37  1  0
 37 38  1  0
 37 39  2  0
 39 40  1  0
 39  2  1  0
 36  7  1  0
 33 11  1  0
M  END
>  <cnnaffinity>  (1) 
-5.2681

>  <filename>  (1) 
CCN(CC)CC1(c2nnc(-c3cccnc3)s2)CC1

$$$$
