
     RDKit          3D

 34 36  0  0  0  0  0  0  0  0999 V2000
    4.9262    1.7727   17.0027 H   0  0  0  0  0  0  0  0  0  0  0  0
    5.4091    1.2859   17.8459 C   0  0  0  0  0  0  0  0  0  0  0  0
    6.5742    0.6680   17.5930 N   0  0  0  0  0  0  0  0  0  0  0  0
    7.1789    0.0534   18.6157 C   0  0  0  0  0  0  0  0  0  0  0  0
    8.1271   -0.4330   18.3842 H   0  0  0  0  0  0  0  0  0  0  0  0
    6.6456    0.0143   19.9103 C   0  0  0  0  0  0  0  0  0  0  0  0
    7.3583   -0.6883   20.9690 C   0  0  0  0  0  0  0  0  0  0  0  0
    8.5495   -1.3258   20.7821 N   0  0  0  0  0  0  0  0  0  0  0  0
    8.7992   -1.7795   21.9880 C   0  0  0  0  0  0  0  0  0  0  0  0
   10.0848   -2.6460   22.7868 S   0  0  0  0  0  0  0  0  0  0  0  0
    9.2188   -2.5013   24.3031 C   0  0  0  0  0  0  0  0  0  0  0  0
    9.6461   -2.9243   25.1931 H   0  0  0  0  0  0  0  0  0  0  0  0
    8.0336   -1.8513   24.1964 C   0  0  0  0  0  0  0  0  0  0  0  0
    7.1345   -1.6241   25.2254 N   0  0  0  0  0  0  0  0  0  0  0  0
    7.6258   -1.4568   26.5848 C   0  0  0  0  0  0  0  0  0  0  0  0
    6.7618   -1.3762   27.2568 H   0  0  0  0  0  0  0  0  0  0  0  0
    8.1537   -2.3680   26.8931 H   0  0  0  0  0  0  0  0  0  0  0  0
    8.5197   -0.2366   26.7598 C   0  0  0  0  0  0  0  0  0  0  0  0
    7.9879    0.6749   26.4683 H   0  0  0  0  0  0  0  0  0  0  0  0
    9.4135   -0.3194   26.1371 H   0  0  0  0  0  0  0  0  0  0  0  0
    8.8330   -0.1347   27.8031 H   0  0  0  0  0  0  0  0  0  0  0  0
    5.7096   -1.4353   24.9837 C   0  0  0  0  0  0  0  0  0  0  0  0
    5.5056   -1.9559   24.0545 H   0  0  0  0  0  0  0  0  0  0  0  0
    5.1406   -1.9823   25.7505 H   0  0  0  0  0  0  0  0  0  0  0  0
    5.2680    0.0296   25.0001 C   0  0  0  0  0  0  0  0  0  0  0  0
    5.3992    0.4608   26.0003 H   0  0  0  0  0  0  0  0  0  0  0  0
    5.8414    0.6243   24.2865 H   0  0  0  0  0  0  0  0  0  0  0  0
    4.2045    0.1354   24.7501 H   0  0  0  0  0  0  0  0  0  0  0  0
    7.8183   -1.4658   22.8570 N   0  0  0  0  0  0  0  0  0  0  0  0
    6.8651   -0.7357   22.2008 N   0  0  0  0  0  0  0  0  0  0  0  0
    5.4263    0.6581   20.1651 C   0  0  0  0  0  0  0  0  0  0  0  0
    4.9969    0.6356   21.1725 H   0  0  0  0  0  0  0  0  0  0  0  0
    4.8040    1.3101   19.1083 C   0  0  0  0  0  0  0  0  0  0  0  0
    3.8726    1.8441   19.2583 H   0  0  0  0  0  0  0  0  0  0  0  0
  1  2  1  0
  2  3  2  0
  3  4  1  0
  4  5  1  0
  4  6  2  0
  6  7  1  0
  7  8  1  0
  8  9  2  0
  9 10  1  0
 10 11  1  0
 11 12  1  0
 11 13  2  0
 13 14  1  0
 14 15  1  0
 15 16  1  0
 15 17  1  0
 15 18  1  0
 18 19  1  0
 18 20  1  0
 18 21  1  0
 14 22  1  0
 22 23  1  0
 22 24  1  0
 22 25  1  0
 25 26  1  0
 25 27  1  0
 25 28  1  0
 13 29  1  0
 29 30  1  0
  6 31  1  0
 31 32  1  0
 31 33  2  0
 33 34  1  0
 33  2  1  0
 30  7  2  0
 29  9  1  0
M  END
>  <cnnaffinity>  (1) 
-5.23588

>  <filename>  (1) 
CCN(CC)c1csc2nc(-c3cccnc3)nn12

$$$$
