
     RDKit          3D

 40 41  0  0  0  0  0  0  0  0999 V2000
    5.1962    1.8654   17.0029 H   0  0  0  0  0  0  0  0  0  0  0  0
    5.5242    1.4159   17.9385 C   0  0  0  0  0  0  0  0  0  0  0  0
    6.6632    0.7098   17.8763 N   0  0  0  0  0  0  0  0  0  0  0  0
    7.0942    0.1601   19.0209 C   0  0  0  0  0  0  0  0  0  0  0  0
    8.0493   -0.3610   18.9768 H   0  0  0  0  0  0  0  0  0  0  0  0
    6.4301    0.2565   20.2617 C   0  0  0  0  0  0  0  0  0  0  0  0
    6.9974   -0.3533   21.4765 C   0  0  0  0  0  0  0  0  0  0  0  0
    7.3258   -1.6642   21.6597 C   0  0  0  0  0  0  0  0  0  0  0  0
    7.0760   -2.8282   20.7494 C   0  0  0  0  0  0  0  0  0  0  0  0
    7.9126   -3.5290   20.8560 H   0  0  0  0  0  0  0  0  0  0  0  0
    7.0746   -2.3899   19.7462 H   0  0  0  0  0  0  0  0  0  0  0  0
    5.7667   -3.6748   20.6965 C   0  0  0  0  0  0  0  0  0  0  0  0
    4.9405   -3.0275   20.3639 H   0  0  0  0  0  0  0  0  0  0  0  0
    5.9319   -4.3139   19.8135 H   0  0  0  0  0  0  0  0  0  0  0  0
    5.4379   -4.5471   21.7951 N   0  0  0  0  0  0  0  0  0  0  0  0
    5.6996   -5.9748   21.6318 C   0  0  0  0  0  0  0  0  0  0  0  0
    4.7540   -6.5457   21.4452 H   0  0  0  0  0  0  0  0  0  0  0  0
    6.2974   -6.0867   20.7228 H   0  0  0  0  0  0  0  0  0  0  0  0
    6.4950   -6.6239   22.7772 C   0  0  0  0  0  0  0  0  0  0  0  0
    5.8712   -6.8082   23.6571 H   0  0  0  0  0  0  0  0  0  0  0  0
    7.3305   -5.9710   23.0624 H   0  0  0  0  0  0  0  0  0  0  0  0
    6.8942   -7.5849   22.4446 H   0  0  0  0  0  0  0  0  0  0  0  0
    4.3887   -4.1885   22.7178 C   0  0  0  0  0  0  0  0  0  0  0  0
    3.0965   -4.8515   22.1128 H   0  0  0  0  0  0  0  0  0  0  0  0
    4.6566   -5.1158   23.4582 H   0  0  0  0  0  0  0  0  0  0  0  0
    4.6147   -4.0494   22.8833 C   0  0  0  0  0  0  0  0  0  0  0  0
    3.6310   -3.7135   23.6670 H   0  0  0  0  0  0  0  0  0  0  0  0
    5.5455   -3.2739   23.8788 H   0  0  0  0  0  0  0  0  0  0  0  0
    4.1790   -3.0299   22.3598 H   0  0  0  0  0  0  0  0  0  0  0  0
    8.2604   -1.7254   22.8136 C   0  0  0  0  0  0  0  0  0  0  0  0
    8.9778   -2.6303   23.2032 O   0  0  0  0  0  0  0  0  0  0  0  0
    8.2180   -0.4876   23.4022 N   0  0  0  0  0  0  0  0  0  0  0  0
    8.9257   -0.3194   24.0991 H   0  0  0  0  0  0  0  0  0  0  0  0
    7.5616    0.5076   22.5813 C   0  0  0  0  0  0  0  0  0  0  0  0
    6.7842    1.0700   23.1235 H   0  0  0  0  0  0  0  0  0  0  0  0
    8.2698    1.2492   22.1690 H   0  0  0  0  0  0  0  0  0  0  0  0
    5.2639    1.0336   20.3006 C   0  0  0  0  0  0  0  0  0  0  0  0
    4.7570    1.1875   21.2548 H   0  0  0  0  0  0  0  0  0  0  0  0
    4.7940    1.6087   19.1161 C   0  0  0  0  0  0  0  0  0  0  0  0
    3.8980    2.2206   19.0917 H   0  0  0  0  0  0  0  0  0  0  0  0
  1  2  1  0
  2  3  2  0
  3  4  1  0
  4  5  1  0
  4  6  2  0
  6  7  1  0
  7  8  2  0
  8  9  1  0
  9 10  1  0
  9 11  1  0
  9 12  1  0
 12 13  1  0
 12 14  1  0
 12 15  1  0
 15 16  1  0
 16 17  1  0
 16 18  1  0
 16 19  1  0
 19 20  1  0
 19 21  1  0
 19 22  1  0
 15 23  1  0
 23 24  1  0
 23 25  1  0
 23 26  1  0
 26 27  1  0
 26 28  1  0
 26 29  1  0
  8 30  1  0
 30 31  2  0
 30 32  1  0
 32 33  1  0
 32 34  1  0
 34 35  1  0
 34 36  1  0
  6 37  1  0
 37 38  1  0
 37 39  2  0
 39 40  1  0
 39  2  1  0
 34  7  1  0
M  END
>  <cnnaffinity>  (1) 
-4.542

>  <filename>  (1) 
CCN(CC)CCC1=C(c2cccnc2)CNC1=O

$$$$
