
     RDKit          3D

 38 39  0  0  0  0  0  0  0  0999 V2000
    5.2242    1.7011   16.8032 H   0  0  0  0  0  0  0  0  0  0  0  0
    5.5366    1.2437   17.7381 C   0  0  0  0  0  0  0  0  0  0  0  0
    6.6993    0.5688   17.7082 N   0  0  0  0  0  0  0  0  0  0  0  0
    7.1164    0.0116   18.8479 C   0  0  0  0  0  0  0  0  0  0  0  0
    8.0488   -0.5490   18.8202 H   0  0  0  0  0  0  0  0  0  0  0  0
    6.4157    0.1133   20.0623 C   0  0  0  0  0  0  0  0  0  0  0  0
    6.9906   -0.4717   21.2171 N   0  0  0  0  0  0  0  0  0  0  0  0
    7.7946   -1.5390   21.0692 N   0  0  0  0  0  0  0  0  0  0  0  0
    8.2093   -1.8557   22.2886 C   0  0  0  0  0  0  0  0  0  0  0  0
    9.0858   -3.0664   22.4350 C   0  0  0  0  0  0  0  0  0  0  0  0
    9.9215   -2.9711   21.7333 H   0  0  0  0  0  0  0  0  0  0  0  0
    9.5072   -3.1310   23.4436 H   0  0  0  0  0  0  0  0  0  0  0  0
    8.2685   -4.3313   22.1573 C   0  0  0  0  0  0  0  0  0  0  0  0
    7.7525   -4.2042   21.1976 H   0  0  0  0  0  0  0  0  0  0  0  0
    8.9053   -5.2235   22.0379 H   0  0  0  0  0  0  0  0  0  0  0  0
    7.3029   -4.5363   23.2361 N   0  0  0  0  0  0  0  0  0  0  0  0
    6.1015   -5.2677   22.8256 C   0  0  0  0  0  0  0  0  0  0  0  0
    6.3532   -6.2523   22.3831 H   0  0  0  0  0  0  0  0  0  0  0  0
    5.5128   -5.4792   23.7261 H   0  0  0  0  0  0  0  0  0  0  0  0
    5.1931   -4.5023   21.8687 C   0  0  0  0  0  0  0  0  0  0  0  0
    5.6994   -4.1435   20.9666 H   0  0  0  0  0  0  0  0  0  0  0  0
    4.7410   -3.6333   22.3532 H   0  0  0  0  0  0  0  0  0  0  0  0
    4.3905   -5.1651   21.5381 H   0  0  0  0  0  0  0  0  0  0  0  0
    7.9475   -5.1634   24.4046 C   0  0  0  0  0  0  0  0  0  0  0  0
    7.9585   -6.2659   24.3034 H   0  0  0  0  0  0  0  0  0  0  0  0
    9.0080   -4.8762   24.4406 H   0  0  0  0  0  0  0  0  0  0  0  0
    7.3326   -4.7707   25.7416 C   0  0  0  0  0  0  0  0  0  0  0  0
    7.8947   -5.2586   26.5484 H   0  0  0  0  0  0  0  0  0  0  0  0
    7.3801   -3.6831   25.8868 H   0  0  0  0  0  0  0  0  0  0  0  0
    6.2855   -5.0878   25.8286 H   0  0  0  0  0  0  0  0  0  0  0  0
    7.6830   -0.9601   23.2423 C   0  0  0  0  0  0  0  0  0  0  0  0
    7.8398   -1.0198   24.3119 H   0  0  0  0  0  0  0  0  0  0  0  0
    6.9224   -0.0689   22.5157 C   0  0  0  0  0  0  0  0  0  0  0  0
    6.3788    0.8334   22.7718 H   0  0  0  0  0  0  0  0  0  0  0  0
    5.1874    0.7909   20.0835 C   0  0  0  0  0  0  0  0  0  0  0  0
    4.5822    0.8545   20.9898 H   0  0  0  0  0  0  0  0  0  0  0  0
    4.7496    1.3662   18.8876 C   0  0  0  0  0  0  0  0  0  0  0  0
    3.8188    1.9230   18.8405 H   0  0  0  0  0  0  0  0  0  0  0  0
  1  2  1  0
  2  3  2  0
  3  4  1  0
  4  5  1  0
  4  6  2  0
  6  7  1  0
  7  8  1  0
  8  9  2  0
  9 10  1  0
 10 11  1  0
 10 12  1  0
 10 13  1  0
 13 14  1  0
 13 15  1  0
 13 16  1  0
 16 17  1  0
 17 18  1  0
 17 19  1  0
 17 20  1  0
 20 21  1  0
 20 22  1  0
 20 23  1  0
 16 24  1  0
 24 25  1  0
 24 26  1  0
 24 27  1  0
 27 28  1  0
 27 29  1  0
 27 30  1  0
  9 31  1  0
 31 32  1  0
 31 33  2  0
 33 34  1  0
  6 35  1  0
 35 36  1  0
 35 37  2  0
 37 38  1  0
 37  2  1  0
 33  7  1  0
M  END
>  <cnnaffinity>  (1) 
-5.05873

>  <filename>  (1) 
CCN(CC)CCc1ccn(-c2cccnc2)n1

$$$$
