
     RDKit          3D

 40 41  0  0  0  0  0  0  0  0999 V2000
    4.9072    1.8224   16.9605 H   0  0  0  0  0  0  0  0  0  0  0  0
    5.3694    1.3050   17.8003 C   0  0  0  0  0  0  0  0  0  0  0  0
    6.5317    0.6887   17.5322 N   0  0  0  0  0  0  0  0  0  0  0  0
    7.1430    0.0623   18.5428 C   0  0  0  0  0  0  0  0  0  0  0  0
    8.1060   -0.3855   18.2982 H   0  0  0  0  0  0  0  0  0  0  0  0
    6.6425    0.0040   19.8579 C   0  0  0  0  0  0  0  0  0  0  0  0
    7.3760   -0.6513   20.9481 C   0  0  0  0  0  0  0  0  0  0  0  0
    7.4498   -0.3615   22.2866 C   0  0  0  0  0  0  0  0  0  0  0  0
    6.7570    0.7369   22.8592 O   0  0  0  0  0  0  0  0  0  0  0  0
    7.0561    0.8349   24.2499 O   0  0  0  0  0  0  0  0  0  0  0  0
    8.0669    1.8666   24.3717 C   0  0  0  0  0  0  0  0  0  0  0  0
    8.8997    1.6386   23.6887 H   0  0  0  0  0  0  0  0  0  0  0  0
    8.3670    1.8157   25.4214 H   0  0  0  0  0  0  0  0  0  0  0  0
    7.5293    3.2555   23.9814 C   0  0  0  0  0  0  0  0  0  0  0  0
    7.3043    3.1866   22.9045 H   0  0  0  0  0  0  0  0  0  0  0  0
    6.5678    3.4482   24.4778 H   0  0  0  0  0  0  0  0  0  0  0  0
    8.4400    4.3639   24.2775 N   0  0  0  0  0  0  0  0  0  0  0  0
    8.5895    4.6637   25.7019 C   0  0  0  0  0  0  0  0  0  0  0  0
    9.3041    3.9851   26.2082 H   0  0  0  0  0  0  0  0  0  0  0  0
    7.6143    4.4733   26.1693 H   0  0  0  0  0  0  0  0  0  0  0  0
    8.9982    6.1125   25.9689 C   0  0  0  0  0  0  0  0  0  0  0  0
    9.0219    6.3103   27.0475 H   0  0  0  0  0  0  0  0  0  0  0  0
    9.9947    6.3401   25.5721 H   0  0  0  0  0  0  0  0  0  0  0  0
    8.2833    6.7992   25.5035 H   0  0  0  0  0  0  0  0  0  0  0  0
    9.6689    4.4100   23.4789 C   0  0  0  0  0  0  0  0  0  0  0  0
    9.4324    3.9337   22.5183 H   0  0  0  0  0  0  0  0  0  0  0  0
    9.9104    5.4598   23.2454 H   0  0  0  0  0  0  0  0  0  0  0  0
   10.9169    3.7542   24.0974 C   0  0  0  0  0  0  0  0  0  0  0  0
   11.7062    3.6280   23.3508 H   0  0  0  0  0  0  0  0  0  0  0  0
   11.3264    4.3881   24.8904 H   0  0  0  0  0  0  0  0  0  0  0  0
   10.6907    2.7689   24.5224 H   0  0  0  0  0  0  0  0  0  0  0  0
    8.2446   -1.3078   22.9249 C   0  0  0  0  0  0  0  0  0  0  0  0
    8.4997   -1.4024   23.9727 H   0  0  0  0  0  0  0  0  0  0  0  0
    8.6825   -2.1763   22.0141 N   0  0  0  0  0  0  0  0  0  0  0  0
    8.1696   -1.7604   20.8495 N   0  0  0  0  0  0  0  0  0  0  0  0
    8.3227   -2.3171   20.0162 H   0  0  0  0  0  0  0  0  0  0  0  0
    5.4328    0.6750   20.1258 C   0  0  0  0  0  0  0  0  0  0  0  0
    5.0691    0.7229   21.1572 H   0  0  0  0  0  0  0  0  0  0  0  0
    4.7816    1.3158   19.0706 C   0  0  0  0  0  0  0  0  0  0  0  0
    3.8538    1.8552   19.2195 H   0  0  0  0  0  0  0  0  0  0  0  0
  1  2  1  0
  2  3  2  0
  3  4  1  0
  4  5  1  0
  4  6  2  0
  6  7  1  0
  7  8  2  0
  8  9  1  0
  9 10  1  0
 10 11  1  0
 11 12  1  0
 11 13  1  0
 11 14  1  0
 14 15  1  0
 14 16  1  0
 14 17  1  0
 17 18  1  0
 18 19  1  0
 18 20  1  0
 18 21  1  0
 21 22  1  0
 21 23  1  0
 21 24  1  0
 17 25  1  0
 25 26  1  0
 25 27  1  0
 25 28  1  0
 28 29  1  0
 28 30  1  0
 28 31  1  0
  8 32  1  0
 32 33  1  0
 32 34  2  0
 34 35  1  0
 35 36  1  0
  6 37  1  0
 37 38  1  0
 37 39  2  0
 39 40  1  0
 39  2  1  0
 35  7  1  0
M  END
>  <cnnaffinity>  (1) 
-4.73648

>  <filename>  (1) 
CCN(CC)CCOOc1cn[nH]c1-c1cccnc1

$$$$
