
     RDKit          3D

 37 38  0  0  0  0  0  0  0  0999 V2000
    6.1893   -2.6909   21.5607 C   0  0  0  0  0  0  0  0  0  0  0  0
    7.3793   -1.9472   20.9660 C   0  0  0  0  0  0  0  0  0  0  0  0
    7.2586   -0.4818   21.0699 N   0  0  0  0  0  0  0  0  0  0  0  0
    7.4718    0.0889   22.3312 C   0  0  0  0  0  0  0  0  0  0  0  0
    7.6550   -0.5753   23.3373 O   0  0  0  0  0  0  0  0  0  0  0  0
    7.5387    1.4594   22.3368 N   0  0  0  0  0  0  0  0  0  0  0  0
    8.0833    2.2210   23.4825 C   0  0  0  0  0  0  0  0  0  0  0  0
    9.5220    1.9963   23.9637 C   0  0  0  0  0  0  0  0  0  0  0  0
    9.6502    1.3035   25.1035 N   0  0  0  0  0  0  0  0  0  0  0  0
   10.8837    1.0441   25.5130 C   0  0  0  0  0  0  0  0  0  0  0  0
   12.0049    1.5124   24.8421 C   0  0  0  0  0  0  0  0  0  0  0  0
   11.7824    2.2458   23.6856 C   0  0  0  0  0  0  0  0  0  0  0  0
   12.9209    2.7983   22.8135 C   0  0  0  0  0  0  0  0  0  0  0  0
   13.3355    4.0209   23.2511 F   0  0  0  0  0  0  0  0  0  0  0  0
   14.0126    1.9778   22.8585 F   0  0  0  0  0  0  0  0  0  0  0  0
   12.5778    2.8843   21.7789 H   0  0  0  0  0  0  0  0  0  0  0  0
   10.5369    2.4933   23.2523 N   0  0  0  0  0  0  0  0  0  0  0  0
   13.0007    1.2878   25.1922 H   0  0  0  0  0  0  0  0  0  0  0  0
   10.9834    0.4241   26.4025 H   0  0  0  0  0  0  0  0  0  0  0  0
    7.4653    1.9977   24.3537 H   0  0  0  0  0  0  0  0  0  0  0  0
    7.9698    3.2800   23.2396 H   0  0  0  0  0  0  0  0  0  0  0  0
    7.5836    1.8615   21.4150 H   0  0  0  0  0  0  0  0  0  0  0  0
    6.5988    0.1762   19.9714 C   0  0  0  0  0  0  0  0  0  0  0  0
    5.3557    0.8079   20.1303 C   0  0  0  0  0  0  0  0  0  0  0  0
    4.7443    1.3785   19.0062 C   0  0  0  0  0  0  0  0  0  0  0  0
    5.4003    1.3218   17.7720 C   0  0  0  0  0  0  0  0  0  0  0  0
    6.5879    0.7195   17.5968 N   0  0  0  0  0  0  0  0  0  0  0  0
    7.1562    0.1544   18.6682 C   0  0  0  0  0  0  0  0  0  0  0  0
    8.1152   -0.3376   18.5006 H   0  0  0  0  0  0  0  0  0  0  0  0
    4.9632    1.7802   16.8889 H   0  0  0  0  0  0  0  0  0  0  0  0
    3.7876    1.8863   19.0797 H   0  0  0  0  0  0  0  0  0  0  0  0
    4.8902    0.8587   21.1153 H   0  0  0  0  0  0  0  0  0  0  0  0
    7.4439   -2.1576   19.9026 H   0  0  0  0  0  0  0  0  0  0  0  0
    8.3271   -2.2897   21.4004 H   0  0  0  0  0  0  0  0  0  0  0  0
    6.1331   -2.4837   22.6299 H   0  0  0  0  0  0  0  0  0  0  0  0
    5.2650   -2.3507   21.0842 H   0  0  0  0  0  0  0  0  0  0  0  0
    6.2917   -3.7753   21.4246 H   0  0  0  0  0  0  0  0  0  0  0  0
  1  2  1  0
  2  3  1  0
  3  4  1  0
  4  5  2  0
  4  6  1  0
  6  7  1  0
  7  8  1  0
  8  9  2  0
  9 10  1  0
 10 11  2  0
 11 12  1  0
 12 13  1  0
 13 14  1  0
 13 15  1  0
 13 16  1  0
 12 17  2  0
 11 18  1  0
 10 19  1  0
  7 20  1  0
  7 21  1  0
  6 22  1  0
  3 23  1  0
 23 24  2  0
 24 25  1  0
 25 26  2  0
 26 27  1  0
 27 28  2  0
 28 29  1  0
 26 30  1  0
 25 31  1  0
 24 32  1  0
  2 33  1  0
  2 34  1  0
  1 35  1  0
  1 36  1  0
  1 37  1  0
 17  8  1  0
 28 23  1  0
M  END
>  <cnnaffinity>  (1) 
-4.91637

>  <filename>  (1) 
CCN(C(=O)NCc1nccc(C(F)F)n1)c1cccnc1

$$$$
