
     RDKit          3D

 35 36  0  0  0  0  0  0  0  0999 V2000
    6.7953   -3.0169   21.1197 C   0  0  0  0  0  0  0  0  0  0  0  0
    6.5687   -1.6207   21.6693 C   0  0  0  0  0  0  0  0  0  0  0  0
    7.4223   -0.6482   20.9864 N   0  0  0  0  0  0  0  0  0  0  0  0
    8.6919   -0.3882   21.5060 C   0  0  0  0  0  0  0  0  0  0  0  0
    9.2327   -1.2236   22.2216 O   0  0  0  0  0  0  0  0  0  0  0  0
    9.1802    0.9960   21.5382 C   0  0  0  0  0  0  0  0  0  0  0  0
   10.4893    1.3993   21.7449 C   0  0  0  0  0  0  0  0  0  0  0  0
   11.6490    0.5118   21.8592 C   0  0  0  0  0  0  0  0  0  0  0  0
   11.6706   -0.7579   21.2534 C   0  0  0  0  0  0  0  0  0  0  0  0
   12.8411   -1.5254   21.2801 C   0  0  0  0  0  0  0  0  0  0  0  0
   13.9622   -1.0763   21.9795 C   0  0  0  0  0  0  0  0  0  0  0  0
   13.9409    0.1701   22.6064 C   0  0  0  0  0  0  0  0  0  0  0  0
   12.7980    0.9719   22.5289 C   0  0  0  0  0  0  0  0  0  0  0  0
   12.8401    2.6908   23.3732 Br  0  0  0  0  0  0  0  0  0  0  0  0
   14.8082    0.5446   23.1372 H   0  0  0  0  0  0  0  0  0  0  0  0
   14.8608   -1.6776   22.0394 H   0  0  0  0  0  0  0  0  0  0  0  0
   12.8996   -2.4517   20.7234 H   0  0  0  0  0  0  0  0  0  0  0  0
   10.8072   -1.1315   20.7138 H   0  0  0  0  0  0  0  0  0  0  0  0
   10.6957    2.4636   21.8424 H   0  0  0  0  0  0  0  0  0  0  0  0
    8.4322    1.7728   21.4453 H   0  0  0  0  0  0  0  0  0  0  0  0
    6.8410    0.0908   19.9332 C   0  0  0  0  0  0  0  0  0  0  0  0
    5.5864    0.6537   20.1435 C   0  0  0  0  0  0  0  0  0  0  0  0
    4.9506    1.2827   19.0743 C   0  0  0  0  0  0  0  0  0  0  0  0
    5.5737    1.3366   17.8242 C   0  0  0  0  0  0  0  0  0  0  0  0
    6.7890    0.8005   17.6022 N   0  0  0  0  0  0  0  0  0  0  0  0
    7.4117    0.1997   18.6415 C   0  0  0  0  0  0  0  0  0  0  0  0
    8.3850   -0.2511   18.4696 H   0  0  0  0  0  0  0  0  0  0  0  0
    5.0542    1.8147   16.9992 H   0  0  0  0  0  0  0  0  0  0  0  0
    3.9747    1.7322   19.2051 H   0  0  0  0  0  0  0  0  0  0  0  0
    5.1299    0.5903   21.1289 H   0  0  0  0  0  0  0  0  0  0  0  0
    5.5188   -1.3528   21.5331 H   0  0  0  0  0  0  0  0  0  0  0  0
    6.7708   -1.6017   22.7446 H   0  0  0  0  0  0  0  0  0  0  0  0
    6.4571   -3.0665   20.0808 H   0  0  0  0  0  0  0  0  0  0  0  0
    7.8567   -3.2702   21.1645 H   0  0  0  0  0  0  0  0  0  0  0  0
    6.2318   -3.7489   21.7062 H   0  0  0  0  0  0  0  0  0  0  0  0
  1  2  1  0
  2  3  1  0
  3  4  1  0
  4  5  2  0
  4  6  1  0
  6  7  2  3
  7  8  1  0
  8  9  2  0
  9 10  1  0
 10 11  2  0
 11 12  1  0
 12 13  2  0
 13 14  1  0
 12 15  1  0
 11 16  1  0
 10 17  1  0
  9 18  1  0
  7 19  1  0
  6 20  1  0
  3 21  1  0
 21 22  2  0
 22 23  1  0
 23 24  2  0
 24 25  1  0
 25 26  2  0
 26 27  1  0
 24 28  1  0
 23 29  1  0
 22 30  1  0
  2 31  1  0
  2 32  1  0
  1 33  1  0
  1 34  1  0
  1 35  1  0
 13  8  1  0
 26 21  1  0
M  END
>  <cnnaffinity>  (1) 
-5.94824

>  <filename>  (1) 
CCN(C(=O)C=Cc1ccccc1Br)c1cccnc1

$$$$
