
     RDKit          3D

 39 40  0  0  0  0  0  0  0  0999 V2000
    6.9202   -4.5876   20.5680 C   0  0  0  0  0  0  0  0  0  0  0  0
    6.1018   -3.3130   20.3632 C   0  0  0  0  0  0  0  0  0  0  0  0
    6.1242   -2.4164   21.5237 N   0  0  0  0  0  0  0  0  0  0  0  0
    5.6509   -2.9279   22.7037 C   0  0  0  0  0  0  0  0  0  0  0  0
    4.3605   -3.9882   22.7561 S   0  0  0  0  0  0  0  0  0  0  0  0
    6.3306   -2.5343   23.8188 N   0  0  0  0  0  0  0  0  0  0  0  0
    6.1506   -2.9586   25.1607 C   0  0  0  0  0  0  0  0  0  0  0  0
    6.0349   -4.3077   25.5134 C   0  0  0  0  0  0  0  0  0  0  0  0
    5.8242   -4.6594   26.8492 C   0  0  0  0  0  0  0  0  0  0  0  0
    5.7253   -3.6719   27.8343 C   0  0  0  0  0  0  0  0  0  0  0  0
    5.8890   -2.3265   27.4881 C   0  0  0  0  0  0  0  0  0  0  0  0
    6.1228   -1.9728   26.1547 C   0  0  0  0  0  0  0  0  0  0  0  0
    6.2690   -0.9382   25.8678 H   0  0  0  0  0  0  0  0  0  0  0  0
    5.8372   -1.5536   28.2530 H   0  0  0  0  0  0  0  0  0  0  0  0
    5.5602   -3.9567   28.8693 H   0  0  0  0  0  0  0  0  0  0  0  0
    5.7313   -5.7107   27.1139 H   0  0  0  0  0  0  0  0  0  0  0  0
    6.1006   -5.0659   24.7416 H   0  0  0  0  0  0  0  0  0  0  0  0
    7.0168   -1.8204   23.6713 H   0  0  0  0  0  0  0  0  0  0  0  0
    6.7654   -1.0807   21.4159 C   0  0  0  0  0  0  0  0  0  0  0  0
    8.2759   -1.2669   21.5103 C   0  0  0  0  0  0  0  0  0  0  0  0
    8.6272   -1.9157   20.7009 H   0  0  0  0  0  0  0  0  0  0  0  0
    8.7938   -0.3070   21.4542 H   0  0  0  0  0  0  0  0  0  0  0  0
    8.5513   -1.7529   22.4496 H   0  0  0  0  0  0  0  0  0  0  0  0
    6.3263   -0.2769   20.1913 C   0  0  0  0  0  0  0  0  0  0  0  0
    5.1659    0.5139   20.2535 C   0  0  0  0  0  0  0  0  0  0  0  0
    4.8087    1.2981   19.1551 C   0  0  0  0  0  0  0  0  0  0  0  0
    5.6191    1.2658   18.0159 C   0  0  0  0  0  0  0  0  0  0  0  0
    6.7243    0.5146   17.9243 N   0  0  0  0  0  0  0  0  0  0  0  0
    7.0551   -0.2289   18.9917 C   0  0  0  0  0  0  0  0  0  0  0  0
    7.9729   -0.8059   18.8703 H   0  0  0  0  0  0  0  0  0  0  0  0
    5.3733    1.8667   17.1423 H   0  0  0  0  0  0  0  0  0  0  0  0
    3.9445    1.9566   19.1789 H   0  0  0  0  0  0  0  0  0  0  0  0
    4.5611    0.5118   21.1631 H   0  0  0  0  0  0  0  0  0  0  0  0
    6.4123   -0.4855   22.2711 H   0  0  0  0  0  0  0  0  0  0  0  0
    5.0637   -3.5757   20.1715 H   0  0  0  0  0  0  0  0  0  0  0  0
    6.4383   -2.7601   19.4868 H   0  0  0  0  0  0  0  0  0  0  0  0
    6.5584   -5.1551   21.4270 H   0  0  0  0  0  0  0  0  0  0  0  0
    6.8019   -5.2305   19.6960 H   0  0  0  0  0  0  0  0  0  0  0  0
    7.9844   -4.3781   20.7234 H   0  0  0  0  0  0  0  0  0  0  0  0
  1  2  1  0
  2  3  1  0
  3  4  1  0
  4  5  2  0
  4  6  1  0
  6  7  1  0
  7  8  2  0
  8  9  1  0
  9 10  2  0
 10 11  1  0
 11 12  2  0
 12 13  1  0
 11 14  1  0
 10 15  1  0
  9 16  1  0
  8 17  1  0
  6 18  1  0
  3 19  1  0
 19 20  1  0
 20 21  1  0
 20 22  1  0
 20 23  1  0
 19 24  1  0
 24 25  2  0
 25 26  1  0
 26 27  2  0
 27 28  1  0
 28 29  2  0
 29 30  1  0
 27 31  1  0
 26 32  1  0
 25 33  1  0
 19 34  1  0
  2 35  1  0
  2 36  1  0
  1 37  1  0
  1 38  1  0
  1 39  1  0
 12  7  1  0
 29 24  1  0
M  END
>  <cnnaffinity>  (1) 
-5.25248

>  <filename>  (1) 
CCN(C(=S)Nc1ccccc1)C(C)c1cccnc1

$$$$
