
     RDKit          3D

 35 36  0  0  0  0  0  0  0  0999 V2000
    9.6252   -1.5650   20.8592 C   0  0  0  0  0  0  0  0  0  0  0  0
    8.7406   -0.3956   21.2676 C   0  0  0  0  0  0  0  0  0  0  0  0
    7.3151   -0.6789   21.0242 N   0  0  0  0  0  0  0  0  0  0  0  0
    6.6252   -1.6456   21.7456 C   0  0  0  0  0  0  0  0  0  0  0  0
    5.5675   -2.1299   21.4155 O   0  0  0  0  0  0  0  0  0  0  0  0
    7.2954   -1.9731   22.8789 O   0  0  0  0  0  0  0  0  0  0  0  0
    6.6964   -3.0017   23.7014 C   0  0  0  0  0  0  0  0  0  0  0  0
    6.8648   -4.3732   23.0831 C   0  0  0  0  0  0  0  0  0  0  0  0
    8.1510   -4.9275   22.9308 C   0  0  0  0  0  0  0  0  0  0  0  0
    8.3224   -6.1849   22.3473 C   0  0  0  0  0  0  0  0  0  0  0  0
    7.2124   -6.9165   21.9191 C   0  0  0  0  0  0  0  0  0  0  0  0
    5.9285   -6.3777   22.0303 C   0  0  0  0  0  0  0  0  0  0  0  0
    5.7746   -5.1261   22.6224 C   0  0  0  0  0  0  0  0  0  0  0  0
    4.5173   -4.6611   22.7866 F   0  0  0  0  0  0  0  0  0  0  0  0
    5.0487   -6.9029   21.6782 H   0  0  0  0  0  0  0  0  0  0  0  0
    7.3563   -7.9210   21.5307 H   0  0  0  0  0  0  0  0  0  0  0  0
    9.3083   -6.6126   22.2147 H   0  0  0  0  0  0  0  0  0  0  0  0
    9.0101   -4.3732   23.3182 H   0  0  0  0  0  0  0  0  0  0  0  0
    7.2588   -2.9171   24.6426 H   0  0  0  0  0  0  0  0  0  0  0  0
    5.6417   -2.7730   23.8732 H   0  0  0  0  0  0  0  0  0  0  0  0
    6.6515   -0.0249   19.9371 C   0  0  0  0  0  0  0  0  0  0  0  0
    5.4325    0.6294   20.1698 C   0  0  0  0  0  0  0  0  0  0  0  0
    4.8113    1.3014   19.1137 C   0  0  0  0  0  0  0  0  0  0  0  0
    5.4184    1.2807   17.8526 C   0  0  0  0  0  0  0  0  0  0  0  0
    6.5806    0.6571   17.6012 N   0  0  0  0  0  0  0  0  0  0  0  0
    7.1848    0.0381   18.6268 C   0  0  0  0  0  0  0  0  0  0  0  0
    8.1408   -0.4286   18.3933 H   0  0  0  0  0  0  0  0  0  0  0  0
    4.9576    1.7822   17.0065 H   0  0  0  0  0  0  0  0  0  0  0  0
    3.8797    1.8429   19.2537 H   0  0  0  0  0  0  0  0  0  0  0  0
    5.0006    0.6031   21.1698 H   0  0  0  0  0  0  0  0  0  0  0  0
    8.8998   -0.1137   22.3172 H   0  0  0  0  0  0  0  0  0  0  0  0
    8.9797    0.4883   20.6645 H   0  0  0  0  0  0  0  0  0  0  0  0
   10.6811   -1.2985   20.9592 H   0  0  0  0  0  0  0  0  0  0  0  0
    9.4266   -1.8071   19.8128 H   0  0  0  0  0  0  0  0  0  0  0  0
    9.4469   -2.4611   21.4576 H   0  0  0  0  0  0  0  0  0  0  0  0
  1  2  1  0
  2  3  1  0
  3  4  1  0
  4  5  2  0
  4  6  1  0
  6  7  1  0
  7  8  1  0
  8  9  2  0
  9 10  1  0
 10 11  2  0
 11 12  1  0
 12 13  2  0
 13 14  1  0
 12 15  1  0
 11 16  1  0
 10 17  1  0
  9 18  1  0
  7 19  1  0
  7 20  1  0
  3 21  1  0
 21 22  2  0
 22 23  1  0
 23 24  2  0
 24 25  1  0
 25 26  2  0
 26 27  1  0
 24 28  1  0
 23 29  1  0
 22 30  1  0
  2 31  1  0
  2 32  1  0
  1 33  1  0
  1 34  1  0
  1 35  1  0
 13  8  1  0
 26 21  1  0
M  END
>  <cnnaffinity>  (1) 
-4.8908

>  <filename>  (1) 
CCN(C(=O)OCc1ccccc1F)c1cccnc1

$$$$
