
     RDKit          3D

 32 33  0  0  0  0  0  0  0  0999 V2000
    9.0918   -2.0599   20.8845 C   0  0  0  0  0  0  0  0  0  0  0  0
    7.5696   -2.0325   21.0358 C   0  0  0  0  0  0  0  0  0  0  0  0
    7.0731   -0.6550   21.2817 N   0  0  0  0  0  0  0  0  0  0  0  0
    7.3451   -0.1162   22.5481 C   0  0  0  0  0  0  0  0  0  0  0  0
    7.4510   -0.8603   23.5124 O   0  0  0  0  0  0  0  0  0  0  0  0
    7.5822    1.4232   22.7434 C   0  0  0  0  0  0  0  0  0  0  0  0
    8.0071    2.1765   21.7166 N   0  0  0  0  0  0  0  0  0  0  0  0
    8.2627    3.4629   21.9814 C   0  0  0  0  0  0  0  0  0  0  0  0
    8.1711    4.0588   23.1635 N   0  0  0  0  0  0  0  0  0  0  0  0
    7.7370    3.3244   24.1951 C   0  0  0  0  0  0  0  0  0  0  0  0
    7.5537    4.0143   25.5717 C   0  0  0  0  0  0  0  0  0  0  0  0
    6.2990    3.8245   26.0351 F   0  0  0  0  0  0  0  0  0  0  0  0
    8.4004    3.5074   26.4906 F   0  0  0  0  0  0  0  0  0  0  0  0
    7.7619    5.3306   25.5434 F   0  0  0  0  0  0  0  0  0  0  0  0
    7.4303    1.9676   24.0325 C   0  0  0  0  0  0  0  0  0  0  0  0
    7.0908    1.3487   24.8510 H   0  0  0  0  0  0  0  0  0  0  0  0
    8.5559    4.0877   21.1575 H   0  0  0  0  0  0  0  0  0  0  0  0
    6.5170    0.0590   20.1740 C   0  0  0  0  0  0  0  0  0  0  0  0
    5.3139    0.7826   20.2677 C   0  0  0  0  0  0  0  0  0  0  0  0
    4.8175    1.3967   19.1084 C   0  0  0  0  0  0  0  0  0  0  0  0
    5.5294    1.2871   17.9090 C   0  0  0  0  0  0  0  0  0  0  0  0
    6.6784    0.6038   17.8001 N   0  0  0  0  0  0  0  0  0  0  0  0
    7.1412    0.0129   18.9067 C   0  0  0  0  0  0  0  0  0  0  0  0
    8.0614   -0.5550   18.7957 H   0  0  0  0  0  0  0  0  0  0  0  0
    5.1672    1.7504   16.9934 H   0  0  0  0  0  0  0  0  0  0  0  0
    3.8913    1.9646   19.1197 H   0  0  0  0  0  0  0  0  0  0  0  0
    4.7855    0.8598   21.2190 H   0  0  0  0  0  0  0  0  0  0  0  0
    7.0687   -2.4044   20.1358 H   0  0  0  0  0  0  0  0  0  0  0  0
    7.2488   -2.6708   21.8668 H   0  0  0  0  0  0  0  0  0  0  0  0
    9.5644   -1.8217   21.8399 H   0  0  0  0  0  0  0  0  0  0  0  0
    9.4408   -3.0467   20.5764 H   0  0  0  0  0  0  0  0  0  0  0  0
    9.4548   -1.3383   20.1425 H   0  0  0  0  0  0  0  0  0  0  0  0
  1  2  1  0
  2  3  1  0
  3  4  1  0
  4  5  2  0
  4  6  1  0
  6  7  2  0
  7  8  1  0
  8  9  2  0
  9 10  1  0
 10 11  1  0
 11 12  1  0
 11 13  1  0
 11 14  1  0
 10 15  2  0
 15 16  1  0
  8 17  1  0
  3 18  1  0
 18 19  2  0
 19 20  1  0
 20 21  2  0
 21 22  1  0
 22 23  2  0
 23 24  1  0
 21 25  1  0
 20 26  1  0
 19 27  1  0
  2 28  1  0
  2 29  1  0
  1 30  1  0
  1 31  1  0
  1 32  1  0
 15  6  1  0
 23 18  1  0
M  END
>  <cnnaffinity>  (1) 
-5.00583

>  <filename>  (1) 
CCN(C(=O)c1cc(C(F)(F)F)ncn1)c1cccnc1

$$$$
