
     RDKit          3D

 34 36  0  0  0  0  0  0  0  0999 V2000
    6.2327   -2.7788   21.3811 C   0  0  0  0  0  0  0  0  0  0  0  0
    7.4379   -1.9251   21.0332 C   0  0  0  0  0  0  0  0  0  0  0  0
    7.2130   -0.4813   21.1775 N   0  0  0  0  0  0  0  0  0  0  0  0
    7.3360    0.0519   22.4715 C   0  0  0  0  0  0  0  0  0  0  0  0
    7.3037   -0.6758   23.4503 O   0  0  0  0  0  0  0  0  0  0  0  0
    7.5643    1.5279   22.5843 C   0  0  0  0  0  0  0  0  0  0  0  0
    8.1920    2.2963   21.6488 C   0  0  0  0  0  0  0  0  0  0  0  0
    8.3282    3.9559   22.0859 S   0  0  0  0  0  0  0  0  0  0  0  0
    7.4606    3.6849   23.5691 C   0  0  0  0  0  0  0  0  0  0  0  0
    7.0266    4.6673   24.4824 C   0  0  0  0  0  0  0  0  0  0  0  0
    6.2807    4.2553   25.5822 C   0  0  0  0  0  0  0  0  0  0  0  0
    5.9833    2.8902   25.7834 C   0  0  0  0  0  0  0  0  0  0  0  0
    6.4319    1.9242   24.8919 C   0  0  0  0  0  0  0  0  0  0  0  0
    7.1509    2.3177   23.7386 C   0  0  0  0  0  0  0  0  0  0  0  0
    6.2405    0.8701   25.0625 H   0  0  0  0  0  0  0  0  0  0  0  0
    5.3792    2.5922   26.6383 H   0  0  0  0  0  0  0  0  0  0  0  0
    5.8993    4.9915   26.2857 H   0  0  0  0  0  0  0  0  0  0  0  0
    7.2337    5.7226   24.3197 H   0  0  0  0  0  0  0  0  0  0  0  0
    8.5762    1.9833   20.6884 H   0  0  0  0  0  0  0  0  0  0  0  0
    6.5791    0.1712   20.0592 C   0  0  0  0  0  0  0  0  0  0  0  0
    5.3549    0.8497   20.1820 C   0  0  0  0  0  0  0  0  0  0  0  0
    4.7808    1.4018   19.0291 C   0  0  0  0  0  0  0  0  0  0  0  0
    5.4642    1.3235   17.8124 C   0  0  0  0  0  0  0  0  0  0  0  0
    6.6427    0.6960   17.6737 N   0  0  0  0  0  0  0  0  0  0  0  0
    7.1577    0.1186   18.7665 C   0  0  0  0  0  0  0  0  0  0  0  0
    8.0808   -0.4420   18.6265 H   0  0  0  0  0  0  0  0  0  0  0  0
    5.0504    1.7711   16.9110 H   0  0  0  0  0  0  0  0  0  0  0  0
    3.8102    1.8836   19.0592 H   0  0  0  0  0  0  0  0  0  0  0  0
    4.8623    0.9349   21.1512 H   0  0  0  0  0  0  0  0  0  0  0  0
    7.7087   -2.0789   19.9941 H   0  0  0  0  0  0  0  0  0  0  0  0
    8.2933   -2.2141   21.6474 H   0  0  0  0  0  0  0  0  0  0  0  0
    5.9856   -2.6959   22.4405 H   0  0  0  0  0  0  0  0  0  0  0  0
    6.4597   -3.8258   21.1584 H   0  0  0  0  0  0  0  0  0  0  0  0
    5.3719   -2.4784   20.7810 H   0  0  0  0  0  0  0  0  0  0  0  0
  1  2  1  0
  2  3  1  0
  3  4  1  0
  4  5  2  0
  4  6  1  0
  6  7  2  0
  7  8  1  0
  8  9  1  0
  9 10  2  0
 10 11  1  0
 11 12  2  0
 12 13  1  0
 13 14  2  0
 13 15  1  0
 12 16  1  0
 11 17  1  0
 10 18  1  0
  7 19  1  0
  3 20  1  0
 20 21  2  0
 21 22  1  0
 22 23  2  0
 23 24  1  0
 24 25  2  0
 25 26  1  0
 23 27  1  0
 22 28  1  0
 21 29  1  0
  2 30  1  0
  2 31  1  0
  1 32  1  0
  1 33  1  0
  1 34  1  0
 14  6  1  0
 25 20  1  0
 14  9  1  0
M  END
>  <cnnaffinity>  (1) 
-4.75633

>  <filename>  (1) 
CCN(C(=O)c1csc2ccccc12)c1cccnc1

$$$$
