
     RDKit          3D

 41 42  0  0  0  0  0  0  0  0999 V2000
    9.1419   -1.9800   20.8955 C   0  0  0  0  0  0  0  0  0  0  0  0
    7.6206   -2.0347   21.0053 C   0  0  0  0  0  0  0  0  0  0  0  0
    7.0432   -0.6961   21.2363 N   0  0  0  0  0  0  0  0  0  0  0  0
    7.2020   -0.1880   22.5336 C   0  0  0  0  0  0  0  0  0  0  0  0
    7.2967   -0.9508   23.4815 O   0  0  0  0  0  0  0  0  0  0  0  0
    7.3051    1.3097   22.7453 C   0  0  0  0  0  0  0  0  0  0  0  0
    6.9272    1.8056   24.0057 C   0  0  0  0  0  0  0  0  0  0  0  0
    7.0601    3.1564   24.3126 C   0  0  0  0  0  0  0  0  0  0  0  0
    7.6334    4.0343   23.3803 C   0  0  0  0  0  0  0  0  0  0  0  0
    7.9083    5.7421   23.7645 S   0  0  0  0  0  0  0  0  0  0  0  0
    9.6389    5.6725   24.3720 C   0  0  0  0  0  0  0  0  0  0  0  0
    9.8726    6.9704   25.1433 C   0  0  0  0  0  0  0  0  0  0  0  0
   10.9198    7.0625   25.4535 H   0  0  0  0  0  0  0  0  0  0  0  0
    9.2523    7.0194   26.0430 H   0  0  0  0  0  0  0  0  0  0  0  0
    9.6221    7.8350   24.5224 H   0  0  0  0  0  0  0  0  0  0  0  0
   10.6647    5.4598   23.2606 C   0  0  0  0  0  0  0  0  0  0  0  0
   11.6770    5.4868   23.6784 H   0  0  0  0  0  0  0  0  0  0  0  0
   10.5458    4.4880   22.7751 H   0  0  0  0  0  0  0  0  0  0  0  0
   10.5944    6.2346   22.4907 H   0  0  0  0  0  0  0  0  0  0  0  0
    9.6865    4.8166   25.0532 H   0  0  0  0  0  0  0  0  0  0  0  0
    8.0195    3.5456   22.1255 C   0  0  0  0  0  0  0  0  0  0  0  0
    7.8322    2.2033   21.7950 C   0  0  0  0  0  0  0  0  0  0  0  0
    8.0631    1.8554   20.7944 H   0  0  0  0  0  0  0  0  0  0  0  0
    8.4669    4.2371   21.4210 H   0  0  0  0  0  0  0  0  0  0  0  0
    6.7670    3.5369   25.2867 H   0  0  0  0  0  0  0  0  0  0  0  0
    6.5354    1.1221   24.7569 H   0  0  0  0  0  0  0  0  0  0  0  0
    6.4709   -0.0054   20.1235 C   0  0  0  0  0  0  0  0  0  0  0  0
    5.2953    0.7575   20.2363 C   0  0  0  0  0  0  0  0  0  0  0  0
    4.8262    1.4198   19.0957 C   0  0  0  0  0  0  0  0  0  0  0  0
    5.5123    1.2861   17.8844 C   0  0  0  0  0  0  0  0  0  0  0  0
    6.6233    0.5468   17.7491 N   0  0  0  0  0  0  0  0  0  0  0  0
    7.0767   -0.0726   18.8434 C   0  0  0  0  0  0  0  0  0  0  0  0
    7.9902   -0.6512   18.7237 H   0  0  0  0  0  0  0  0  0  0  0  0
    5.1618    1.7816   16.9837 H   0  0  0  0  0  0  0  0  0  0  0  0
    3.9394    2.0427   19.1309 H   0  0  0  0  0  0  0  0  0  0  0  0
    4.7807    0.8453   21.1945 H   0  0  0  0  0  0  0  0  0  0  0  0
    7.3182   -2.6875   21.8287 H   0  0  0  0  0  0  0  0  0  0  0  0
    7.1556   -2.4286   20.0985 H   0  0  0  0  0  0  0  0  0  0  0  0
    9.5424   -2.9471   20.5857 H   0  0  0  0  0  0  0  0  0  0  0  0
    9.5890   -1.7164   21.8586 H   0  0  0  0  0  0  0  0  0  0  0  0
    9.4692   -1.2330   20.1655 H   0  0  0  0  0  0  0  0  0  0  0  0
  1  2  1  0
  2  3  1  0
  3  4  1  0
  4  5  2  0
  4  6  1  0
  6  7  2  0
  7  8  1  0
  8  9  2  0
  9 10  1  0
 10 11  1  0
 11 12  1  0
 12 13  1  0
 12 14  1  0
 12 15  1  0
 11 16  1  0
 16 17  1  0
 16 18  1  0
 16 19  1  0
 11 20  1  0
  9 21  1  0
 21 22  2  0
 22 23  1  0
 21 24  1  0
  8 25  1  0
  7 26  1  0
  3 27  1  0
 27 28  2  0
 28 29  1  0
 29 30  2  0
 30 31  1  0
 31 32  2  0
 32 33  1  0
 30 34  1  0
 29 35  1  0
 28 36  1  0
  2 37  1  0
  2 38  1  0
  1 39  1  0
  1 40  1  0
  1 41  1  0
 22  6  1  0
 32 27  1  0
M  END
>  <cnnaffinity>  (1) 
-4.77665

>  <filename>  (1) 
CCN(C(=O)c1ccc(SC(C)C)cc1)c1cccnc1

$$$$
