
     RDKit          3D

 44 45  0  0  0  0  0  0  0  0999 V2000
    4.9739    1.7048   16.9343 H   0  0  0  0  0  0  0  0  0  0  0  0
    5.4970    1.2641   17.7802 C   0  0  0  0  0  0  0  0  0  0  0  0
    6.6946    0.7150   17.5238 N   0  0  0  0  0  0  0  0  0  0  0  0
    7.3617    0.1501   18.5400 C   0  0  0  0  0  0  0  0  0  0  0  0
    8.3205   -0.3049   18.2811 H   0  0  0  0  0  0  0  0  0  0  0  0
    6.8827    0.0864   19.8799 C   0  0  0  0  0  0  0  0  0  0  0  0
    7.5788   -0.5153   20.9301 N   0  0  0  0  0  0  0  0  0  0  0  0
    8.9314   -1.0342   20.8011 C   0  0  0  0  0  0  0  0  0  0  0  0
    9.5839   -0.2689   20.3773 H   0  0  0  0  0  0  0  0  0  0  0  0
    8.9766   -1.9004   20.1259 H   0  0  0  0  0  0  0  0  0  0  0  0
    9.3092   -1.4185   22.2310 C   0  0  0  0  0  0  0  0  0  0  0  0
   10.0434   -2.2255   22.2421 H   0  0  0  0  0  0  0  0  0  0  0  0
    9.7575   -0.5642   22.7449 H   0  0  0  0  0  0  0  0  0  0  0  0
    7.9765   -1.8009   22.8892 C   0  0  0  0  0  0  0  0  0  0  0  0
    7.9186   -1.5070   23.9377 H   0  0  0  0  0  0  0  0  0  0  0  0
    7.8004   -2.8790   22.8681 H   0  0  0  0  0  0  0  0  0  0  0  0
    6.8852   -1.0790   22.0733 C   0  0  2  0  0  0  0  0  0  0  0  0
    6.4215   -0.2752   22.6482 H   0  0  0  0  0  0  0  0  0  0  0  0
    5.8028   -1.9155   21.7259 O   0  0  0  0  0  0  0  0  0  0  0  0
    6.0659   -3.1287   21.0317 C   0  0  0  0  0  0  0  0  0  0  0  0
    7.1075   -3.4658   21.1450 H   0  0  0  0  0  0  0  0  0  0  0  0
    5.8841   -2.9877   19.9559 H   0  0  0  0  0  0  0  0  0  0  0  0
    5.1093   -4.1983   21.5687 C   0  0  0  0  0  0  0  0  0  0  0  0
    4.1173   -3.7258   21.5944 H   0  0  0  0  0  0  0  0  0  0  0  0
    5.0617   -5.0018   20.8211 H   0  0  0  0  0  0  0  0  0  0  0  0
    5.4256   -4.7546   22.8934 N   0  0  0  0  0  0  0  0  0  0  0  0
    4.6210   -4.1878   23.9797 C   0  0  0  0  0  0  0  0  0  0  0  0
    3.6819   -4.7547   24.1314 H   0  0  0  0  0  0  0  0  0  0  0  0
    4.3231   -3.1754   23.6966 H   0  0  0  0  0  0  0  0  0  0  0  0
    5.3852   -4.1021   25.2941 C   0  0  0  0  0  0  0  0  0  0  0  0
    6.2522   -3.4425   25.1946 H   0  0  0  0  0  0  0  0  0  0  0  0
    4.7381   -3.7010   26.0818 H   0  0  0  0  0  0  0  0  0  0  0  0
    5.7521   -5.0778   25.6256 H   0  0  0  0  0  0  0  0  0  0  0  0
    5.4863   -6.2164   22.9278 C   0  0  0  0  0  0  0  0  0  0  0  0
    5.5021   -6.5539   23.9710 H   0  0  0  0  0  0  0  0  0  0  0  0
    4.5817   -6.6780   22.4834 H   0  0  0  0  0  0  0  0  0  0  0  0
    6.7387   -6.7014   22.2171 C   0  0  0  0  0  0  0  0  0  0  0  0
    6.8061   -7.7926   22.1985 H   0  0  0  0  0  0  0  0  0  0  0  0
    6.7553   -6.3491   21.1820 H   0  0  0  0  0  0  0  0  0  0  0  0
    7.6214   -6.2878   22.7135 H   0  0  0  0  0  0  0  0  0  0  0  0
    5.6164    0.6675   20.1107 C   0  0  0  0  0  0  0  0  0  0  0  0
    5.1840    0.6318   21.1111 H   0  0  0  0  0  0  0  0  0  0  0  0
    4.9255    1.2583   19.0571 C   0  0  0  0  0  0  0  0  0  0  0  0
    3.9469    1.7052   19.2123 H   0  0  0  0  0  0  0  0  0  0  0  0
  1  2  1  0
  2  3  2  0
  3  4  1  0
  4  5  1  0
  4  6  2  0
  6  7  1  0
  7  8  1  0
  8  9  1  0
  8 10  1  0
  8 11  1  0
 11 12  1  0
 11 13  1  0
 11 14  1  0
 14 15  1  0
 14 16  1  0
 14 17  1  0
 17 18  1  1
 17 19  1  0
 19 20  1  0
 20 21  1  0
 20 22  1  0
 20 23  1  0
 23 24  1  0
 23 25  1  0
 23 26  1  0
 26 27  1  0
 27 28  1  0
 27 29  1  0
 27 30  1  0
 30 31  1  0
 30 32  1  0
 30 33  1  0
 26 34  1  0
 34 35  1  0
 34 36  1  0
 34 37  1  0
 37 38  1  0
 37 39  1  0
 37 40  1  0
  6 41  1  0
 41 42  1  0
 41 43  2  0
 43 44  1  0
 43  2  1  0
 17  7  1  0
M  END
>  <cnnaffinity>  (1) 
-4.58786

>  <filename>  (1) 
CCN(CC)CCO[C@H]1CCCN1c1cccnc1

$$$$
