
     RDKit          3D

 39 40  0  0  0  0  0  0  0  0999 V2000
    5.0882    1.7467   16.7693 H   0  0  0  0  0  0  0  0  0  0  0  0
    5.5026    1.2419   17.6402 C   0  0  0  0  0  0  0  0  0  0  0  0
    6.6309    0.5418   17.4374 N   0  0  0  0  0  0  0  0  0  0  0  0
    7.1633   -0.0851   18.4908 C   0  0  0  0  0  0  0  0  0  0  0  0
    8.0644   -0.6644   18.3002 H   0  0  0  0  0  0  0  0  0  0  0  0
    6.6202   -0.0296   19.7901 C   0  0  0  0  0  0  0  0  0  0  0  0
    7.3120   -0.6897   20.8971 C   0  0  0  0  0  0  0  0  0  0  0  0
    8.3493   -1.5731   20.6695 N   0  0  0  0  0  0  0  0  0  0  0  0
    8.7472   -1.9762   21.8354 C   0  0  0  0  0  0  0  0  0  0  0  0
    9.5598   -2.6693   22.0041 H   0  0  0  0  0  0  0  0  0  0  0  0
    8.0279   -1.4076   22.8517 N   0  0  0  0  0  0  0  0  0  0  0  0
    8.1972   -1.5076   23.8414 H   0  0  0  0  0  0  0  0  0  0  0  0
    7.1264   -0.5586   22.2562 C   0  0  0  0  0  0  0  0  0  0  0  0
    6.2877    0.2528   22.9405 O   0  0  0  0  0  0  0  0  0  0  0  0
    6.6099    0.6963   24.2752 C   0  0  0  0  0  0  0  0  0  0  0  0
    6.6948   -0.1649   24.9528 H   0  0  0  0  0  0  0  0  0  0  0  0
    5.7336    1.2699   24.5800 H   0  0  0  0  0  0  0  0  0  0  0  0
    7.8613    1.5894   24.3488 C   0  0  0  0  0  0  0  0  0  0  0  0
    7.7587    2.3956   23.6132 H   0  0  0  0  0  0  0  0  0  0  0  0
    8.7516    1.0100   24.0412 H   0  0  0  0  0  0  0  0  0  0  0  0
    8.0156    2.1760   25.6808 N   0  0  0  0  0  0  0  0  0  0  0  0
    8.1661    1.1839   26.7490 C   0  0  0  0  0  0  0  0  0  0  0  0
    7.1830    0.7314   26.9346 H   0  0  0  0  0  0  0  0  0  0  0  0
    8.3957    1.7234   27.6720 H   0  0  0  0  0  0  0  0  0  0  0  0
    9.1972    0.0622   26.5340 C   0  0  0  0  0  0  0  0  0  0  0  0
   10.1082    0.4281   26.0496 H   0  0  0  0  0  0  0  0  0  0  0  0
    8.7960   -0.7382   25.9012 H   0  0  0  0  0  0  0  0  0  0  0  0
    9.4827   -0.3903   27.4897 H   0  0  0  0  0  0  0  0  0  0  0  0
    8.9363    3.3131   25.7549 C   0  0  0  0  0  0  0  0  0  0  0  0
    9.0962    3.5324   26.8178 H   0  0  0  0  0  0  0  0  0  0  0  0
    9.9329    3.0792   25.3298 H   0  0  0  0  0  0  0  0  0  0  0  0
    8.3839    4.5794   25.1018 C   0  0  0  0  0  0  0  0  0  0  0  0
    8.1806    4.4122   24.0397 H   0  0  0  0  0  0  0  0  0  0  0  0
    7.4530    4.9085   25.5803 H   0  0  0  0  0  0  0  0  0  0  0  0
    9.1283    5.3814   25.1669 H   0  0  0  0  0  0  0  0  0  0  0  0
    5.4223    0.6831   19.9797 C   0  0  0  0  0  0  0  0  0  0  0  0
    4.9684    0.7245   20.9728 H   0  0  0  0  0  0  0  0  0  0  0  0
    4.8590    1.3258   18.8823 C   0  0  0  0  0  0  0  0  0  0  0  0
    3.9426    1.8997   18.9766 H   0  0  0  0  0  0  0  0  0  0  0  0
  1  2  1  0
  2  3  2  0
  3  4  1  0
  4  5  1  0
  4  6  2  0
  6  7  1  0
  7  8  1  0
  8  9  2  0
  9 10  1  0
  9 11  1  0
 11 12  1  0
 11 13  1  0
 13 14  1  0
 14 15  1  0
 15 16  1  0
 15 17  1  0
 15 18  1  0
 18 19  1  0
 18 20  1  0
 18 21  1  0
 21 22  1  0
 22 23  1  0
 22 24  1  0
 22 25  1  0
 25 26  1  0
 25 27  1  0
 25 28  1  0
 21 29  1  0
 29 30  1  0
 29 31  1  0
 29 32  1  0
 32 33  1  0
 32 34  1  0
 32 35  1  0
  6 36  1  0
 36 37  1  0
 36 38  2  0
 38 39  1  0
 38  2  1  0
 13  7  2  0
M  END
>  <cnnaffinity>  (1) 
-4.92259

>  <filename>  (1) 
CCN(CC)CCOc1[nH]cnc1-c1cccnc1

$$$$
