
     RDKit          3D

 40 41  0  0  0  0  0  0  0  0999 V2000
    4.9922    1.8369   16.9416 H   0  0  0  0  0  0  0  0  0  0  0  0
    5.4755    1.3345   17.7797 C   0  0  0  0  0  0  0  0  0  0  0  0
    6.6665    0.7733   17.5244 N   0  0  0  0  0  0  0  0  0  0  0  0
    7.2832    0.1462   18.5344 C   0  0  0  0  0  0  0  0  0  0  0  0
    8.2586   -0.2734   18.3046 H   0  0  0  0  0  0  0  0  0  0  0  0
    6.7282   -0.0066   19.8175 C   0  0  0  0  0  0  0  0  0  0  0  0
    7.4624   -0.8348   20.8326 C   0  0  0  0  0  0  0  0  0  0  0  0
    8.7563   -0.6218   20.9073 N   0  0  0  0  0  0  0  0  0  0  0  0
    9.4667   -1.2222   21.9004 N   0  0  0  0  0  0  0  0  0  0  0  0
   10.8660   -0.8133   22.0435 C   0  0  0  0  0  0  0  0  0  0  0  0
   11.2786   -0.7433   21.0330 H   0  0  0  0  0  0  0  0  0  0  0  0
   11.3858   -1.6078   22.5848 H   0  0  0  0  0  0  0  0  0  0  0  0
   11.0710    0.5501   22.7293 C   0  0  0  0  0  0  0  0  0  0  0  0
   12.1534    0.7701   22.7556 H   0  0  0  0  0  0  0  0  0  0  0  0
   10.6370    1.2737   22.0310 H   0  0  0  0  0  0  0  0  0  0  0  0
   10.4154    0.7468   24.0221 N   0  0  0  0  0  0  0  0  0  0  0  0
   11.0590    0.2128   25.2204 C   0  0  0  0  0  0  0  0  0  0  0  0
   11.8711    0.8572   25.5940 H   0  0  0  0  0  0  0  0  0  0  0  0
   11.5305   -0.7380   24.9714 H   0  0  0  0  0  0  0  0  0  0  0  0
   10.0472   -0.0424   26.3355 C   0  0  0  0  0  0  0  0  0  0  0  0
   10.5256   -0.4125   27.2459 H   0  0  0  0  0  0  0  0  0  0  0  0
    9.3131   -0.7829   26.0083 H   0  0  0  0  0  0  0  0  0  0  0  0
    9.4851    0.8534   26.6212 H   0  0  0  0  0  0  0  0  0  0  0  0
    9.9155    2.1111   24.1767 C   0  0  0  0  0  0  0  0  0  0  0  0
    9.2065    2.2987   23.3580 H   0  0  0  0  0  0  0  0  0  0  0  0
    9.3320    2.1627   25.0987 H   0  0  0  0  0  0  0  0  0  0  0  0
   10.9725    3.2172   24.1691 C   0  0  0  0  0  0  0  0  0  0  0  0
   10.5406    4.1424   24.5582 H   0  0  0  0  0  0  0  0  0  0  0  0
   11.3394    3.4053   23.1554 H   0  0  0  0  0  0  0  0  0  0  0  0
   11.8390    2.9547   24.7809 H   0  0  0  0  0  0  0  0  0  0  0  0
    8.8737   -1.9611   22.8844 C   0  0  0  0  0  0  0  0  0  0  0  0
    9.5486   -2.2507   23.6973 H   0  0  0  0  0  0  0  0  0  0  0  0
    7.5694   -2.2965   22.8441 C   0  0  0  0  0  0  0  0  0  0  0  0
    7.0917   -2.9010   23.6019 H   0  0  0  0  0  0  0  0  0  0  0  0
    6.7568   -1.8727   21.7096 C   0  0  0  0  0  0  0  0  0  0  0  0
    5.6410   -2.3310   21.4985 O   0  0  0  0  0  0  0  0  0  0  0  0
    5.5023    0.6339   20.0787 C   0  0  0  0  0  0  0  0  0  0  0  0
    5.0601    0.6010   21.0756 H   0  0  0  0  0  0  0  0  0  0  0  0
    4.8663    1.3113   19.0352 C   0  0  0  0  0  0  0  0  0  0  0  0
    3.9259    1.8315   19.1841 H   0  0  0  0  0  0  0  0  0  0  0  0
  1  2  1  0
  2  3  2  0
  3  4  1  0
  4  5  1  0
  4  6  2  0
  6  7  1  0
  7  8  2  0
  8  9  1  0
  9 10  1  0
 10 11  1  0
 10 12  1  0
 10 13  1  0
 13 14  1  0
 13 15  1  0
 13 16  1  0
 16 17  1  0
 17 18  1  0
 17 19  1  0
 17 20  1  0
 20 21  1  0
 20 22  1  0
 20 23  1  0
 16 24  1  0
 24 25  1  0
 24 26  1  0
 24 27  1  0
 27 28  1  0
 27 29  1  0
 27 30  1  0
  9 31  1  0
 31 32  1  0
 31 33  2  0
 33 34  1  0
 33 35  1  0
 35 36  2  0
  6 37  1  0
 37 38  1  0
 37 39  2  0
 39 40  1  0
 39  2  1  0
 35  7  1  0
M  END
>  <cnnaffinity>  (1) 
-4.98738

>  <filename>  (1) 
CCN(CC)CCn1ccc(=O)c(-c2cccnc2)n1

$$$$
