
     RDKit          3D

 37 37  0  0  0  0  0  0  0  0999 V2000
    8.3309   -2.3179   20.0312 H   0  0  0  0  0  0  0  0  0  0  0  0
    9.1871   -1.9424   20.2813 O   0  0  0  0  0  0  0  0  0  0  0  0
    8.7476   -0.9728   21.1871 C   0  0  2  0  0  0  0  0  0  0  0  0
    8.8610   -1.3383   22.2152 H   0  0  0  0  0  0  0  0  0  0  0  0
    7.3102   -0.8571   20.9420 N   0  0  0  0  0  0  0  0  0  0  0  0
    6.8225   -0.6337   21.7987 H   0  0  0  0  0  0  0  0  0  0  0  0
    6.7170   -0.1022   19.8913 C   0  0  0  0  0  0  0  0  0  0  0  0
    7.2116   -0.0056   18.5634 C   0  0  0  0  0  0  0  0  0  0  0  0
    8.1615   -0.4751   18.3098 H   0  0  0  0  0  0  0  0  0  0  0  0
    6.5936    0.6583   17.5709 N   0  0  0  0  0  0  0  0  0  0  0  0
    5.4382    1.2818   17.8558 C   0  0  0  0  0  0  0  0  0  0  0  0
    4.9516    1.8052   17.0370 H   0  0  0  0  0  0  0  0  0  0  0  0
    4.8596    1.2713   19.1294 C   0  0  0  0  0  0  0  0  0  0  0  0
    3.9183    1.8029   19.2991 H   0  0  0  0  0  0  0  0  0  0  0  0
    5.5113    0.5791   20.1573 C   0  0  0  0  0  0  0  0  0  0  0  0
    5.0849    0.5643   21.1589 H   0  0  0  0  0  0  0  0  0  0  0  0
    9.6042    0.2667   20.9799 C   0  0  0  0  0  0  0  0  0  0  0  0
    9.4723    0.6060   19.9512 H   0  0  0  0  0  0  0  0  0  0  0  0
   10.6441   -0.0627   21.0858 H   0  0  0  0  0  0  0  0  0  0  0  0
    9.2817    1.3939   21.9414 C   0  0  0  0  0  0  0  0  0  0  0  0
    9.9917    2.2390   21.8130 H   0  0  0  0  0  0  0  0  0  0  0  0
    8.2948    1.7962   21.6729 H   0  0  0  0  0  0  0  0  0  0  0  0
    9.2278    0.8923   23.3114 N   0  0  0  0  0  0  0  0  0  0  0  0
    8.4162    1.7311   24.1860 C   0  0  0  0  0  0  0  0  0  0  0  0
    8.7185    1.5578   25.2272 H   0  0  0  0  0  0  0  0  0  0  0  0
    8.5830    2.8063   23.9783 H   0  0  0  0  0  0  0  0  0  0  0  0
    6.9293    1.4043   24.0728 C   0  0  0  0  0  0  0  0  0  0  0  0
    6.7504    0.3514   24.3179 H   0  0  0  0  0  0  0  0  0  0  0  0
    6.3571    2.0246   24.7706 H   0  0  0  0  0  0  0  0  0  0  0  0
    6.5319    1.5896   23.0679 H   0  0  0  0  0  0  0  0  0  0  0  0
   10.5103    0.4840   23.8869 C   0  0  0  0  0  0  0  0  0  0  0  0
   10.9422   -0.3168   23.2710 H   0  0  0  0  0  0  0  0  0  0  0  0
   10.2972    0.0102   24.8561 H   0  0  0  0  0  0  0  0  0  0  0  0
   11.5235    1.6173   24.0724 C   0  0  0  0  0  0  0  0  0  0  0  0
   11.0610    2.4667   24.5882 H   0  0  0  0  0  0  0  0  0  0  0  0
   12.3830    1.2930   24.6637 H   0  0  0  0  0  0  0  0  0  0  0  0
   11.9013    1.9719   23.1080 H   0  0  0  0  0  0  0  0  0  0  0  0
  1  2  1  0
  2  3  1  0
  3  4  1  1
  3  5  1  0
  5  6  1  0
  5  7  1  0
  7  8  2  0
  8  9  1  0
  8 10  1  0
 10 11  2  0
 11 12  1  0
 11 13  1  0
 13 14  1  0
 13 15  2  0
 15 16  1  0
  3 17  1  0
 17 18  1  0
 17 19  1  0
 17 20  1  0
 20 21  1  0
 20 22  1  0
 20 23  1  0
 23 24  1  0
 24 25  1  0
 24 26  1  0
 24 27  1  0
 27 28  1  0
 27 29  1  0
 27 30  1  0
 23 31  1  0
 31 32  1  0
 31 33  1  0
 31 34  1  0
 34 35  1  0
 34 36  1  0
 34 37  1  0
 15  7  1  0
M  END
>  <cnnaffinity>  (1) 
-4.26796

>  <filename>  (1) 
CCN(CC)CC[C@H](O)Nc1cccnc1

$$$$
