
     RDKit          3D

 36 37  0  0  0  0  0  0  0  0999 V2000
    9.2755   -3.2677   22.4085 C   0  0  0  0  0  0  0  0  0  0  0  0
    8.9544   -1.9243   23.0368 C   0  0  0  0  0  0  0  0  0  0  0  0
    7.5127   -1.6559   23.0179 N   0  0  0  0  0  0  0  0  0  0  0  0
    6.8092   -1.7329   24.2997 C   0  0  0  0  0  0  0  0  0  0  0  0
    7.2828   -0.6154   25.2119 C   0  0  0  0  0  0  0  0  0  0  0  0
    8.0948   -0.8937   26.3273 C   0  0  0  0  0  0  0  0  0  0  0  0
    8.5185    0.1247   27.1853 C   0  0  0  0  0  0  0  0  0  0  0  0
    8.1719    1.4531   26.9071 C   0  0  0  0  0  0  0  0  0  0  0  0
    7.4249    1.7615   25.7680 C   0  0  0  0  0  0  0  0  0  0  0  0
    7.0009    0.7330   24.9279 C   0  0  0  0  0  0  0  0  0  0  0  0
    6.1224    1.2017   23.4918 Cl  0  0  0  0  0  0  0  0  0  0  0  0
    7.1627    2.7848   25.5177 H   0  0  0  0  0  0  0  0  0  0  0  0
    8.4850    2.2621   27.5595 H   0  0  0  0  0  0  0  0  0  0  0  0
    9.1168   -0.1180   28.0600 H   0  0  0  0  0  0  0  0  0  0  0  0
    8.4149   -1.9228   26.5094 H   0  0  0  0  0  0  0  0  0  0  0  0
    6.9705   -2.7039   24.7952 H   0  0  0  0  0  0  0  0  0  0  0  0
    5.7404   -1.6539   24.1105 H   0  0  0  0  0  0  0  0  0  0  0  0
    6.8178   -1.6935   21.8202 C   0  0  0  0  0  0  0  0  0  0  0  0
    5.5297   -2.6742   21.4987 S   0  0  0  0  0  0  0  0  0  0  0  0
    7.3832   -0.8217   20.9168 N   0  0  0  0  0  0  0  0  0  0  0  0
    6.6815   -0.1450   19.8606 C   0  0  0  0  0  0  0  0  0  0  0  0
    5.4793    0.5244   20.1289 C   0  0  0  0  0  0  0  0  0  0  0  0
    4.8741    1.2459   19.0949 C   0  0  0  0  0  0  0  0  0  0  0  0
    5.4855    1.2679   17.8381 C   0  0  0  0  0  0  0  0  0  0  0  0
    6.6441    0.6404   17.5725 N   0  0  0  0  0  0  0  0  0  0  0  0
    7.2299   -0.0378   18.5673 C   0  0  0  0  0  0  0  0  0  0  0  0
    8.1917   -0.5038   18.3517 H   0  0  0  0  0  0  0  0  0  0  0  0
    5.0335    1.8128   17.0126 H   0  0  0  0  0  0  0  0  0  0  0  0
    3.9593    1.8076   19.2587 H   0  0  0  0  0  0  0  0  0  0  0  0
    5.0735    0.5058   21.1401 H   0  0  0  0  0  0  0  0  0  0  0  0
    7.9937   -0.2195   21.4456 H   0  0  0  0  0  0  0  0  0  0  0  0
    9.2991   -1.9023   24.0754 H   0  0  0  0  0  0  0  0  0  0  0  0
    9.5042   -1.1167   22.5334 H   0  0  0  0  0  0  0  0  0  0  0  0
   10.3035   -3.5416   22.6639 H   0  0  0  0  0  0  0  0  0  0  0  0
    8.5916   -4.0392   22.7776 H   0  0  0  0  0  0  0  0  0  0  0  0
    9.1620   -3.2128   21.3210 H   0  0  0  0  0  0  0  0  0  0  0  0
  1  2  1  0
  2  3  1  0
  3  4  1  0
  4  5  1  0
  5  6  2  0
  6  7  1  0
  7  8  2  0
  8  9  1  0
  9 10  2  0
 10 11  1  0
  9 12  1  0
  8 13  1  0
  7 14  1  0
  6 15  1  0
  4 16  1  0
  4 17  1  0
  3 18  1  0
 18 19  2  0
 18 20  1  0
 20 21  1  0
 21 22  2  0
 22 23  1  0
 23 24  2  0
 24 25  1  0
 25 26  2  0
 26 27  1  0
 24 28  1  0
 23 29  1  0
 22 30  1  0
 20 31  1  0
  2 32  1  0
  2 33  1  0
  1 34  1  0
  1 35  1  0
  1 36  1  0
 10  5  1  0
 26 21  1  0
M  END
>  <cnnaffinity>  (1) 
-4.66774

>  <filename>  (1) 
CCN(Cc1ccccc1Cl)C(=S)Nc1cccnc1

$$$$
