
     RDKit          3D

 47 48  0  0  0  0  0  0  0  0999 V2000
    4.9367    1.9334   16.9898 H   0  0  0  0  0  0  0  0  0  0  0  0
    5.4135    1.3671   17.7851 C   0  0  0  0  0  0  0  0  0  0  0  0
    6.5605    0.7430   17.4644 N   0  0  0  0  0  0  0  0  0  0  0  0
    7.1872    0.0542   18.4291 C   0  0  0  0  0  0  0  0  0  0  0  0
    8.1173   -0.4336   18.1322 H   0  0  0  0  0  0  0  0  0  0  0  0
    6.7107   -0.0828   19.7637 C   0  0  0  0  0  0  0  0  0  0  0  0
    7.4005   -0.8503   20.7428 N   0  0  0  0  0  0  0  0  0  0  0  0
    6.6757   -1.6093   21.7701 C   0  0  0  0  0  0  0  0  0  0  0  0
    5.6606   -1.8101   21.4124 H   0  0  0  0  0  0  0  0  0  0  0  0
    6.6076   -1.0279   22.7063 H   0  0  0  0  0  0  0  0  0  0  0  0
    7.4260   -2.9209   22.0470 C   0  0  0  0  0  0  0  0  0  0  0  0
    7.4218   -3.5167   21.1254 H   0  0  0  0  0  0  0  0  0  0  0  0
    6.8920   -3.5034   22.8082 H   0  0  0  0  0  0  0  0  0  0  0  0
    8.8737   -2.6472   22.4835 C   0  0  0  0  0  0  0  0  0  0  0  0
    9.4352   -3.5809   22.6075 H   0  0  0  0  0  0  0  0  0  0  0  0
    8.8751   -2.1528   23.4647 H   0  0  0  0  0  0  0  0  0  0  0  0
    9.5705   -1.7300   21.4650 C   0  0  0  0  0  0  0  0  0  0  0  0
    9.7275   -2.2633   20.5235 H   0  0  0  0  0  0  0  0  0  0  0  0
   10.5587   -1.4193   21.8244 H   0  0  0  0  0  0  0  0  0  0  0  0
    8.7423   -0.4781   21.1731 C   0  0  2  0  0  0  0  0  0  0  0  0
    9.2055    0.1085   20.3679 H   0  0  0  0  0  0  0  0  0  0  0  0
    8.7450    0.2593   22.3885 O   0  0  0  0  0  0  0  0  0  0  0  0
    8.4076    1.6438   22.3296 C   0  0  0  0  0  0  0  0  0  0  0  0
    7.5824    1.8122   21.6126 H   0  0  0  0  0  0  0  0  0  0  0  0
    8.0379    1.8986   23.3295 H   0  0  0  0  0  0  0  0  0  0  0  0
    9.5983    2.5640   22.0050 C   0  0  0  0  0  0  0  0  0  0  0  0
   10.1066    2.1693   21.1020 H   0  0  0  0  0  0  0  0  0  0  0  0
    9.1592    3.5219   21.7139 H   0  0  0  0  0  0  0  0  0  0  0  0
   10.5158    2.8452   23.1129 N   0  0  0  0  0  0  0  0  0  0  0  0
   11.3509    4.0332   22.9039 C   0  0  0  0  0  0  0  0  0  0  0  0
   10.8043    4.7621   22.2918 H   0  0  0  0  0  0  0  0  0  0  0  0
   12.2663    3.7781   22.3372 H   0  0  0  0  0  0  0  0  0  0  0  0
   11.7115    4.6651   24.2461 C   0  0  0  0  0  0  0  0  0  0  0  0
   12.0815    3.8986   24.9265 H   0  0  0  0  0  0  0  0  0  0  0  0
   10.8195    5.0997   24.7108 H   0  0  0  0  0  0  0  0  0  0  0  0
   12.4814    5.4378   24.1301 H   0  0  0  0  0  0  0  0  0  0  0  0
   11.2755    1.6813   23.6013 C   0  0  0  0  0  0  0  0  0  0  0  0
   12.3090    1.9808   23.8186 H   0  0  0  0  0  0  0  0  0  0  0  0
   11.3648    0.8945   22.8357 H   0  0  0  0  0  0  0  0  0  0  0  0
   10.6878    1.0944   24.8815 C   0  0  0  0  0  0  0  0  0  0  0  0
   10.7195    1.8429   25.6816 H   0  0  0  0  0  0  0  0  0  0  0  0
    9.6497    0.7879   24.7412 H   0  0  0  0  0  0  0  0  0  0  0  0
   11.2607    0.2176   25.2097 H   0  0  0  0  0  0  0  0  0  0  0  0
    5.4979    0.5685   20.0599 C   0  0  0  0  0  0  0  0  0  0  0  0
    5.1056    0.5026   21.0752 H   0  0  0  0  0  0  0  0  0  0  0  0
    4.8457    1.3033   19.0622 C   0  0  0  0  0  0  0  0  0  0  0  0
    3.9147    1.8269   19.2623 H   0  0  0  0  0  0  0  0  0  0  0  0
  1  2  1  0
  2  3  2  0
  3  4  1  0
  4  5  1  0
  4  6  2  0
  6  7  1  0
  7  8  1  0
  8  9  1  0
  8 10  1  0
  8 11  1  0
 11 12  1  0
 11 13  1  0
 11 14  1  0
 14 15  1  0
 14 16  1  0
 14 17  1  0
 17 18  1  0
 17 19  1  0
 17 20  1  0
 20 21  1  6
 20 22  1  0
 22 23  1  0
 23 24  1  0
 23 25  1  0
 23 26  1  0
 26 27  1  0
 26 28  1  0
 26 29  1  0
 29 30  1  0
 30 31  1  0
 30 32  1  0
 30 33  1  0
 33 34  1  0
 33 35  1  0
 33 36  1  0
 29 37  1  0
 37 38  1  0
 37 39  1  0
 37 40  1  0
 40 41  1  0
 40 42  1  0
 40 43  1  0
  6 44  1  0
 44 45  1  0
 44 46  2  0
 46 47  1  0
 46  2  1  0
 20  7  1  0
M  END
>  <cnnaffinity>  (1) 
-5.11476

>  <filename>  (1) 
CCN(CC)CCO[C@H]1CCCCN1c1cccnc1

$$$$
