
     RDKit          3D

 40 42  0  0  0  0  0  0  0  0999 V2000
    9.3304    0.6548   21.6416 C   0  0  0  0  0  0  0  0  0  0  0  0
    7.9568    0.1248   22.0297 C   0  0  0  0  0  0  0  0  0  0  0  0
    7.3746   -0.6750   20.9434 N   0  0  0  0  0  0  0  0  0  0  0  0
    7.3563   -2.0659   20.8949 C   0  0  0  0  0  0  0  0  0  0  0  0
    6.5973   -2.6876   20.1703 O   0  0  0  0  0  0  0  0  0  0  0  0
    8.2175   -2.8199   21.9021 C   0  0  0  0  0  0  0  0  0  0  0  0
    7.4422   -3.1292   23.1768 C   0  0  0  0  0  0  0  0  0  0  0  0
    6.0809   -2.9018   23.2185 C   0  0  0  0  0  0  0  0  0  0  0  0
    5.3095   -3.1079   24.3851 C   0  0  0  0  0  0  0  0  0  0  0  0
    5.9116   -3.5770   25.5231 C   0  0  0  0  0  0  0  0  0  0  0  0
    7.3104   -3.8777   25.5318 C   0  0  0  0  0  0  0  0  0  0  0  0
    7.9473   -4.3906   26.6985 C   0  0  0  0  0  0  0  0  0  0  0  0
    9.2861   -4.7041   26.6969 C   0  0  0  0  0  0  0  0  0  0  0  0
   10.0611   -4.5219   25.5224 C   0  0  0  0  0  0  0  0  0  0  0  0
    9.4796   -4.0209   24.3780 C   0  0  0  0  0  0  0  0  0  0  0  0
    8.0912   -3.6701   24.3439 C   0  0  0  0  0  0  0  0  0  0  0  0
   10.0779   -3.8909   23.4802 H   0  0  0  0  0  0  0  0  0  0  0  0
   11.1177   -4.7784   25.5316 H   0  0  0  0  0  0  0  0  0  0  0  0
    9.7550   -5.1005   27.5931 H   0  0  0  0  0  0  0  0  0  0  0  0
    7.3407   -4.5331   27.5883 H   0  0  0  0  0  0  0  0  0  0  0  0
    5.3325   -3.7322   26.4273 H   0  0  0  0  0  0  0  0  0  0  0  0
    4.2475   -2.8775   24.3510 H   0  0  0  0  0  0  0  0  0  0  0  0
    5.5792   -2.5492   22.3256 H   0  0  0  0  0  0  0  0  0  0  0  0
    9.1406   -2.2693   22.1113 H   0  0  0  0  0  0  0  0  0  0  0  0
    8.4995   -3.7413   21.3874 H   0  0  0  0  0  0  0  0  0  0  0  0
    6.6864    0.0344   19.8963 C   0  0  0  0  0  0  0  0  0  0  0  0
    5.4684    0.6762   20.1571 C   0  0  0  0  0  0  0  0  0  0  0  0
    4.8067    1.3188   19.1025 C   0  0  0  0  0  0  0  0  0  0  0  0
    5.3997    1.3039   17.8338 C   0  0  0  0  0  0  0  0  0  0  0  0
    6.5671    0.6959   17.5647 N   0  0  0  0  0  0  0  0  0  0  0  0
    7.1880    0.0794   18.5802 C   0  0  0  0  0  0  0  0  0  0  0  0
    8.1222   -0.4340   18.3530 H   0  0  0  0  0  0  0  0  0  0  0  0
    4.9227    1.7989   16.9917 H   0  0  0  0  0  0  0  0  0  0  0  0
    3.8637    1.8382   19.2518 H   0  0  0  0  0  0  0  0  0  0  0  0
    5.0461    0.6358   21.1630 H   0  0  0  0  0  0  0  0  0  0  0  0
    7.2773    0.9633   22.2368 H   0  0  0  0  0  0  0  0  0  0  0  0
    7.9894   -0.4751   22.9466 H   0  0  0  0  0  0  0  0  0  0  0  0
    9.2415    1.2889   20.7550 H   0  0  0  0  0  0  0  0  0  0  0  0
   10.0197   -0.1620   21.4023 H   0  0  0  0  0  0  0  0  0  0  0  0
    9.7748    1.2491   22.4463 H   0  0  0  0  0  0  0  0  0  0  0  0
  1  2  1  0
  2  3  1  0
  3  4  1  0
  4  5  2  0
  4  6  1  0
  6  7  1  0
  7  8  2  0
  8  9  1  0
  9 10  2  0
 10 11  1  0
 11 12  2  0
 12 13  1  0
 13 14  2  0
 14 15  1  0
 15 16  2  0
 15 17  1  0
 14 18  1  0
 13 19  1  0
 12 20  1  0
 10 21  1  0
  9 22  1  0
  8 23  1  0
  6 24  1  0
  6 25  1  0
  3 26  1  0
 26 27  2  0
 27 28  1  0
 28 29  2  0
 29 30  1  0
 30 31  2  0
 31 32  1  0
 29 33  1  0
 28 34  1  0
 27 35  1  0
  2 36  1  0
  2 37  1  0
  1 38  1  0
  1 39  1  0
  1 40  1  0
 16  7  1  0
 31 26  1  0
 16 11  1  0
M  END
>  <cnnaffinity>  (1) 
-5.1693

>  <filename>  (1) 
CCN(C(=O)Cc1cccc2ccccc12)c1cccnc1

$$$$
