
     RDKit          3D

 36 37  0  0  0  0  0  0  0  0999 V2000
   11.5474   -0.7795   22.4622 C   0  0  0  0  0  0  0  0  0  0  0  0
   10.6842   -1.9427   22.0104 C   0  0  0  0  0  0  0  0  0  0  0  0
    9.2897   -1.5241   22.0603 N   0  0  0  0  0  0  0  0  0  0  0  0
    8.5743   -1.5778   23.3331 C   0  0  0  0  0  0  0  0  0  0  0  0
    8.5251   -2.9958   23.8404 C   0  0  0  0  0  0  0  0  0  0  0  0
    9.3332   -3.3469   24.9239 C   0  0  0  0  0  0  0  0  0  0  0  0
    9.2915   -4.6270   25.4751 C   0  0  0  0  0  0  0  0  0  0  0  0
   10.3473   -5.0123   27.0244 Br  0  0  0  0  0  0  0  0  0  0  0  0
    8.4637   -5.6003   24.9043 C   0  0  0  0  0  0  0  0  0  0  0  0
    7.6576   -5.2678   23.8048 C   0  0  0  0  0  0  0  0  0  0  0  0
    7.6758   -3.9658   23.2810 C   0  0  0  0  0  0  0  0  0  0  0  0
    6.8615   -3.6507   22.2495 F   0  0  0  0  0  0  0  0  0  0  0  0
    7.0081   -6.0150   23.3578 H   0  0  0  0  0  0  0  0  0  0  0  0
    8.4408   -6.5969   25.3391 H   0  0  0  0  0  0  0  0  0  0  0  0
    9.9954   -2.6089   25.3558 H   0  0  0  0  0  0  0  0  0  0  0  0
    9.0745   -0.9300   24.0654 H   0  0  0  0  0  0  0  0  0  0  0  0
    7.5539   -1.1949   23.2278 H   0  0  0  0  0  0  0  0  0  0  0  0
    8.7597   -0.8260   20.9915 C   0  0  0  0  0  0  0  0  0  0  0  0
    9.4815   -0.3632   20.1173 O   0  0  0  0  0  0  0  0  0  0  0  0
    7.4108   -0.5369   20.9942 N   0  0  0  0  0  0  0  0  0  0  0  0
    6.7289    0.0386   19.9141 C   0  0  0  0  0  0  0  0  0  0  0  0
    5.4773    0.5782   20.1459 C   0  0  0  0  0  0  0  0  0  0  0  0
    4.8322    1.2222   19.0906 C   0  0  0  0  0  0  0  0  0  0  0  0
    5.4306    1.2858   17.8258 C   0  0  0  0  0  0  0  0  0  0  0  0
    6.6174    0.7089   17.5708 N   0  0  0  0  0  0  0  0  0  0  0  0
    7.2509    0.1062   18.5994 C   0  0  0  0  0  0  0  0  0  0  0  0
    8.2122   -0.3608   18.4081 H   0  0  0  0  0  0  0  0  0  0  0  0
    4.9245    1.8115   17.0234 H   0  0  0  0  0  0  0  0  0  0  0  0
    3.8747    1.6883   19.2601 H   0  0  0  0  0  0  0  0  0  0  0  0
    5.0502    0.5066   21.1414 H   0  0  0  0  0  0  0  0  0  0  0  0
    6.9265   -0.6344   21.8834 H   0  0  0  0  0  0  0  0  0  0  0  0
   10.9665   -2.2272   20.9927 H   0  0  0  0  0  0  0  0  0  0  0  0
   10.8337   -2.8188   22.6506 H   0  0  0  0  0  0  0  0  0  0  0  0
   11.2136   -0.4315   23.4415 H   0  0  0  0  0  0  0  0  0  0  0  0
   12.5911   -1.0799   22.5413 H   0  0  0  0  0  0  0  0  0  0  0  0
   11.4832    0.0454   21.7481 H   0  0  0  0  0  0  0  0  0  0  0  0
  1  2  1  0
  2  3  1  0
  3  4  1  0
  4  5  1  0
  5  6  2  0
  6  7  1  0
  7  8  1  0
  7  9  2  0
  9 10  1  0
 10 11  2  0
 11 12  1  0
 10 13  1  0
  9 14  1  0
  6 15  1  0
  4 16  1  0
  4 17  1  0
  3 18  1  0
 18 19  2  0
 18 20  1  0
 20 21  1  0
 21 22  2  0
 22 23  1  0
 23 24  2  0
 24 25  1  0
 25 26  2  0
 26 27  1  0
 24 28  1  0
 23 29  1  0
 22 30  1  0
 20 31  1  0
  2 32  1  0
  2 33  1  0
  1 34  1  0
  1 35  1  0
  1 36  1  0
 11  5  1  0
 26 21  1  0
M  END
>  <cnnaffinity>  (1) 
-5.42764

>  <filename>  (1) 
CCN(Cc1cc(Br)ccc1F)C(=O)Nc1cccnc1

$$$$
