
     RDKit          3D

 40 41  0  0  0  0  0  0  0  0999 V2000
    4.9156    1.8221   16.9706 H   0  0  0  0  0  0  0  0  0  0  0  0
    5.3838    1.3064   17.8060 C   0  0  0  0  0  0  0  0  0  0  0  0
    6.5413    0.6807   17.5391 N   0  0  0  0  0  0  0  0  0  0  0  0
    7.1582    0.0709   18.5624 C   0  0  0  0  0  0  0  0  0  0  0  0
    8.1015   -0.4200   18.3188 H   0  0  0  0  0  0  0  0  0  0  0  0
    6.6641    0.0281   19.8837 C   0  0  0  0  0  0  0  0  0  0  0  0
    7.3616   -0.7071   21.0005 C   0  0  0  0  0  0  0  0  0  0  0  0
    8.5843   -0.2828   21.5842 C   0  0  0  0  0  0  0  0  0  0  0  0
    9.2488    0.9964   21.1531 C   0  0  0  0  0  0  0  0  0  0  0  0
   10.2833    0.9784   21.5060 H   0  0  0  0  0  0  0  0  0  0  0  0
    9.2483    1.0205   20.0612 H   0  0  0  0  0  0  0  0  0  0  0  0
    8.5113    2.2310   21.6778 C   0  0  0  0  0  0  0  0  0  0  0  0
    9.0459    3.1419   21.3401 H   0  0  0  0  0  0  0  0  0  0  0  0
    7.5211    2.2614   21.2002 H   0  0  0  0  0  0  0  0  0  0  0  0
    8.3470    2.1820   23.1241 N   0  0  0  0  0  0  0  0  0  0  0  0
    9.5224    2.6062   23.8738 C   0  0  0  0  0  0  0  0  0  0  0  0
   10.4031    2.2378   23.3328 H   0  0  0  0  0  0  0  0  0  0  0  0
    9.6278    3.7100   23.9036 H   0  0  0  0  0  0  0  0  0  0  0  0
    9.5554    2.0310   25.2858 C   0  0  0  0  0  0  0  0  0  0  0  0
    8.8385    2.5253   25.9506 H   0  0  0  0  0  0  0  0  0  0  0  0
   10.5527    2.1601   25.7135 H   0  0  0  0  0  0  0  0  0  0  0  0
    9.3221    0.9607   25.2666 H   0  0  0  0  0  0  0  0  0  0  0  0
    7.0686    2.6706   23.6230 C   0  0  0  0  0  0  0  0  0  0  0  0
    6.2790    2.1333   23.0748 H   0  0  0  0  0  0  0  0  0  0  0  0
    6.9769    2.3454   24.6688 H   0  0  0  0  0  0  0  0  0  0  0  0
    6.8691    4.1844   23.4991 C   0  0  0  0  0  0  0  0  0  0  0  0
    5.8379    4.4726   23.7203 H   0  0  0  0  0  0  0  0  0  0  0  0
    7.1035    4.5198   22.4812 H   0  0  0  0  0  0  0  0  0  0  0  0
    7.5239    4.7276   24.1885 H   0  0  0  0  0  0  0  0  0  0  0  0
    9.2130   -0.9838   22.5382 N   0  0  0  0  0  0  0  0  0  0  0  0
    8.6395   -2.1013   22.9978 C   0  0  0  0  0  0  0  0  0  0  0  0
    9.1774   -2.6150   23.7942 H   0  0  0  0  0  0  0  0  0  0  0  0
    7.4282   -2.5873   22.5123 C   0  0  0  0  0  0  0  0  0  0  0  0
    7.0101   -3.4889   22.9346 H   0  0  0  0  0  0  0  0  0  0  0  0
    6.7771   -1.8719   21.5021 C   0  0  0  0  0  0  0  0  0  0  0  0
    5.8280   -2.1912   21.0781 H   0  0  0  0  0  0  0  0  0  0  0  0
    5.4353    0.6618   20.1200 C   0  0  0  0  0  0  0  0  0  0  0  0
    5.0088    0.6401   21.1250 H   0  0  0  0  0  0  0  0  0  0  0  0
    4.7885    1.3222   19.0712 C   0  0  0  0  0  0  0  0  0  0  0  0
    3.8519    1.8526   19.2230 H   0  0  0  0  0  0  0  0  0  0  0  0
  1  2  1  0
  2  3  2  0
  3  4  1  0
  4  5  1  0
  4  6  2  0
  6  7  1  0
  7  8  2  0
  8  9  1  0
  9 10  1  0
  9 11  1  0
  9 12  1  0
 12 13  1  0
 12 14  1  0
 12 15  1  0
 15 16  1  0
 16 17  1  0
 16 18  1  0
 16 19  1  0
 19 20  1  0
 19 21  1  0
 19 22  1  0
 15 23  1  0
 23 24  1  0
 23 25  1  0
 23 26  1  0
 26 27  1  0
 26 28  1  0
 26 29  1  0
  8 30  1  0
 30 31  2  0
 31 32  1  0
 31 33  1  0
 33 34  1  0
 33 35  2  0
 35 36  1  0
  6 37  1  0
 37 38  1  0
 37 39  2  0
 39 40  1  0
 39  2  1  0
 35  7  1  0
M  END
>  <cnnaffinity>  (1) 
-4.91053

>  <filename>  (1) 
CCN(CC)CCc1ncccc1-c1cccnc1

$$$$
