
     RDKit          3D

 43 44  0  0  0  0  0  0  0  0999 V2000
    8.7190    1.0847   21.5995 H   0  0  0  0  0  0  0  0  0  0  0  0
    8.0079    0.3528   21.9341 C   0  0  0  0  0  0  0  0  0  0  0  0
    7.4454    0.3749   23.1600 C   0  0  0  0  0  0  0  0  0  0  0  0
    7.4585    1.3126   24.1081 O   0  0  0  0  0  0  0  0  0  0  0  0
    8.2914    2.4647   23.9342 C   0  0  0  0  0  0  0  0  0  0  0  0
    9.2798    2.1653   23.5549 H   0  0  0  0  0  0  0  0  0  0  0  0
    8.4257    2.8666   24.9412 H   0  0  0  0  0  0  0  0  0  0  0  0
    7.6496    3.5167   23.0049 C   0  0  0  0  0  0  0  0  0  0  0  0
    7.6500    3.1106   21.9775 H   0  0  0  0  0  0  0  0  0  0  0  0
    6.5961    3.6269   23.2943 H   0  0  0  0  0  0  0  0  0  0  0  0
    8.2689    4.8355   23.0199 N   0  0  0  0  0  0  0  0  0  0  0  0
    9.7188    4.8911   22.8889 C   0  0  0  0  0  0  0  0  0  0  0  0
   10.2490    4.7864   23.8585 H   0  0  0  0  0  0  0  0  0  0  0  0
   10.0465    4.0319   22.2873 H   0  0  0  0  0  0  0  0  0  0  0  0
   10.1313    6.1946   22.2082 C   0  0  0  0  0  0  0  0  0  0  0  0
    9.4236    6.4163   21.4019 H   0  0  0  0  0  0  0  0  0  0  0  0
   11.1322    6.1158   21.7791 H   0  0  0  0  0  0  0  0  0  0  0  0
   10.1160    7.0383   22.9038 H   0  0  0  0  0  0  0  0  0  0  0  0
    7.6856    5.8291   23.9129 C   0  0  0  0  0  0  0  0  0  0  0  0
    6.6086    5.8918   23.7041 H   0  0  0  0  0  0  0  0  0  0  0  0
    8.0868    6.8115   23.6393 H   0  0  0  0  0  0  0  0  0  0  0  0
    7.9154    5.5872   25.4043 C   0  0  0  0  0  0  0  0  0  0  0  0
    7.3701    4.7046   25.7496 H   0  0  0  0  0  0  0  0  0  0  0  0
    8.9813    5.4314   25.6068 H   0  0  0  0  0  0  0  0  0  0  0  0
    7.5756    6.4468   25.9890 H   0  0  0  0  0  0  0  0  0  0  0  0
    6.7150   -0.7036   23.6042 N   0  0  0  0  0  0  0  0  0  0  0  0
    6.4444   -0.7437   24.5703 H   0  0  0  0  0  0  0  0  0  0  0  0
    6.5001   -1.8315   22.8787 C   0  0  0  0  0  0  0  0  0  0  0  0
    5.7963   -3.1788   23.5348 S   0  0  0  0  0  0  0  0  0  0  0  0
    6.8827   -1.7829   21.5915 N   0  0  0  0  0  0  0  0  0  0  0  0
    6.5077   -2.5359   21.0406 H   0  0  0  0  0  0  0  0  0  0  0  0
    7.5544   -0.6597   20.9432 C   0  0  1  0  0  0  0  0  0  0  0  0
    8.4308   -1.0851   20.4188 H   0  0  0  0  0  0  0  0  0  0  0  0
    6.6725   -0.0302   19.8534 C   0  0  0  0  0  0  0  0  0  0  0  0
    7.1634    0.0262   18.5432 C   0  0  0  0  0  0  0  0  0  0  0  0
    8.1051   -0.4674   18.3040 H   0  0  0  0  0  0  0  0  0  0  0  0
    6.5658    0.6615   17.5270 N   0  0  0  0  0  0  0  0  0  0  0  0
    5.4120    1.2857   17.8062 C   0  0  0  0  0  0  0  0  0  0  0  0
    4.9405    1.8089   16.9761 H   0  0  0  0  0  0  0  0  0  0  0  0
    4.8124    1.2726   19.0737 C   0  0  0  0  0  0  0  0  0  0  0  0
    3.8776    1.8026   19.2252 H   0  0  0  0  0  0  0  0  0  0  0  0
    5.4479    0.5996   20.1215 C   0  0  0  0  0  0  0  0  0  0  0  0
    5.0022    0.5841   21.1211 H   0  0  0  0  0  0  0  0  0  0  0  0
  1  2  1  0
  2  3  2  0
  3  4  1  0
  4  5  1  0
  5  6  1  0
  5  7  1  0
  5  8  1  0
  8  9  1  0
  8 10  1  0
  8 11  1  0
 11 12  1  0
 12 13  1  0
 12 14  1  0
 12 15  1  0
 15 16  1  0
 15 17  1  0
 15 18  1  0
 11 19  1  0
 19 20  1  0
 19 21  1  0
 19 22  1  0
 22 23  1  0
 22 24  1  0
 22 25  1  0
  3 26  1  0
 26 27  1  0
 26 28  1  0
 28 29  2  0
 28 30  1  0
 30 31  1  0
 30 32  1  0
 32 33  1  6
 32 34  1  0
 34 35  2  0
 35 36  1  0
 35 37  1  0
 37 38  2  0
 38 39  1  0
 38 40  1  0
 40 41  1  0
 40 42  2  0
 42 43  1  0
 32  2  1  0
 42 34  1  0
M  END
>  <cnnaffinity>  (1) 
-4.60822

>  <filename>  (1) 
CCN(CC)CCOC1=C[C@H](c2cccnc2)NC(=S)N1

$$$$
