
     RDKit          3D

 41 43  0  0  0  0  0  0  0  0999 V2000
   11.1633   -1.6798   22.7290 C   0  0  0  0  0  0  0  0  0  0  0  0
   10.0224   -2.5283   22.1840 C   0  0  0  0  0  0  0  0  0  0  0  0
    8.7859   -1.8074   21.9797 N   0  0  0  0  0  0  0  0  0  0  0  0
    8.4958   -1.3325   20.7497 N   0  0  0  0  0  0  0  0  0  0  0  0
    7.3538   -0.7048   20.9477 C   0  0  0  0  0  0  0  0  0  0  0  0
    6.6450    0.0009   19.8968 C   0  0  0  0  0  0  0  0  0  0  0  0
    5.4320    0.6534   20.1550 C   0  0  0  0  0  0  0  0  0  0  0  0
    4.8087    1.3041   19.0976 C   0  0  0  0  0  0  0  0  0  0  0  0
    5.4200    1.2802   17.8385 C   0  0  0  0  0  0  0  0  0  0  0  0
    6.5806    0.6573   17.5841 N   0  0  0  0  0  0  0  0  0  0  0  0
    7.1836    0.0389   18.6030 C   0  0  0  0  0  0  0  0  0  0  0  0
    8.1355   -0.4405   18.3766 H   0  0  0  0  0  0  0  0  0  0  0  0
    4.9608    1.7881   16.9953 H   0  0  0  0  0  0  0  0  0  0  0  0
    3.8755    1.8380   19.2373 H   0  0  0  0  0  0  0  0  0  0  0  0
    4.9984    0.6503   21.1582 H   0  0  0  0  0  0  0  0  0  0  0  0
    6.8912   -0.7629   22.2195 N   0  0  0  0  0  0  0  0  0  0  0  0
    7.8166   -1.4569   22.8520 C   0  0  0  0  0  0  0  0  0  0  0  0
    7.7615   -1.8838   24.2989 C   0  0  0  0  0  0  0  0  0  0  0  0
    7.5021   -0.6775   25.2152 C   0  0  0  0  0  0  0  0  0  0  0  0
    6.5248   -0.2372   24.9891 H   0  0  0  0  0  0  0  0  0  0  0  0
    8.2626    0.0998   25.0754 H   0  0  0  0  0  0  0  0  0  0  0  0
    7.5092   -0.9739   26.2699 H   0  0  0  0  0  0  0  0  0  0  0  0
    6.6954   -3.0008   24.4998 C   0  0  0  0  0  0  0  0  0  0  0  0
    7.0449   -4.2714   23.7508 C   0  0  0  0  0  0  0  0  0  0  0  0
    6.5755   -4.5218   22.4491 C   0  0  0  0  0  0  0  0  0  0  0  0
    7.0087   -5.6739   21.7818 C   0  0  0  0  0  0  0  0  0  0  0  0
    7.9002   -6.5352   22.2920 N   0  0  0  0  0  0  0  0  0  0  0  0
    8.3802   -6.2736   23.5161 C   0  0  0  0  0  0  0  0  0  0  0  0
    7.9616   -5.1902   24.2898 C   0  0  0  0  0  0  0  0  0  0  0  0
    8.3598   -5.0754   25.2953 H   0  0  0  0  0  0  0  0  0  0  0  0
    9.1564   -6.9473   23.8844 H   0  0  0  0  0  0  0  0  0  0  0  0
    6.6520   -5.9116   20.7773 H   0  0  0  0  0  0  0  0  0  0  0  0
    5.9304   -3.8028   21.9446 H   0  0  0  0  0  0  0  0  0  0  0  0
    5.7222   -2.6078   24.1765 H   0  0  0  0  0  0  0  0  0  0  0  0
    6.6167   -3.2099   25.5745 H   0  0  0  0  0  0  0  0  0  0  0  0
    8.7403   -2.3163   24.5483 H   0  0  0  0  0  0  0  0  0  0  0  0
    9.8255   -3.4029   22.8177 H   0  0  0  0  0  0  0  0  0  0  0  0
   10.2676   -2.8717   21.1810 H   0  0  0  0  0  0  0  0  0  0  0  0
   11.3761   -0.8452   22.0557 H   0  0  0  0  0  0  0  0  0  0  0  0
   10.9648   -1.2649   23.7264 H   0  0  0  0  0  0  0  0  0  0  0  0
   12.0471   -2.3204   22.7766 H   0  0  0  0  0  0  0  0  0  0  0  0
  1  2  1  0
  2  3  1  0
  3  4  1  0
  4  5  2  0
  5  6  1  0
  6  7  2  0
  7  8  1  0
  8  9  2  0
  9 10  1  0
 10 11  2  0
 11 12  1  0
  9 13  1  0
  8 14  1  0
  7 15  1  0
  5 16  1  0
 16 17  2  0
 17 18  1  0
 18 19  1  0
 19 20  1  0
 19 21  1  0
 19 22  1  0
 18 23  1  0
 23 24  1  0
 24 25  2  0
 25 26  1  0
 26 27  2  0
 27 28  1  0
 28 29  2  0
 29 30  1  0
 28 31  1  0
 26 32  1  0
 25 33  1  0
 23 34  1  0
 23 35  1  0
 18 36  1  0
  2 37  1  0
  2 38  1  0
  1 39  1  0
  1 40  1  0
  1 41  1  0
 17  3  1  0
 29 24  1  0
 11  6  1  0
M  END
>  <cnnaffinity>  (1) 
-5.98812

>  <filename>  (1) 
CCn1nc(-c2cccnc2)nc1C(C)Cc1ccncc1

$$$$
