
     RDKit          3D

 40 42  0  0  0  0  0  0  0  0999 V2000
    4.9442    1.8106   16.9278 H   0  0  0  0  0  0  0  0  0  0  0  0
    5.4219    1.3283   17.7772 C   0  0  0  0  0  0  0  0  0  0  0  0
    6.5819    0.6969   17.5357 N   0  0  0  0  0  0  0  0  0  0  0  0
    7.1684    0.0768   18.5697 C   0  0  0  0  0  0  0  0  0  0  0  0
    8.1046   -0.4314   18.3336 H   0  0  0  0  0  0  0  0  0  0  0  0
    6.6630    0.0567   19.8947 C   0  0  0  0  0  0  0  0  0  0  0  0
    7.3135   -0.6752   21.0510 C   0  0  0  0  0  0  0  0  0  0  0  0
    7.5732   -2.0517   20.9983 C   0  0  0  0  0  0  0  0  0  0  0  0
    7.1924   -2.6161   20.1483 H   0  0  0  0  0  0  0  0  0  0  0  0
    8.2270   -2.7564   21.9295 N   0  0  0  0  0  0  0  0  0  0  0  0
    8.6260   -2.0978   23.0275 C   0  0  0  0  0  0  0  0  0  0  0  0
    9.2050   -2.6583   23.7584 H   0  0  0  0  0  0  0  0  0  0  0  0
    8.3261   -0.7667   23.2660 C   0  0  0  0  0  0  0  0  0  0  0  0
    8.6253   -0.2614   24.1784 H   0  0  0  0  0  0  0  0  0  0  0  0
    7.6237   -0.0589   22.2897 C   0  0  0  0  0  0  0  0  0  0  0  0
    7.2968    1.2825   22.5104 N   0  0  0  0  0  0  0  0  0  0  0  0
    6.6992    1.7613   23.7653 C   0  0  0  0  0  0  0  0  0  0  0  0
    7.4592    2.0126   24.5288 H   0  0  0  0  0  0  0  0  0  0  0  0
    6.0449    0.9816   24.1761 H   0  0  0  0  0  0  0  0  0  0  0  0
    5.8785    3.0311   23.4561 C   0  0  0  0  0  0  0  0  0  0  0  0
    5.1161    2.7405   22.7022 H   0  0  0  0  0  0  0  0  0  0  0  0
    5.3578    3.3834   24.3572 H   0  0  0  0  0  0  0  0  0  0  0  0
    6.7577    4.1005   22.9367 N   0  0  0  0  0  0  0  0  0  0  0  0
    6.0605    5.3530   22.6230 C   0  0  0  0  0  0  0  0  0  0  0  0
    6.6489    5.9015   21.8740 H   0  0  0  0  0  0  0  0  0  0  0  0
    5.0819    5.1675   22.1395 H   0  0  0  0  0  0  0  0  0  0  0  0
    5.9076    6.2837   23.8146 C   0  0  0  0  0  0  0  0  0  0  0  0
    6.8883    6.5187   24.2399 H   0  0  0  0  0  0  0  0  0  0  0  0
    5.2836    5.8549   24.6048 H   0  0  0  0  0  0  0  0  0  0  0  0
    5.4491    7.2185   23.4738 H   0  0  0  0  0  0  0  0  0  0  0  0
    7.4140    3.5938   21.7237 C   0  0  0  0  0  0  0  0  0  0  0  0
    6.6385    3.4045   20.9509 H   0  0  0  0  0  0  0  0  0  0  0  0
    8.1254    4.3590   21.3763 H   0  0  0  0  0  0  0  0  0  0  0  0
    8.1812    2.2851   21.9140 C   0  0  0  0  0  0  0  0  0  0  0  0
    8.5145    1.9261   20.9309 H   0  0  0  0  0  0  0  0  0  0  0  0
    9.0830    2.4694   22.5276 H   0  0  0  0  0  0  0  0  0  0  0  0
    5.4633    0.7495   20.1123 C   0  0  0  0  0  0  0  0  0  0  0  0
    5.0467    0.7842   21.1173 H   0  0  0  0  0  0  0  0  0  0  0  0
    4.8174    1.3663   19.0383 C   0  0  0  0  0  0  0  0  0  0  0  0
    3.8650    1.8658   19.1706 H   0  0  0  0  0  0  0  0  0  0  0  0
  1  2  1  0
  2  3  2  0
  3  4  1  0
  4  5  1  0
  4  6  2  0
  6  7  1  0
  7  8  2  0
  8  9  1  0
  8 10  1  0
 10 11  2  0
 11 12  1  0
 11 13  1  0
 13 14  1  0
 13 15  2  0
 15 16  1  0
 16 17  1  0
 17 18  1  0
 17 19  1  0
 17 20  1  0
 20 21  1  0
 20 22  1  0
 20 23  1  0
 23 24  1  0
 24 25  1  0
 24 26  1  0
 24 27  1  0
 27 28  1  0
 27 29  1  0
 27 30  1  0
 23 31  1  0
 31 32  1  0
 31 33  1  0
 31 34  1  0
 34 35  1  0
 34 36  1  0
  6 37  1  0
 37 38  1  0
 37 39  2  0
 39 40  1  0
 39  2  1  0
 15  7  1  0
 34 16  1  0
M  END
>  <cnnaffinity>  (1) 
-4.73339

>  <filename>  (1) 
CCN1CCN(c2ccncc2-c2cccnc2)CC1

$$$$
