
     RDKit          3D

 48 50  0  0  0  0  0  0  0  0999 V2000
    7.7887   -0.4697   25.1929 C   0  0  0  0  0  0  0  0  0  0  0  0
    7.3247   -1.6702   24.3692 C   0  0  0  0  0  0  0  0  0  0  0  0
    7.4292   -1.4375   22.9302 N   0  0  0  0  0  0  0  0  0  0  0  0
    6.5812   -0.5777   22.3107 N   0  0  0  0  0  0  0  0  0  0  0  0
    7.0172   -0.5652   21.0698 C   0  0  0  0  0  0  0  0  0  0  0  0
    6.4139    0.1710   19.9629 C   0  0  0  0  0  0  0  0  0  0  0  0
    5.2105    0.8918   20.0381 C   0  0  0  0  0  0  0  0  0  0  0  0
    4.7403    1.4842   18.8668 C   0  0  0  0  0  0  0  0  0  0  0  0
    5.4837    1.3551   17.6900 C   0  0  0  0  0  0  0  0  0  0  0  0
    6.6480    0.6936   17.6181 N   0  0  0  0  0  0  0  0  0  0  0  0
    7.0913    0.1190   18.7385 C   0  0  0  0  0  0  0  0  0  0  0  0
    8.0375   -0.4102   18.6753 H   0  0  0  0  0  0  0  0  0  0  0  0
    5.1352    1.7971   16.7595 H   0  0  0  0  0  0  0  0  0  0  0  0
    3.8203    2.0579   18.8475 H   0  0  0  0  0  0  0  0  0  0  0  0
    4.6700    0.9946   20.9803 H   0  0  0  0  0  0  0  0  0  0  0  0
    8.1201   -1.3352   20.8569 N   0  0  0  0  0  0  0  0  0  0  0  0
    8.3342   -1.8881   22.0325 C   0  0  0  0  0  0  0  0  0  0  0  0
    9.4253   -2.8732   22.2844 C   0  0  0  0  0  0  0  0  0  0  0  0
   10.5848   -2.3387   23.1327 C   0  0  0  0  0  0  0  0  0  0  0  0
   11.1803   -1.1526   22.4228 N   0  0  0  0  0  4  0  0  0  0  0  0
   11.3974    0.0549   23.3192 C   0  0  0  0  0  0  0  0  0  0  0  0
   12.1622    1.1348   22.5578 C   0  0  0  0  0  0  0  0  0  0  0  0
   13.5514    0.6546   22.1148 N   0  0  0  0  0  4  0  0  0  0  0  0
   14.6789    1.2981   22.8112 C   0  0  0  0  0  0  0  0  0  0  0  0
   14.7278    0.9547   23.8532 H   0  0  0  0  0  0  0  0  0  0  0  0
   14.6061    2.3903   22.8080 H   0  0  0  0  0  0  0  0  0  0  0  0
   15.6113    1.0352   22.3036 H   0  0  0  0  0  0  0  0  0  0  0  0
   13.7063   -0.8521   22.1813 C   0  0  0  0  0  0  0  0  0  0  0  0
   12.4515   -1.4935   21.6057 C   0  0  0  0  0  0  0  0  0  0  0  0
   12.5829   -2.5727   21.5331 H   0  0  0  0  0  0  0  0  0  0  0  0
   12.3382   -1.0868   20.5939 H   0  0  0  0  0  0  0  0  0  0  0  0
   13.8225   -1.1187   23.2314 H   0  0  0  0  0  0  0  0  0  0  0  0
   14.6067   -1.1751   21.6499 H   0  0  0  0  0  0  0  0  0  0  0  0
   13.6412    0.9170   21.1129 H   0  0  0  0  0  0  0  0  0  0  0  0
   11.5817    1.3956   21.6657 H   0  0  0  0  0  0  0  0  0  0  0  0
   12.2777    2.0280   23.1705 H   0  0  0  0  0  0  0  0  0  0  0  0
   10.4384    0.4473   23.6692 H   0  0  0  0  0  0  0  0  0  0  0  0
   11.9723   -0.2369   24.2062 H   0  0  0  0  0  0  0  0  0  0  0  0
   10.4508   -0.8788   21.7230 H   0  0  0  0  0  0  0  0  0  0  0  0
   11.3516   -3.1137   23.2567 H   0  0  0  0  0  0  0  0  0  0  0  0
   10.2674   -2.0526   24.1458 H   0  0  0  0  0  0  0  0  0  0  0  0
    9.8069   -3.0855   21.2841 H   0  0  0  0  0  0  0  0  0  0  0  0
    9.0181   -3.8019   22.6909 H   0  0  0  0  0  0  0  0  0  0  0  0
    7.9186   -2.5613   24.6067 H   0  0  0  0  0  0  0  0  0  0  0  0
    6.2755   -1.9032   24.5816 H   0  0  0  0  0  0  0  0  0  0  0  0
    7.1454    0.3939   24.9870 H   0  0  0  0  0  0  0  0  0  0  0  0
    7.7362   -0.7001   26.2619 H   0  0  0  0  0  0  0  0  0  0  0  0
    8.8250   -0.1976   24.9550 H   0  0  0  0  0  0  0  0  0  0  0  0
  1  2  1  0
  2  3  1  0
  3  4  1  0
  4  5  2  0
  5  6  1  0
  6  7  2  0
  7  8  1  0
  8  9  2  0
  9 10  1  0
 10 11  2  0
 11 12  1  0
  9 13  1  0
  8 14  1  0
  7 15  1  0
  5 16  1  0
 16 17  2  0
 17 18  1  0
 18 19  1  0
 19 20  1  0
 20 21  1  0
 21 22  1  0
 22 23  1  0
 23 24  1  0
 24 25  1  0
 24 26  1  0
 24 27  1  0
 23 28  1  0
 28 29  1  0
 29 30  1  0
 29 31  1  0
 28 32  1  0
 28 33  1  0
 23 34  1  0
 22 35  1  0
 22 36  1  0
 21 37  1  0
 21 38  1  0
 20 39  1  0
 19 40  1  0
 19 41  1  0
 18 42  1  0
 18 43  1  0
  2 44  1  0
  2 45  1  0
  1 46  1  0
  1 47  1  0
  1 48  1  0
 17  3  1  0
 29 20  1  0
 11  6  1  0
M  CHG  2  20   1  23   1
M  END
>  <cnnaffinity>  (1) 
-5.45261

>  <filename>  (1) 
CCn1nc(-c2cccnc2)nc1CC[NH+]1CC[NH+](C)CC1

$$$$
