
     RDKit          3D

 38 41  0  0  0  0  0  0  0  0999 V2000
   11.1449   -1.3686   22.6892 C   0  0  0  0  0  0  0  0  0  0  0  0
   10.1158   -2.3915   22.2134 C   0  0  0  0  0  0  0  0  0  0  0  0
    8.7936   -1.8365   21.9556 N   0  0  0  0  0  0  0  0  0  0  0  0
    8.5126   -1.3412   20.7309 N   0  0  0  0  0  0  0  0  0  0  0  0
    7.3645   -0.7215   20.9298 C   0  0  0  0  0  0  0  0  0  0  0  0
    6.6535   -0.0031   19.8928 C   0  0  0  0  0  0  0  0  0  0  0  0
    5.4412    0.6476   20.1584 C   0  0  0  0  0  0  0  0  0  0  0  0
    4.8146    1.2984   19.1029 C   0  0  0  0  0  0  0  0  0  0  0  0
    5.4243    1.2764   17.8416 C   0  0  0  0  0  0  0  0  0  0  0  0
    6.5836    0.6537   17.5841 N   0  0  0  0  0  0  0  0  0  0  0  0
    7.1883    0.0357   18.5998 C   0  0  0  0  0  0  0  0  0  0  0  0
    8.1404   -0.4440   18.3750 H   0  0  0  0  0  0  0  0  0  0  0  0
    4.9669    1.7875   16.9994 H   0  0  0  0  0  0  0  0  0  0  0  0
    3.8802    1.8329   19.2400 H   0  0  0  0  0  0  0  0  0  0  0  0
    5.0134    0.6402   21.1650 H   0  0  0  0  0  0  0  0  0  0  0  0
    6.8994   -0.7759   22.1967 N   0  0  0  0  0  0  0  0  0  0  0  0
    7.8046   -1.5049   22.8143 C   0  0  0  0  0  0  0  0  0  0  0  0
    7.8221   -1.7945   24.2497 C   0  0  0  0  0  0  0  0  0  0  0  0
    7.8917   -0.7469   25.1535 C   0  0  0  0  0  0  0  0  0  0  0  0
    7.9535   -1.0057   26.5376 C   0  0  0  0  0  0  0  0  0  0  0  0
    7.9481   -2.2994   27.0049 C   0  0  0  0  0  0  0  0  0  0  0  0
    7.8215   -3.3916   26.1170 C   0  0  0  0  0  0  0  0  0  0  0  0
    7.7430   -4.7459   26.5565 C   0  0  0  0  0  0  0  0  0  0  0  0
    7.6542   -5.7398   25.6171 C   0  0  0  0  0  0  0  0  0  0  0  0
    7.6491   -5.3908   24.2395 C   0  0  0  0  0  0  0  0  0  0  0  0
    7.7205   -4.1538   23.7870 N   0  0  0  0  0  0  0  0  0  0  0  0
    7.7803   -3.1442   24.7073 C   0  0  0  0  0  0  0  0  0  0  0  0
    7.5799   -6.1756   23.4923 H   0  0  0  0  0  0  0  0  0  0  0  0
    7.5931   -6.7851   25.8982 H   0  0  0  0  0  0  0  0  0  0  0  0
    7.7532   -4.9582   27.6266 H   0  0  0  0  0  0  0  0  0  0  0  0
    8.0924   -2.5360   28.0439 H   0  0  0  0  0  0  0  0  0  0  0  0
    7.9981   -0.1804   27.2376 H   0  0  0  0  0  0  0  0  0  0  0  0
    7.9253    0.2746   24.7709 H   0  0  0  0  0  0  0  0  0  0  0  0
    9.9857   -3.2108   22.9306 H   0  0  0  0  0  0  0  0  0  0  0  0
   10.4010   -2.7872   21.2410 H   0  0  0  0  0  0  0  0  0  0  0  0
   10.9251   -0.9716   23.6866 H   0  0  0  0  0  0  0  0  0  0  0  0
   12.1173   -1.8667   22.7194 H   0  0  0  0  0  0  0  0  0  0  0  0
   11.2127   -0.5294   21.9892 H   0  0  0  0  0  0  0  0  0  0  0  0
  1  2  1  0
  2  3  1  0
  3  4  1  0
  4  5  2  0
  5  6  1  0
  6  7  2  0
  7  8  1  0
  8  9  2  0
  9 10  1  0
 10 11  2  0
 11 12  1  0
  9 13  1  0
  8 14  1  0
  7 15  1  0
  5 16  1  0
 16 17  2  0
 17 18  1  0
 18 19  2  0
 19 20  1  0
 20 21  2  0
 21 22  1  0
 22 23  2  0
 23 24  1  0
 24 25  2  0
 25 26  1  0
 26 27  2  0
 25 28  1  0
 24 29  1  0
 23 30  1  0
 21 31  1  0
 20 32  1  0
 19 33  1  0
  2 34  1  0
  2 35  1  0
  1 36  1  0
  1 37  1  0
  1 38  1  0
 17  3  1  0
 27 18  1  0
 11  6  1  0
 27 22  1  0
M  END
>  <cnnaffinity>  (1) 
-5.88682

>  <filename>  (1) 
CCn1nc(-c2cccnc2)nc1-c1cccc2cccnc12

$$$$
