
     RDKit          3D

 45 48  0  0  0  0  0  0  0  0999 V2000
    4.9827   -1.8287   28.0518 C   0  0  0  0  0  0  0  0  0  0  0  0
    4.6702   -1.1660   26.7083 C   0  0  0  0  0  0  0  0  0  0  0  0
    5.7896   -1.0782   25.7924 N   0  0  0  0  0  0  0  0  0  0  0  0
    6.2046   -2.2231   24.9908 C   0  0  0  0  0  0  0  0  0  0  0  0
    7.5907   -1.8213   24.4300 C   0  0  0  0  0  0  0  0  0  0  0  0
    7.6005   -1.5013   22.9595 C   0  0  0  0  0  0  0  0  0  0  0  0
    6.6121   -1.0778   22.2037 N   0  0  0  0  0  0  0  0  0  0  0  0
    7.2148   -0.8163   21.0194 C   0  0  0  0  0  0  0  0  0  0  0  0
    6.5349   -0.1596   19.9077 C   0  0  0  0  0  0  0  0  0  0  0  0
    5.3327    0.5470   20.0534 C   0  0  0  0  0  0  0  0  0  0  0  0
    4.8580    1.2561   18.9499 C   0  0  0  0  0  0  0  0  0  0  0  0
    5.5840    1.2033   17.7516 C   0  0  0  0  0  0  0  0  0  0  0  0
    6.7148    0.5010   17.5994 N   0  0  0  0  0  0  0  0  0  0  0  0
    7.1822   -0.1559   18.6652 C   0  0  0  0  0  0  0  0  0  0  0  0
    8.1139   -0.7050   18.5371 H   0  0  0  0  0  0  0  0  0  0  0  0
    5.2537    1.7609   16.8771 H   0  0  0  0  0  0  0  0  0  0  0  0
    3.9785    1.8865   19.0122 H   0  0  0  0  0  0  0  0  0  0  0  0
    4.8083    0.5648   21.0126 H   0  0  0  0  0  0  0  0  0  0  0  0
    8.4995   -1.1199   20.9758 N   0  0  0  0  0  0  0  0  0  0  0  0
    8.7574   -1.5130   22.2410 N   0  0  0  0  0  0  0  0  0  0  0  0
   10.0654   -2.0461   22.6175 C   0  0  0  0  0  0  0  0  0  0  0  0
   11.2529   -1.3908   21.9325 C   0  0  0  0  0  0  0  0  0  0  0  0
   11.5034   -0.1247   22.4563 F   0  0  0  0  0  0  0  0  0  0  0  0
   12.1305   -2.0227   22.1206 H   0  0  0  0  0  0  0  0  0  0  0  0
   11.1018   -1.2995   20.8581 H   0  0  0  0  0  0  0  0  0  0  0  0
   10.0927   -3.1250   22.4223 H   0  0  0  0  0  0  0  0  0  0  0  0
   10.2108   -1.9147   23.6898 H   0  0  0  0  0  0  0  0  0  0  0  0
    7.9771   -0.6237   25.2841 C   0  0  0  0  0  0  0  0  0  0  0  0
    9.1319    0.1570   25.2945 C   0  0  0  0  0  0  0  0  0  0  0  0
    9.1990    1.2611   26.1434 C   0  0  0  0  0  0  0  0  0  0  0  0
    8.1129    1.5919   26.9713 C   0  0  0  0  0  0  0  0  0  0  0  0
    6.9379    0.8372   26.9296 C   0  0  0  0  0  0  0  0  0  0  0  0
    6.8721   -0.2566   26.0582 C   0  0  0  0  0  0  0  0  0  0  0  0
    6.0938    1.0812   27.5651 H   0  0  0  0  0  0  0  0  0  0  0  0
    8.1836    2.4414   27.6455 H   0  0  0  0  0  0  0  0  0  0  0  0
   10.1054    1.8555   26.1737 H   0  0  0  0  0  0  0  0  0  0  0  0
    9.9780   -0.0644   24.6469 H   0  0  0  0  0  0  0  0  0  0  0  0
    8.2843   -2.6578   24.5681 H   0  0  0  0  0  0  0  0  0  0  0  0
    5.4641   -2.4598   24.2157 H   0  0  0  0  0  0  0  0  0  0  0  0
    6.3199   -3.1264   25.6208 H   0  0  0  0  0  0  0  0  0  0  0  0
    4.2956   -0.1501   26.8840 H   0  0  0  0  0  0  0  0  0  0  0  0
    3.8584   -1.6992   26.1988 H   0  0  0  0  0  0  0  0  0  0  0  0
    5.3738   -2.8448   27.9224 H   0  0  0  0  0  0  0  0  0  0  0  0
    4.0664   -1.8930   28.6470 H   0  0  0  0  0  0  0  0  0  0  0  0
    5.7201   -1.2433   28.6126 H   0  0  0  0  0  0  0  0  0  0  0  0
  1  2  1  0
  2  3  1  0
  3  4  1  0
  4  5  1  0
  5  6  1  0
  6  7  2  0
  7  8  1  0
  8  9  1  0
  9 10  2  0
 10 11  1  0
 11 12  2  0
 12 13  1  0
 13 14  2  0
 14 15  1  0
 12 16  1  0
 11 17  1  0
 10 18  1  0
  8 19  2  0
 19 20  1  0
 20 21  1  0
 21 22  1  0
 22 23  1  0
 22 24  1  0
 22 25  1  0
 21 26  1  0
 21 27  1  0
  5 28  1  0
 28 29  2  0
 29 30  1  0
 30 31  2  0
 31 32  1  0
 32 33  2  0
 32 34  1  0
 31 35  1  0
 30 36  1  0
 29 37  1  0
  5 38  1  0
  4 39  1  0
  4 40  1  0
  2 41  1  0
  2 42  1  0
  1 43  1  0
  1 44  1  0
  1 45  1  0
 33  3  1  0
 20  6  1  0
 33 28  1  0
 14  9  1  0
M  END
>  <cnnaffinity>  (1) 
-5.8852

>  <filename>  (1) 
CCN1CC(c2nc(-c3cccnc3)nn2CCF)c2ccccc21

$$$$
