
     RDKit          3D

 41 43  0  0  0  0  0  0  0  0999 V2000
   11.2788   -1.4960   22.3846 C   0  0  0  0  0  0  0  0  0  0  0  0
   10.0572   -2.3621   22.1271 C   0  0  0  0  0  0  0  0  0  0  0  0
    8.8099   -1.6282   21.9911 N   0  0  0  0  0  0  0  0  0  0  0  0
    8.4982   -1.1380   20.7777 N   0  0  0  0  0  0  0  0  0  0  0  0
    7.3094   -0.5992   20.9680 C   0  0  0  0  0  0  0  0  0  0  0  0
    6.5794    0.0472   19.8813 C   0  0  0  0  0  0  0  0  0  0  0  0
    5.3589    0.7031   20.0842 C   0  0  0  0  0  0  0  0  0  0  0  0
    4.7738    1.3461   18.9939 C   0  0  0  0  0  0  0  0  0  0  0  0
    5.4272    1.3119   17.7552 C   0  0  0  0  0  0  0  0  0  0  0  0
    6.5843    0.6650   17.5468 N   0  0  0  0  0  0  0  0  0  0  0  0
    7.1406    0.0488   18.5944 C   0  0  0  0  0  0  0  0  0  0  0  0
    8.0809   -0.4657   18.4042 H   0  0  0  0  0  0  0  0  0  0  0  0
    5.0034    1.8234   16.8916 H   0  0  0  0  0  0  0  0  0  0  0  0
    3.8424    1.8935   19.0949 H   0  0  0  0  0  0  0  0  0  0  0  0
    4.9042    0.7180   21.0767 H   0  0  0  0  0  0  0  0  0  0  0  0
    6.8447   -0.7058   22.2362 N   0  0  0  0  0  0  0  0  0  0  0  0
    7.8034   -1.3734   22.8552 C   0  0  0  0  0  0  0  0  0  0  0  0
    7.7888   -1.8760   24.2893 C   0  0  0  0  0  0  0  0  0  0  0  0
    9.0666   -1.7812   24.9379 O   0  0  0  0  0  0  0  0  0  0  0  0
    9.2282   -0.8652   25.2017 H   0  0  0  0  0  0  0  0  0  0  0  0
    7.3584   -3.3641   24.3625 C   0  0  0  0  0  0  0  0  0  0  0  0
    6.1587   -3.4896   23.6130 O   0  0  0  0  0  0  0  0  0  0  0  0
    5.7003   -4.2867   23.9161 H   0  0  0  0  0  0  0  0  0  0  0  0
    7.2096   -3.8565   25.8054 C   0  0  0  0  0  0  0  0  0  0  0  0
    8.2058   -4.6697   26.3754 C   0  0  0  0  0  0  0  0  0  0  0  0
    8.0718   -5.1681   27.6753 C   0  0  0  0  0  0  0  0  0  0  0  0
    6.9417   -4.8499   28.4337 C   0  0  0  0  0  0  0  0  0  0  0  0
    5.9646   -3.9986   27.8991 C   0  0  0  0  0  0  0  0  0  0  0  0
    6.1040   -3.4977   26.6017 C   0  0  0  0  0  0  0  0  0  0  0  0
    5.3457   -2.8215   26.2059 H   0  0  0  0  0  0  0  0  0  0  0  0
    5.0933   -3.7325   28.4956 H   0  0  0  0  0  0  0  0  0  0  0  0
    6.8238   -5.2666   29.4316 H   0  0  0  0  0  0  0  0  0  0  0  0
    8.8423   -5.8136   28.0918 H   0  0  0  0  0  0  0  0  0  0  0  0
    9.0822   -4.9371   25.7893 H   0  0  0  0  0  0  0  0  0  0  0  0
    8.1721   -3.9411   23.8849 H   0  0  0  0  0  0  0  0  0  0  0  0
    7.0126   -1.2949   24.8093 H   0  0  0  0  0  0  0  0  0  0  0  0
    9.9452   -3.0857   22.9365 H   0  0  0  0  0  0  0  0  0  0  0  0
   10.1541   -2.8754   21.1703 H   0  0  0  0  0  0  0  0  0  0  0  0
   11.4622   -0.8071   21.5570 H   0  0  0  0  0  0  0  0  0  0  0  0
   12.1508   -2.1505   22.4592 H   0  0  0  0  0  0  0  0  0  0  0  0
   11.1786   -0.9296   23.3147 H   0  0  0  0  0  0  0  0  0  0  0  0
  1  2  1  0
  2  3  1  0
  3  4  1  0
  4  5  2  0
  5  6  1  0
  6  7  2  0
  7  8  1  0
  8  9  2  0
  9 10  1  0
 10 11  2  0
 11 12  1  0
  9 13  1  0
  8 14  1  0
  7 15  1  0
  5 16  1  0
 16 17  2  0
 17 18  1  0
 18 19  1  0
 19 20  1  0
 18 21  1  0
 21 22  1  0
 22 23  1  0
 21 24  1  0
 24 25  2  0
 25 26  1  0
 26 27  2  0
 27 28  1  0
 28 29  2  0
 29 30  1  0
 28 31  1  0
 27 32  1  0
 26 33  1  0
 25 34  1  0
 21 35  1  0
 18 36  1  0
  2 37  1  0
  2 38  1  0
  1 39  1  0
  1 40  1  0
  1 41  1  0
 17  3  1  0
 29 24  1  0
 11  6  1  0
M  END
>  <cnnaffinity>  (1) 
-5.07445

>  <filename>  (1) 
CCn1nc(-c2cccnc2)nc1C(O)C(O)c1ccccc1

$$$$
