
     RDKit          3D

 45 47  0  0  0  0  0  0  0  0999 V2000
    9.7138    4.3141   25.1233 C   0  0  0  0  0  0  0  0  0  0  0  0
   10.1730    2.9338   24.6483 C   0  0  0  0  0  0  0  0  0  0  0  0
   10.9629    3.0159   23.4335 N   0  0  0  0  0  0  0  0  0  0  0  0
   12.1949    3.5216   23.5474 N   0  0  0  0  0  0  0  0  0  0  0  0
   12.6736    3.6282   22.3165 C   0  0  0  0  0  0  0  0  0  0  0  0
   14.0408    4.2250   22.1049 C   0  0  0  0  0  0  0  0  0  0  0  0
   14.2793    4.9214   22.9165 H   0  0  0  0  0  0  0  0  0  0  0  0
   14.8112    3.4475   22.1117 H   0  0  0  0  0  0  0  0  0  0  0  0
   14.0975    4.7599   21.1491 H   0  0  0  0  0  0  0  0  0  0  0  0
   11.7131    3.1865   21.3810 C   0  0  0  0  0  0  0  0  0  0  0  0
   10.6032    2.8363   22.1502 C   0  0  0  0  0  0  0  0  0  0  0  0
    8.8909    2.3836   21.8910 S   0  0  0  0  0  0  0  0  0  0  0  0
    8.5952    2.2389   20.4918 O   0  0  0  0  0  0  0  0  0  0  0  0
    8.0106    3.1547   22.7453 O   0  0  0  0  0  0  0  0  0  0  0  0
    8.8293    0.8713   22.5557 N   0  0  0  0  0  0  0  0  0  0  0  0
    9.4891   -0.2302   21.8318 C   0  0  0  0  0  0  0  0  0  0  0  0
    8.6073   -1.4637   21.9168 C   0  0  0  0  0  0  0  0  0  0  0  0
    8.9501   -2.4890   22.8123 C   0  0  0  0  0  0  0  0  0  0  0  0
    8.0487   -3.5010   23.1449 C   0  0  0  0  0  0  0  0  0  0  0  0
    6.7873   -3.5278   22.5446 C   0  0  0  0  0  0  0  0  0  0  0  0
    6.4578   -2.5686   21.5868 C   0  0  0  0  0  0  0  0  0  0  0  0
    7.3737   -1.5590   21.2308 C   0  0  0  0  0  0  0  0  0  0  0  0
    6.9481   -0.5889   20.1819 C   0  0  0  0  0  0  0  0  0  0  0  0
    5.8024    0.1904   20.3997 C   0  0  0  0  0  0  0  0  0  0  0  0
    5.3452    1.0235   19.3802 C   0  0  0  0  0  0  0  0  0  0  0  0
    6.0362    1.0315   18.1637 C   0  0  0  0  0  0  0  0  0  0  0  0
    7.1204    0.2791   17.9222 N   0  0  0  0  0  0  0  0  0  0  0  0
    7.5689   -0.4939   18.9231 C   0  0  0  0  0  0  0  0  0  0  0  0
    8.4585   -1.0885   18.7061 H   0  0  0  0  0  0  0  0  0  0  0  0
    5.7031    1.6668   17.3460 H   0  0  0  0  0  0  0  0  0  0  0  0
    4.4789    1.6611   19.5205 H   0  0  0  0  0  0  0  0  0  0  0  0
    5.2804    0.1269   21.3582 H   0  0  0  0  0  0  0  0  0  0  0  0
    5.4892   -2.5871   21.0916 H   0  0  0  0  0  0  0  0  0  0  0  0
    6.0673   -4.2964   22.8170 H   0  0  0  0  0  0  0  0  0  0  0  0
    8.3326   -4.2494   23.8826 H   0  0  0  0  0  0  0  0  0  0  0  0
    9.9288   -2.4591   23.2874 H   0  0  0  0  0  0  0  0  0  0  0  0
    9.7315   -0.0039   20.7850 H   0  0  0  0  0  0  0  0  0  0  0  0
   10.4333   -0.4296   22.3504 H   0  0  0  0  0  0  0  0  0  0  0  0
    7.8115    0.8150   22.5661 H   0  0  0  0  0  0  0  0  0  0  0  0
   11.8385    3.1853   20.3048 H   0  0  0  0  0  0  0  0  0  0  0  0
    9.3237    2.2750   24.4758 H   0  0  0  0  0  0  0  0  0  0  0  0
   10.8124    2.4065   25.3535 H   0  0  0  0  0  0  0  0  0  0  0  0
    9.2458    4.2383   26.1117 H   0  0  0  0  0  0  0  0  0  0  0  0
    8.9769    4.7059   24.4200 H   0  0  0  0  0  0  0  0  0  0  0  0
   10.5609    5.0119   25.1790 H   0  0  0  0  0  0  0  0  0  0  0  0
  1  2  1  0
  2  3  1  0
  3  4  1  0
  4  5  2  0
  5  6  1  0
  6  7  1  0
  6  8  1  0
  6  9  1  0
  5 10  1  0
 10 11  2  0
 11 12  1  0
 12 13  2  0
 12 14  2  0
 12 15  1  0
 15 16  1  0
 16 17  1  0
 17 18  2  0
 18 19  1  0
 19 20  2  0
 20 21  1  0
 21 22  2  0
 22 23  1  0
 23 24  2  0
 24 25  1  0
 25 26  2  0
 26 27  1  0
 27 28  2  0
 28 29  1  0
 26 30  1  0
 25 31  1  0
 24 32  1  0
 21 33  1  0
 20 34  1  0
 19 35  1  0
 18 36  1  0
 16 37  1  0
 16 38  1  0
 15 39  1  0
 10 40  1  0
  2 41  1  0
  2 42  1  0
  1 43  1  0
  1 44  1  0
  1 45  1  0
 11  3  1  0
 22 17  1  0
 28 23  1  0
M  END
>  <cnnaffinity>  (1) 
-5.80979

>  <filename>  (1) 
CCn1nc(C)cc1S(=O)(=O)NCc1ccccc1-c1cccnc1

$$$$
