
     RDKit          3D

 36 39  0  0  0  0  0  0  0  0999 V2000
   11.2224   -1.7389   22.1092 C   0  0  0  0  0  0  0  0  0  0  0  0
    9.8478   -2.3480   22.3444 C   0  0  0  0  0  0  0  0  0  0  0  0
    8.6989   -1.4725   22.0787 N   0  0  0  0  0  0  0  0  0  0  0  0
    8.4499   -1.0395   20.8192 N   0  0  0  0  0  0  0  0  0  0  0  0
    7.2442   -0.5062   20.9191 C   0  0  0  0  0  0  0  0  0  0  0  0
    6.5418    0.1110   19.7874 C   0  0  0  0  0  0  0  0  0  0  0  0
    5.3127    0.7751   19.9269 C   0  0  0  0  0  0  0  0  0  0  0  0
    4.7674    1.3948   18.8045 C   0  0  0  0  0  0  0  0  0  0  0  0
    5.4598    1.3255   17.5898 C   0  0  0  0  0  0  0  0  0  0  0  0
    6.6222    0.6739   17.4404 N   0  0  0  0  0  0  0  0  0  0  0  0
    7.1467    0.0846   18.5206 C   0  0  0  0  0  0  0  0  0  0  0  0
    8.0945   -0.4293   18.3701 H   0  0  0  0  0  0  0  0  0  0  0  0
    5.0649    1.8251   16.7063 H   0  0  0  0  0  0  0  0  0  0  0  0
    3.8452    1.9605   18.8696 H   0  0  0  0  0  0  0  0  0  0  0  0
    4.8157    0.8177   20.8991 H   0  0  0  0  0  0  0  0  0  0  0  0
    6.6968   -0.5847   22.1555 N   0  0  0  0  0  0  0  0  0  0  0  0
    7.6225   -1.1986   22.8633 C   0  0  0  0  0  0  0  0  0  0  0  0
    7.5499   -1.6448   24.2772 C   0  0  0  0  0  0  0  0  0  0  0  0
    6.6107   -2.5892   24.7307 C   0  0  0  0  0  0  0  0  0  0  0  0
    6.7335   -3.1668   26.0080 C   0  0  0  0  0  0  0  0  0  0  0  0
    7.7571   -2.8011   26.8881 C   0  0  0  0  0  0  0  0  0  0  0  0
    8.5986   -1.7712   26.4668 C   0  0  0  0  0  0  0  0  0  0  0  0
    8.5263   -1.1809   25.1989 C   0  0  0  0  0  0  0  0  0  0  0  0
    9.5461   -0.1512   25.2053 C   0  0  0  0  0  0  0  0  0  0  0  0
   10.1368   -0.2207   26.4190 C   0  0  0  0  0  0  0  0  0  0  0  0
    9.5862   -1.1965   27.2028 O   0  0  0  0  0  0  0  0  0  0  0  0
   10.9499    0.3182   26.8901 H   0  0  0  0  0  0  0  0  0  0  0  0
    9.7644    0.5495   24.4079 H   0  0  0  0  0  0  0  0  0  0  0  0
    7.9158   -3.2850   27.8431 H   0  0  0  0  0  0  0  0  0  0  0  0
    6.0298   -3.9360   26.3170 H   0  0  0  0  0  0  0  0  0  0  0  0
    5.7904   -2.9030   24.0855 H   0  0  0  0  0  0  0  0  0  0  0  0
    9.7686   -2.6871   23.3798 H   0  0  0  0  0  0  0  0  0  0  0  0
    9.7262   -3.2062   21.6927 H   0  0  0  0  0  0  0  0  0  0  0  0
   11.9858   -2.4578   22.4244 H   0  0  0  0  0  0  0  0  0  0  0  0
   11.3948   -1.5352   21.0522 H   0  0  0  0  0  0  0  0  0  0  0  0
   11.3805   -0.8206   22.6766 H   0  0  0  0  0  0  0  0  0  0  0  0
  1  2  1  0
  2  3  1  0
  3  4  1  0
  4  5  2  0
  5  6  1  0
  6  7  2  0
  7  8  1  0
  8  9  2  0
  9 10  1  0
 10 11  2  0
 11 12  1  0
  9 13  1  0
  8 14  1  0
  7 15  1  0
  5 16  1  0
 16 17  2  0
 17 18  1  0
 18 19  2  0
 19 20  1  0
 20 21  2  0
 21 22  1  0
 22 23  2  0
 23 24  1  0
 24 25  2  0
 25 26  1  0
 25 27  1  0
 24 28  1  0
 21 29  1  0
 20 30  1  0
 19 31  1  0
  2 32  1  0
  2 33  1  0
  1 34  1  0
  1 35  1  0
  1 36  1  0
 17  3  1  0
 23 18  1  0
 11  6  1  0
 26 22  1  0
M  END
>  <cnnaffinity>  (1) 
-5.49989

>  <filename>  (1) 
CCn1nc(-c2cccnc2)nc1-c1cccc2occc12

$$$$
