
     RDKit          3D

 47 49  0  0  0  0  0  0  0  0999 V2000
    7.0402   -3.0934   24.5885 C   0  0  0  0  0  0  0  0  0  0  0  0
    7.6844   -1.7365   24.3262 C   0  0  0  0  0  0  0  0  0  0  0  0
    7.7756   -1.4084   22.9086 N   0  0  0  0  0  0  0  0  0  0  0  0
    6.7399   -0.7892   22.2791 N   0  0  0  0  0  0  0  0  0  0  0  0
    7.1996   -0.6195   21.0527 C   0  0  0  0  0  0  0  0  0  0  0  0
    6.5031    0.0687   19.9665 C   0  0  0  0  0  0  0  0  0  0  0  0
    5.2788    0.7525   20.0832 C   0  0  0  0  0  0  0  0  0  0  0  0
    4.7703    1.3627   18.9346 C   0  0  0  0  0  0  0  0  0  0  0  0
    5.4861    1.2689   17.7356 C   0  0  0  0  0  0  0  0  0  0  0  0
    6.6531    0.6222   17.6166 N   0  0  0  0  0  0  0  0  0  0  0  0
    7.1439    0.0519   18.7188 C   0  0  0  0  0  0  0  0  0  0  0  0
    8.1022   -0.4515   18.6161 H   0  0  0  0  0  0  0  0  0  0  0  0
    5.1097    1.7368   16.8278 H   0  0  0  0  0  0  0  0  0  0  0  0
    3.8426    1.9253   18.9539 H   0  0  0  0  0  0  0  0  0  0  0  0
    4.7543    0.8103   21.0395 H   0  0  0  0  0  0  0  0  0  0  0  0
    8.4542   -1.1047   20.8604 N   0  0  0  0  0  0  0  0  0  0  0  0
    8.7724   -1.6035   22.0212 C   0  0  0  0  0  0  0  0  0  0  0  0
   10.0990   -2.1968   22.2394 C   0  0  0  0  0  0  0  0  0  0  0  0
   11.2390   -0.8674   22.2601 S   0  0  0  0  0  0  0  0  0  0  0  0
   12.5383   -1.4681   22.4992 O   0  0  0  0  0  0  0  0  0  0  0  0
   11.0664   -0.0208   21.0970 O   0  0  0  0  0  0  0  0  0  0  0  0
   10.6783   -0.0568   23.6489 N   0  0  0  0  0  0  0  0  0  0  0  0
    9.8970    1.1814   23.3286 C   0  0  0  0  0  0  0  0  0  0  0  0
   10.7600    2.4719   23.2484 C   0  0  0  0  0  0  0  0  0  0  0  0
   12.2428    2.1989   22.9113 C   0  0  0  0  0  0  0  0  0  0  0  0
   13.0875    3.4679   22.8929 C   0  0  0  0  0  0  0  0  0  0  0  0
   14.1466    3.2253   22.7401 H   0  0  0  0  0  0  0  0  0  0  0  0
   12.9990    4.0015   23.8460 H   0  0  0  0  0  0  0  0  0  0  0  0
   12.7739    4.1423   22.0884 H   0  0  0  0  0  0  0  0  0  0  0  0
   12.8389    1.1611   23.9054 C   0  0  0  0  0  0  0  0  0  0  0  0
   11.7700    0.3003   24.5927 C   0  0  0  0  0  0  0  0  0  0  0  0
   11.2863    0.8407   25.4168 H   0  0  0  0  0  0  0  0  0  0  0  0
   12.1953   -0.5786   25.0683 H   0  0  0  0  0  0  0  0  0  0  0  0
   13.5105    0.4883   23.3640 H   0  0  0  0  0  0  0  0  0  0  0  0
   13.4237    1.6601   24.6827 H   0  0  0  0  0  0  0  0  0  0  0  0
   12.2708    1.7655   21.9027 H   0  0  0  0  0  0  0  0  0  0  0  0
   10.7257    2.9922   24.2171 H   0  0  0  0  0  0  0  0  0  0  0  0
   10.3160    3.1567   22.5156 H   0  0  0  0  0  0  0  0  0  0  0  0
    9.1620    1.2823   24.1364 H   0  0  0  0  0  0  0  0  0  0  0  0
    9.3299    1.0503   22.4020 H   0  0  0  0  0  0  0  0  0  0  0  0
   10.2458   -2.7582   23.1583 H   0  0  0  0  0  0  0  0  0  0  0  0
   10.4354   -2.7410   21.3611 H   0  0  0  0  0  0  0  0  0  0  0  0
    8.6967   -1.6563   24.7415 H   0  0  0  0  0  0  0  0  0  0  0  0
    7.0760   -0.9487   24.7740 H   0  0  0  0  0  0  0  0  0  0  0  0
    6.9481   -3.2664   25.6646 H   0  0  0  0  0  0  0  0  0  0  0  0
    7.6229   -3.9140   24.1636 H   0  0  0  0  0  0  0  0  0  0  0  0
    6.0418   -3.1187   24.1413 H   0  0  0  0  0  0  0  0  0  0  0  0
  1  2  1  0
  2  3  1  0
  3  4  1  0
  4  5  2  0
  5  6  1  0
  6  7  2  0
  7  8  1  0
  8  9  2  0
  9 10  1  0
 10 11  2  0
 11 12  1  0
  9 13  1  0
  8 14  1  0
  7 15  1  0
  5 16  1  0
 16 17  2  0
 17 18  1  0
 18 19  1  0
 19 20  2  0
 19 21  2  0
 19 22  1  0
 22 23  1  0
 23 24  1  0
 24 25  1  0
 25 26  1  0
 26 27  1  0
 26 28  1  0
 26 29  1  0
 25 30  1  0
 30 31  1  0
 31 32  1  0
 31 33  1  0
 30 34  1  0
 30 35  1  0
 25 36  1  0
 24 37  1  0
 24 38  1  0
 23 39  1  0
 23 40  1  0
 18 41  1  0
 18 42  1  0
  2 43  1  0
  2 44  1  0
  1 45  1  0
  1 46  1  0
  1 47  1  0
 17  3  1  0
 31 22  1  0
 11  6  1  0
M  END
>  <cnnaffinity>  (1) 
-6.31617

>  <filename>  (1) 
CCn1nc(-c2cccnc2)nc1CS(=O)(=O)N1CCC(C)CC1

$$$$
