
     RDKit          3D

 47 51  0  0  0  0  0  0  0  0999 V2000
    5.4768    3.2064   24.0857 C   0  0  0  0  0  0  0  0  0  0  0  0
    6.5832    3.9773   23.3753 C   0  0  0  0  0  0  0  0  0  0  0  0
    7.8539    3.9067   24.0992 N   0  0  0  0  0  0  0  0  0  0  0  0
    8.1893    4.7515   25.1214 C   0  0  0  0  0  0  0  0  0  0  0  0
    9.4300    4.4095   25.6029 C   0  0  0  0  0  0  0  0  0  0  0  0
    9.8700    3.3085   24.8448 C   0  0  0  0  0  0  0  0  0  0  0  0
    8.8755    3.0003   23.9351 C   0  0  0  0  0  0  0  0  0  0  0  0
    8.8203    1.9342   22.9481 C   0  0  0  0  0  0  0  0  0  0  0  0
    7.7675    1.2190   22.5736 N   0  0  0  0  0  0  0  0  0  0  0  0
    8.2864    0.3163   21.7110 C   0  0  0  0  0  0  0  0  0  0  0  0
    7.4311   -0.6738   20.9737 C   0  0  0  0  0  0  0  0  0  0  0  0
    6.6497   -0.0408   19.8321 C   0  0  0  0  0  0  0  0  0  0  0  0
    5.4460    0.6262   20.0938 C   0  0  0  0  0  0  0  0  0  0  0  0
    4.8066    1.2999   19.0514 C   0  0  0  0  0  0  0  0  0  0  0  0
    5.3994    1.2941   17.7859 C   0  0  0  0  0  0  0  0  0  0  0  0
    6.5462    0.6532   17.5098 N   0  0  0  0  0  0  0  0  0  0  0  0
    7.1459    0.0082   18.5183 C   0  0  0  0  0  0  0  0  0  0  0  0
    8.0820   -0.4972   18.2755 H   0  0  0  0  0  0  0  0  0  0  0  0
    4.9360    1.8283   16.9574 H   0  0  0  0  0  0  0  0  0  0  0  0
    3.8780    1.8368   19.2095 H   0  0  0  0  0  0  0  0  0  0  0  0
    5.0321    0.6288   21.1054 H   0  0  0  0  0  0  0  0  0  0  0  0
    6.7281   -1.0861   21.7040 H   0  0  0  0  0  0  0  0  0  0  0  0
    8.0652   -1.4923   20.6166 H   0  0  0  0  0  0  0  0  0  0  0  0
    9.5921    0.3982   21.5372 N   0  0  0  0  0  0  0  0  0  0  0  0
    9.9287    1.4736   22.3005 N   0  0  0  0  0  0  0  0  0  0  0  0
   11.2326    2.0302   22.3122 C   0  0  0  0  0  0  0  0  0  0  0  0
   11.4659    3.4089   22.2488 C   0  0  0  0  0  0  0  0  0  0  0  0
   12.7745    3.9230   22.3833 C   0  0  0  0  0  0  0  0  0  0  0  0
   13.8566    3.0843   22.6376 C   0  0  0  0  0  0  0  0  0  0  0  0
   13.6384    1.6902   22.6870 C   0  0  0  0  0  0  0  0  0  0  0  0
   12.3421    1.1884   22.4825 C   0  0  0  0  0  0  0  0  0  0  0  0
   12.4789   -0.1766   22.4509 N   0  0  0  0  0  0  0  0  0  0  0  0
   13.8069   -0.4362   22.6218 C   0  0  0  0  0  0  0  0  0  0  0  0
   14.5339    0.6334   22.7879 N   0  0  0  0  0  0  0  0  0  0  0  0
   14.2004   -1.4435   22.6094 H   0  0  0  0  0  0  0  0  0  0  0  0
   11.7403   -0.7910   22.1340 H   0  0  0  0  0  0  0  0  0  0  0  0
   14.8616    3.4786   22.7203 H   0  0  0  0  0  0  0  0  0  0  0  0
   12.9458    4.9917   22.2549 H   0  0  0  0  0  0  0  0  0  0  0  0
   10.6264    4.0986   22.2054 H   0  0  0  0  0  0  0  0  0  0  0  0
   10.8306    2.8065   24.9040 H   0  0  0  0  0  0  0  0  0  0  0  0
    9.9558    4.8895   26.4190 H   0  0  0  0  0  0  0  0  0  0  0  0
    7.5024    5.5251   25.4284 H   0  0  0  0  0  0  0  0  0  0  0  0
    6.7419    3.5964   22.3611 H   0  0  0  0  0  0  0  0  0  0  0  0
    6.3251    5.0417   23.2857 H   0  0  0  0  0  0  0  0  0  0  0  0
    5.3340    3.5939   25.1017 H   0  0  0  0  0  0  0  0  0  0  0  0
    4.5372    3.3152   23.5353 H   0  0  0  0  0  0  0  0  0  0  0  0
    5.7294    2.1427   24.1399 H   0  0  0  0  0  0  0  0  0  0  0  0
  1  2  1  0
  2  3  1  0
  3  4  1  0
  4  5  2  0
  5  6  1  0
  6  7  2  0
  7  8  1  0
  8  9  2  0
  9 10  1  0
 10 11  1  0
 11 12  1  0
 12 13  2  0
 13 14  1  0
 14 15  2  0
 15 16  1  0
 16 17  2  0
 17 18  1  0
 15 19  1  0
 14 20  1  0
 13 21  1  0
 11 22  1  0
 11 23  1  0
 10 24  2  0
 24 25  1  0
 25 26  1  0
 26 27  2  0
 27 28  1  0
 28 29  2  0
 29 30  1  0
 30 31  2  0
 31 32  1  0
 32 33  1  0
 33 34  2  0
 33 35  1  0
 32 36  1  0
 29 37  1  0
 28 38  1  0
 27 39  1  0
  6 40  1  0
  5 41  1  0
  4 42  1  0
  2 43  1  0
  2 44  1  0
  1 45  1  0
  1 46  1  0
  1 47  1  0
  7  3  1  0
 25  8  1  0
 31 26  1  0
 17 12  1  0
 34 30  1  0
M  END
>  <cnnaffinity>  (1) 
-6.72887

>  <filename>  (1) 
CCn1cccc1-c1nc(Cc2cccnc2)nn1-c1cccc2nc[nH]c12

$$$$
