
     RDKit          3D

 36 39  0  0  0  0  0  0  0  0999 V2000
   11.1404   -1.4241   22.6994 C   0  0  0  0  0  0  0  0  0  0  0  0
   10.1052   -2.4412   22.2628 C   0  0  0  0  0  0  0  0  0  0  0  0
    8.8292   -1.8112   21.9315 N   0  0  0  0  0  0  0  0  0  0  0  0
    8.5232   -1.3271   20.7034 N   0  0  0  0  0  0  0  0  0  0  0  0
    7.3937   -0.7012   20.9230 C   0  0  0  0  0  0  0  0  0  0  0  0
    6.6588    0.0061   19.9009 C   0  0  0  0  0  0  0  0  0  0  0  0
    5.4434    0.6480   20.1666 C   0  0  0  0  0  0  0  0  0  0  0  0
    4.8248    1.3001   19.1064 C   0  0  0  0  0  0  0  0  0  0  0  0
    5.4084    1.2872   17.8370 C   0  0  0  0  0  0  0  0  0  0  0  0
    6.5751    0.6642   17.5955 N   0  0  0  0  0  0  0  0  0  0  0  0
    7.1889    0.0435   18.6136 C   0  0  0  0  0  0  0  0  0  0  0  0
    8.1364   -0.4458   18.4095 H   0  0  0  0  0  0  0  0  0  0  0  0
    4.9000    1.7931   17.0218 H   0  0  0  0  0  0  0  0  0  0  0  0
    3.8918    1.8252   19.2559 H   0  0  0  0  0  0  0  0  0  0  0  0
    4.9962    0.6437   21.1645 H   0  0  0  0  0  0  0  0  0  0  0  0
    6.9493   -0.7463   22.2311 N   0  0  0  0  0  0  0  0  0  0  0  0
    7.8615   -1.4402   22.8401 C   0  0  0  0  0  0  0  0  0  0  0  0
    7.8896   -1.7274   24.2717 C   0  0  0  0  0  0  0  0  0  0  0  0
    8.0257   -0.7835   25.2612 C   0  0  0  0  0  0  0  0  0  0  0  0
    8.0531   -1.4756   26.4718 N   0  0  0  0  0  0  0  0  0  0  0  0
    7.9247   -2.8336   26.2892 C   0  0  0  0  0  0  0  0  0  0  0  0
    7.8088   -3.0405   24.9197 C   0  0  0  0  0  0  0  0  0  0  0  0
    7.6177   -4.3366   24.4519 C   0  0  0  0  0  0  0  0  0  0  0  0
    7.3678   -4.7362   22.5923 Br  0  0  0  0  0  0  0  0  0  0  0  0
    7.5850   -5.3443   25.4140 C   0  0  0  0  0  0  0  0  0  0  0  0
    7.7265   -5.0393   26.7758 C   0  0  0  0  0  0  0  0  0  0  0  0
    7.8931   -3.7833   27.2259 N   0  0  0  0  0  0  0  0  0  0  0  0
    7.6894   -5.8495   27.4986 H   0  0  0  0  0  0  0  0  0  0  0  0
    7.4429   -6.3706   25.1167 H   0  0  0  0  0  0  0  0  0  0  0  0
    8.1432   -1.0691   27.3914 H   0  0  0  0  0  0  0  0  0  0  0  0
    8.1194    0.2964   25.1172 H   0  0  0  0  0  0  0  0  0  0  0  0
    9.9887   -3.2278   23.0196 H   0  0  0  0  0  0  0  0  0  0  0  0
   10.4693   -2.8828   21.3516 H   0  0  0  0  0  0  0  0  0  0  0  0
   10.8426   -0.9529   23.6438 H   0  0  0  0  0  0  0  0  0  0  0  0
   11.2710   -0.6549   21.9337 H   0  0  0  0  0  0  0  0  0  0  0  0
   12.1012   -1.9333   22.7985 H   0  0  0  0  0  0  0  0  0  0  0  0
  1  2  1  0
  2  3  1  0
  3  4  1  0
  4  5  2  0
  5  6  1  0
  6  7  2  0
  7  8  1  0
  8  9  2  0
  9 10  1  0
 10 11  2  0
 11 12  1  0
  9 13  1  0
  8 14  1  0
  7 15  1  0
  5 16  1  0
 16 17  2  0
 17 18  1  0
 18 19  2  0
 19 20  1  0
 20 21  1  0
 21 22  2  0
 22 23  1  0
 23 24  1  0
 23 25  2  0
 25 26  1  0
 26 27  2  0
 26 28  1  0
 25 29  1  0
 20 30  1  0
 19 31  1  0
  2 32  1  0
  2 33  1  0
  1 34  1  0
  1 35  1  0
  1 36  1  0
 17  3  1  0
 22 18  1  0
 11  6  1  0
 27 21  1  0
M  END
>  <cnnaffinity>  (1) 
-6.37744

>  <filename>  (1) 
CCn1nc(-c2cccnc2)nc1-c1c[nH]c2nccc(Br)c12

$$$$
