
     RDKit          3D

 50 54  0  0  0  0  0  0  0  0999 V2000
    7.6662    6.1434   23.4814 C   0  0  0  0  0  0  0  0  0  0  0  0
    7.5131    4.6800   23.0838 C   0  0  0  0  0  0  0  0  0  0  0  0
    7.8491    3.7674   24.1767 N   0  0  0  0  0  0  0  0  0  0  0  0
    6.9827    3.5563   25.2165 C   0  0  0  0  0  0  0  0  0  0  0  0
    5.9314    4.1414   25.3979 O   0  0  0  0  0  0  0  0  0  0  0  0
    7.5519    2.4374   26.0742 C   0  0  0  0  0  0  0  0  0  0  0  0
    8.9485    2.1537   25.5141 C   0  0  0  0  0  0  0  0  0  0  0  0
    8.9571    2.8189   24.1097 C   0  0  0  0  0  0  0  0  0  0  0  0
    8.8635    1.8252   22.9672 C   0  0  0  0  0  0  0  0  0  0  0  0
    7.8401    1.0472   22.6594 N   0  0  0  0  0  0  0  0  0  0  0  0
    8.3396    0.2415   21.6865 C   0  0  0  0  0  0  0  0  0  0  0  0
    7.4555   -0.7196   20.9393 C   0  0  0  0  0  0  0  0  0  0  0  0
    6.6746   -0.0536   19.8098 C   0  0  0  0  0  0  0  0  0  0  0  0
    5.4792    0.6206   20.0904 C   0  0  0  0  0  0  0  0  0  0  0  0
    4.8269    1.3027   19.0607 C   0  0  0  0  0  0  0  0  0  0  0  0
    5.4039    1.2988   17.7874 C   0  0  0  0  0  0  0  0  0  0  0  0
    6.5438    0.6548   17.4920 N   0  0  0  0  0  0  0  0  0  0  0  0
    7.1511   -0.0021   18.4883 C   0  0  0  0  0  0  0  0  0  0  0  0
    8.0807   -0.5114   18.2295 H   0  0  0  0  0  0  0  0  0  0  0  0
    4.9332    1.8353   16.9659 H   0  0  0  0  0  0  0  0  0  0  0  0
    3.9013    1.8416   19.2324 H   0  0  0  0  0  0  0  0  0  0  0  0
    5.0926    0.6203   21.1120 H   0  0  0  0  0  0  0  0  0  0  0  0
    8.0749   -1.5379   20.5604 H   0  0  0  0  0  0  0  0  0  0  0  0
    6.7531   -1.1316   21.6733 H   0  0  0  0  0  0  0  0  0  0  0  0
    9.6190    0.4318   21.4097 N   0  0  0  0  0  0  0  0  0  0  0  0
    9.9403    1.4939   22.2031 N   0  0  0  0  0  0  0  0  0  0  0  0
   11.2359    2.0749   22.2674 C   0  0  0  0  0  0  0  0  0  0  0  0
   11.4721    3.4541   22.2292 C   0  0  0  0  0  0  0  0  0  0  0  0
   12.7702    3.9830   22.3950 C   0  0  0  0  0  0  0  0  0  0  0  0
   13.8498    3.1537   22.6737 C   0  0  0  0  0  0  0  0  0  0  0  0
   13.6327    1.7608   22.7242 C   0  0  0  0  0  0  0  0  0  0  0  0
   12.3499    1.2456   22.4721 C   0  0  0  0  0  0  0  0  0  0  0  0
   12.5059   -0.1190   22.4721 N   0  0  0  0  0  0  0  0  0  0  0  0
   13.8318   -0.3633   22.6833 C   0  0  0  0  0  0  0  0  0  0  0  0
   14.5390    0.7177   22.8493 N   0  0  0  0  0  0  0  0  0  0  0  0
   14.2283   -1.3713   22.7228 H   0  0  0  0  0  0  0  0  0  0  0  0
   11.7972   -0.7422   22.1136 H   0  0  0  0  0  0  0  0  0  0  0  0
   14.8510    3.5524   22.7523 H   0  0  0  0  0  0  0  0  0  0  0  0
   12.9260    5.0543   22.3208 H   0  0  0  0  0  0  0  0  0  0  0  0
   10.6461    4.1452   22.1180 H   0  0  0  0  0  0  0  0  0  0  0  0
    9.8871    3.3793   23.9921 H   0  0  0  0  0  0  0  0  0  0  0  0
    9.1876    1.0866   25.4646 H   0  0  0  0  0  0  0  0  0  0  0  0
    9.7254    2.6101   26.1293 H   0  0  0  0  0  0  0  0  0  0  0  0
    6.8801    1.5804   25.9746 H   0  0  0  0  0  0  0  0  0  0  0  0
    7.5521    2.7440   27.1222 H   0  0  0  0  0  0  0  0  0  0  0  0
    8.1565    4.4445   22.2253 H   0  0  0  0  0  0  0  0  0  0  0  0
    6.4821    4.4852   22.7609 H   0  0  0  0  0  0  0  0  0  0  0  0
    7.4221    6.7935   22.6337 H   0  0  0  0  0  0  0  0  0  0  0  0
    6.9893    6.3784   24.3067 H   0  0  0  0  0  0  0  0  0  0  0  0
    8.6912    6.3632   23.7936 H   0  0  0  0  0  0  0  0  0  0  0  0
  1  2  1  0
  2  3  1  0
  3  4  1  0
  4  5  2  0
  4  6  1  0
  6  7  1  0
  7  8  1  0
  8  9  1  0
  9 10  2  0
 10 11  1  0
 11 12  1  0
 12 13  1  0
 13 14  2  0
 14 15  1  0
 15 16  2  0
 16 17  1  0
 17 18  2  0
 18 19  1  0
 16 20  1  0
 15 21  1  0
 14 22  1  0
 12 23  1  0
 12 24  1  0
 11 25  2  0
 25 26  1  0
 26 27  1  0
 27 28  2  0
 28 29  1  0
 29 30  2  0
 30 31  1  0
 31 32  2  0
 32 33  1  0
 33 34  1  0
 34 35  2  0
 34 36  1  0
 33 37  1  0
 30 38  1  0
 29 39  1  0
 28 40  1  0
  8 41  1  0
  7 42  1  0
  7 43  1  0
  6 44  1  0
  6 45  1  0
  2 46  1  0
  2 47  1  0
  1 48  1  0
  1 49  1  0
  1 50  1  0
  8  3  1  0
 26  9  1  0
 32 27  1  0
 18 13  1  0
 35 31  1  0
M  END
>  <cnnaffinity>  (1) 
-6.75115

>  <filename>  (1) 
CCN1C(=O)CCC1c1nc(Cc2cccnc2)nn1-c1cccc2nc[nH]c12

$$$$
