
     RDKit          3D

 44 47  0  0  0  0  0  0  0  0999 V2000
   11.2533   -1.5367   22.5355 C   0  0  0  0  0  0  0  0  0  0  0  0
   10.0707   -2.4071   22.1220 C   0  0  0  0  0  0  0  0  0  0  0  0
    8.8120   -1.6910   21.9859 N   0  0  0  0  0  0  0  0  0  0  0  0
    8.4859   -1.2181   20.7635 N   0  0  0  0  0  0  0  0  0  0  0  0
    7.3357   -0.6100   20.9725 C   0  0  0  0  0  0  0  0  0  0  0  0
    6.6022    0.0437   19.8947 C   0  0  0  0  0  0  0  0  0  0  0  0
    5.3811    0.6954   20.1067 C   0  0  0  0  0  0  0  0  0  0  0  0
    4.7864    1.3335   19.0223 C   0  0  0  0  0  0  0  0  0  0  0  0
    5.4270    1.3002   17.7769 C   0  0  0  0  0  0  0  0  0  0  0  0
    6.5854    0.6580   17.5613 N   0  0  0  0  0  0  0  0  0  0  0  0
    7.1516    0.0440   18.6035 C   0  0  0  0  0  0  0  0  0  0  0  0
    8.0891   -0.4732   18.4138 H   0  0  0  0  0  0  0  0  0  0  0  0
    5.0000    1.8069   16.9134 H   0  0  0  0  0  0  0  0  0  0  0  0
    3.8518    1.8745   19.1251 H   0  0  0  0  0  0  0  0  0  0  0  0
    4.9270    0.7100   21.1007 H   0  0  0  0  0  0  0  0  0  0  0  0
    6.8995   -0.6689   22.2536 N   0  0  0  0  0  0  0  0  0  0  0  0
    7.8362   -1.3686   22.8695 C   0  0  0  0  0  0  0  0  0  0  0  0
    7.7862   -1.8611   24.2893 C   0  0  0  0  0  0  0  0  0  0  0  0
    7.1510   -3.2795   24.4448 C   0  0  0  0  0  0  0  0  0  0  0  0
    5.6931   -3.2416   23.9263 C   0  0  0  0  0  0  0  0  0  0  0  0
    4.9083   -4.3182   24.3866 O   0  0  0  0  0  0  0  0  0  0  0  0
    4.7372   -4.2667   25.7941 C   0  0  0  0  0  0  0  0  0  0  0  0
    6.0689   -4.2917   26.5309 C   0  0  0  0  0  0  0  0  0  0  0  0
    6.1619   -4.8040   27.8341 C   0  0  0  0  0  0  0  0  0  0  0  0
    7.4109   -4.9915   28.4271 C   0  0  0  0  0  0  0  0  0  0  0  0
    8.5679   -4.5816   27.7550 C   0  0  0  0  0  0  0  0  0  0  0  0
    8.4736   -3.9710   26.5054 C   0  0  0  0  0  0  0  0  0  0  0  0
    7.2281   -3.8291   25.8682 C   0  0  0  0  0  0  0  0  0  0  0  0
    9.3771   -3.6108   26.0126 H   0  0  0  0  0  0  0  0  0  0  0  0
    9.5400   -4.7488   28.2098 H   0  0  0  0  0  0  0  0  0  0  0  0
    7.4912   -5.4928   29.3870 H   0  0  0  0  0  0  0  0  0  0  0  0
    5.2619   -5.0767   28.3846 H   0  0  0  0  0  0  0  0  0  0  0  0
    4.1550   -3.3713   26.0831 H   0  0  0  0  0  0  0  0  0  0  0  0
    4.1361   -5.1451   26.0533 H   0  0  0  0  0  0  0  0  0  0  0  0
    5.6815   -3.2737   22.8319 H   0  0  0  0  0  0  0  0  0  0  0  0
    5.2360   -2.2859   24.2338 H   0  0  0  0  0  0  0  0  0  0  0  0
    7.7177   -3.9850   23.8101 H   0  0  0  0  0  0  0  0  0  0  0  0
    7.1891   -1.1555   24.8774 H   0  0  0  0  0  0  0  0  0  0  0  0
    8.7939   -1.8297   24.7201 H   0  0  0  0  0  0  0  0  0  0  0  0
    9.9262   -3.2356   22.8301 H   0  0  0  0  0  0  0  0  0  0  0  0
   10.2424   -2.8051   21.1199 H   0  0  0  0  0  0  0  0  0  0  0  0
   11.4310   -0.7428   21.8031 H   0  0  0  0  0  0  0  0  0  0  0  0
   12.1491   -2.1648   22.5561 H   0  0  0  0  0  0  0  0  0  0  0  0
   11.0929   -1.0867   23.5240 H   0  0  0  0  0  0  0  0  0  0  0  0
  1  2  1  0
  2  3  1  0
  3  4  1  0
  4  5  2  0
  5  6  1  0
  6  7  2  0
  7  8  1  0
  8  9  2  0
  9 10  1  0
 10 11  2  0
 11 12  1  0
  9 13  1  0
  8 14  1  0
  7 15  1  0
  5 16  1  0
 16 17  2  0
 17 18  1  0
 18 19  1  0
 19 20  1  0
 20 21  1  0
 21 22  1  0
 22 23  1  0
 23 24  2  0
 24 25  1  0
 25 26  2  0
 26 27  1  0
 27 28  2  0
 27 29  1  0
 26 30  1  0
 25 31  1  0
 24 32  1  0
 22 33  1  0
 22 34  1  0
 20 35  1  0
 20 36  1  0
 19 37  1  0
 18 38  1  0
 18 39  1  0
  2 40  1  0
  2 41  1  0
  1 42  1  0
  1 43  1  0
  1 44  1  0
 17  3  1  0
 28 19  1  0
 11  6  1  0
 28 23  1  0
M  END
>  <cnnaffinity>  (1) 
-5.69985

>  <filename>  (1) 
CCn1nc(-c2cccnc2)nc1CC1COCc2ccccc21

$$$$
