
     RDKit          3D

 42 45  0  0  0  0  0  0  0  0999 V2000
   11.0604   -1.2939   22.5156 C   0  0  0  0  0  0  0  0  0  0  0  0
   10.0539   -2.2664   21.9015 C   0  0  0  0  0  0  0  0  0  0  0  0
    8.7228   -1.6943   21.6983 N   0  0  0  0  0  0  0  0  0  0  0  0
    8.3989   -1.2206   20.4769 N   0  0  0  0  0  0  0  0  0  0  0  0
    7.2081   -0.6781   20.6648 C   0  0  0  0  0  0  0  0  0  0  0  0
    6.5019    0.0295   19.5981 C   0  0  0  0  0  0  0  0  0  0  0  0
    5.3076    0.7390   19.8076 C   0  0  0  0  0  0  0  0  0  0  0  0
    4.7649    1.4375   18.7298 C   0  0  0  0  0  0  0  0  0  0  0  0
    5.4235    1.4008   17.4947 C   0  0  0  0  0  0  0  0  0  0  0  0
    6.5602    0.7195   17.2856 N   0  0  0  0  0  0  0  0  0  0  0  0
    7.0838    0.0604   18.3217 C   0  0  0  0  0  0  0  0  0  0  0  0
    8.0227   -0.4610   18.1382 H   0  0  0  0  0  0  0  0  0  0  0  0
    5.0261    1.9377   16.6350 H   0  0  0  0  0  0  0  0  0  0  0  0
    3.8594    2.0257   18.8313 H   0  0  0  0  0  0  0  0  0  0  0  0
    4.8388    0.7613   20.7938 H   0  0  0  0  0  0  0  0  0  0  0  0
    6.7549   -0.7632   21.9384 N   0  0  0  0  0  0  0  0  0  0  0  0
    7.7249   -1.4092   22.5681 C   0  0  0  0  0  0  0  0  0  0  0  0
    7.8503   -1.6451   24.0360 C   0  0  0  0  0  0  0  0  0  0  0  0
    8.0379   -0.5474   24.8475 C   0  0  0  0  0  0  0  0  0  0  0  0
    8.2513   -0.6786   26.2446 C   0  0  0  0  0  0  0  0  0  0  0  0
    8.4323    0.5074   26.8871 O   0  0  0  0  0  0  0  0  0  0  0  0
    8.1799    0.5705   28.2760 C   0  0  0  0  0  0  0  0  0  0  0  0
    8.0813    1.6339   28.5052 H   0  0  0  0  0  0  0  0  0  0  0  0
    7.2421    0.0595   28.5263 H   0  0  0  0  0  0  0  0  0  0  0  0
    9.0034    0.1377   28.8650 H   0  0  0  0  0  0  0  0  0  0  0  0
    8.2590   -1.9151   26.8445 C   0  0  0  0  0  0  0  0  0  0  0  0
    8.0099   -3.0745   26.0553 C   0  0  0  0  0  0  0  0  0  0  0  0
    7.9019   -4.3643   26.6351 C   0  0  0  0  0  0  0  0  0  0  0  0
    7.5808   -5.4431   25.8536 C   0  0  0  0  0  0  0  0  0  0  0  0
    7.3774   -5.3677   24.5128 N   0  0  0  0  0  0  0  0  0  0  0  0
    7.4849   -4.1747   23.9498 C   0  0  0  0  0  0  0  0  0  0  0  0
    7.7970   -2.9602   24.6435 C   0  0  0  0  0  0  0  0  0  0  0  0
    7.3012   -4.1314   22.8752 H   0  0  0  0  0  0  0  0  0  0  0  0
    7.4645   -6.4322   26.3048 H   0  0  0  0  0  0  0  0  0  0  0  0
    8.0519   -4.4827   27.7042 H   0  0  0  0  0  0  0  0  0  0  0  0
    8.4022   -2.0072   27.9133 H   0  0  0  0  0  0  0  0  0  0  0  0
    7.9989    0.4650   24.4606 H   0  0  0  0  0  0  0  0  0  0  0  0
    9.9410   -3.1626   22.5228 H   0  0  0  0  0  0  0  0  0  0  0  0
   10.3705   -2.5632   20.9008 H   0  0  0  0  0  0  0  0  0  0  0  0
   10.8298   -1.1041   23.5697 H   0  0  0  0  0  0  0  0  0  0  0  0
   11.0562   -0.3437   21.9723 H   0  0  0  0  0  0  0  0  0  0  0  0
   12.0696   -1.7153   22.4406 H   0  0  0  0  0  0  0  0  0  0  0  0
  1  2  1  0
  2  3  1  0
  3  4  1  0
  4  5  2  0
  5  6  1  0
  6  7  2  0
  7  8  1  0
  8  9  2  0
  9 10  1  0
 10 11  2  0
 11 12  1  0
  9 13  1  0
  8 14  1  0
  7 15  1  0
  5 16  1  0
 16 17  2  0
 17 18  1  0
 18 19  2  0
 19 20  1  0
 20 21  1  0
 21 22  1  0
 22 23  1  0
 22 24  1  0
 22 25  1  0
 20 26  2  0
 26 27  1  0
 27 28  2  0
 28 29  1  0
 29 30  2  0
 30 31  1  0
 31 32  2  0
 31 33  1  0
 29 34  1  0
 28 35  1  0
 26 36  1  0
 19 37  1  0
  2 38  1  0
  2 39  1  0
  1 40  1  0
  1 41  1  0
  1 42  1  0
 17  3  1  0
 32 18  1  0
 11  6  1  0
 32 27  1  0
M  END
>  <cnnaffinity>  (1) 
-5.98581

>  <filename>  (1) 
CCn1nc(-c2cccnc2)nc1-c1cc(OC)cc2ccncc12

$$$$
