
     RDKit          3D

 46 48  0  0  0  0  0  0  0  0999 V2000
    4.2442    3.8610   22.1823 C   0  0  0  0  0  0  0  0  0  0  0  0
    5.6934    3.7498   22.6424 C   0  0  0  0  0  0  0  0  0  0  0  0
    6.0139    2.4713   23.2991 N   0  0  0  0  0  0  0  0  0  0  0  0
    5.0554    1.8119   23.9781 N   0  0  0  0  0  0  0  0  0  0  0  0
    5.6662    0.8006   24.5786 C   0  0  0  0  0  0  0  0  0  0  0  0
    7.0419    0.8150   24.3171 C   0  0  0  0  0  0  0  0  0  0  0  0
    7.2401    1.8996   23.4863 C   0  0  0  0  0  0  0  0  0  0  0  0
    8.5466    2.4009   22.9402 C   0  0  0  0  0  0  0  0  0  0  0  0
    8.9058    3.8252   23.3562 C   0  0  0  0  0  0  0  0  0  0  0  0
    8.3083    4.5743   22.8230 H   0  0  0  0  0  0  0  0  0  0  0  0
    9.9684    4.0181   23.1639 H   0  0  0  0  0  0  0  0  0  0  0  0
    8.7264    3.9493   24.4284 H   0  0  0  0  0  0  0  0  0  0  0  0
    8.6283    2.2445   21.3995 N   0  0  0  0  0  4  0  0  0  0  0  0
    9.3257    0.9687   20.9649 C   0  0  0  0  0  0  0  0  0  0  0  0
    8.6322   -0.2993   21.4629 C   0  0  0  0  0  0  0  0  0  0  0  0
    9.2390   -1.0759   22.4674 C   0  0  0  0  0  0  0  0  0  0  0  0
    8.6235   -2.2258   22.9764 C   0  0  0  0  0  0  0  0  0  0  0  0
    7.3657   -2.6188   22.4991 C   0  0  0  0  0  0  0  0  0  0  0  0
    6.7448   -1.8560   21.5109 C   0  0  0  0  0  0  0  0  0  0  0  0
    7.3703   -0.7126   20.9773 C   0  0  0  0  0  0  0  0  0  0  0  0
    6.6634    0.0391   19.9073 C   0  0  0  0  0  0  0  0  0  0  0  0
    5.4318    0.6579   20.1504 C   0  0  0  0  0  0  0  0  0  0  0  0
    4.8016    1.3217   19.0989 C   0  0  0  0  0  0  0  0  0  0  0  0
    5.3971    1.3029   17.8310 C   0  0  0  0  0  0  0  0  0  0  0  0
    6.5592    0.6865   17.5694 N   0  0  0  0  0  0  0  0  0  0  0  0
    7.1705    0.0814   18.5971 C   0  0  0  0  0  0  0  0  0  0  0  0
    8.1091   -0.4229   18.3677 H   0  0  0  0  0  0  0  0  0  0  0  0
    4.9162    1.7912   16.9877 H   0  0  0  0  0  0  0  0  0  0  0  0
    3.8643    1.8446   19.2421 H   0  0  0  0  0  0  0  0  0  0  0  0
    4.9938    0.6128   21.1505 H   0  0  0  0  0  0  0  0  0  0  0  0
    5.7736   -2.1349   21.1087 H   0  0  0  0  0  0  0  0  0  0  0  0
    6.8733   -3.5074   22.8950 H   0  0  0  0  0  0  0  0  0  0  0  0
    9.1183   -2.8076   23.7537 H   0  0  0  0  0  0  0  0  0  0  0  0
   10.2053   -0.7579   22.8632 H   0  0  0  0  0  0  0  0  0  0  0  0
    9.3959    0.9651   19.8776 H   0  0  0  0  0  0  0  0  0  0  0  0
   10.3467    0.9579   21.3622 H   0  0  0  0  0  0  0  0  0  0  0  0
    9.0997    3.1105   21.0424 H   0  0  0  0  0  0  0  0  0  0  0  0
    7.6300    2.1367   21.0828 H   0  0  0  0  0  0  0  0  0  0  0  0
    9.2866    1.7092   23.3504 H   0  0  0  0  0  0  0  0  0  0  0  0
    7.8066    0.1258   24.6501 H   0  0  0  0  0  0  0  0  0  0  0  0
    5.0918    0.1126   25.1855 H   0  0  0  0  0  0  0  0  0  0  0  0
    6.3536    3.8456   21.7791 H   0  0  0  0  0  0  0  0  0  0  0  0
    5.9367    4.5840   23.3117 H   0  0  0  0  0  0  0  0  0  0  0  0
    3.9686    3.0220   21.5367 H   0  0  0  0  0  0  0  0  0  0  0  0
    4.0967    4.7843   21.6131 H   0  0  0  0  0  0  0  0  0  0  0  0
    3.5636    3.8627   23.0380 H   0  0  0  0  0  0  0  0  0  0  0  0
  1  2  1  0
  2  3  1  0
  3  4  1  0
  4  5  2  0
  5  6  1  0
  6  7  2  0
  7  8  1  0
  8  9  1  0
  9 10  1  0
  9 11  1  0
  9 12  1  0
  8 13  1  0
 13 14  1  0
 14 15  1  0
 15 16  2  0
 16 17  1  0
 17 18  2  0
 18 19  1  0
 19 20  2  0
 20 21  1  0
 21 22  2  0
 22 23  1  0
 23 24  2  0
 24 25  1  0
 25 26  2  0
 26 27  1  0
 24 28  1  0
 23 29  1  0
 22 30  1  0
 19 31  1  0
 18 32  1  0
 17 33  1  0
 16 34  1  0
 14 35  1  0
 14 36  1  0
 13 37  1  0
 13 38  1  0
  8 39  1  0
  6 40  1  0
  5 41  1  0
  2 42  1  0
  2 43  1  0
  1 44  1  0
  1 45  1  0
  1 46  1  0
  7  3  1  0
 20 15  1  0
 26 21  1  0
M  CHG  1  13   1
M  END
>  <cnnaffinity>  (1) 
-4.94131

>  <filename>  (1) 
CCn1nccc1C(C)[NH2+]Cc1ccccc1-c1cccnc1

$$$$
