
     RDKit          3D

 37 39  0  0  0  0  0  0  0  0999 V2000
   11.2468   -1.5483   22.5520 C   0  0  0  0  0  0  0  0  0  0  0  0
   10.0651   -2.4093   22.1143 C   0  0  0  0  0  0  0  0  0  0  0  0
    8.7985   -1.7012   21.9758 N   0  0  0  0  0  0  0  0  0  0  0  0
    8.4772   -1.2355   20.7519 N   0  0  0  0  0  0  0  0  0  0  0  0
    7.3358   -0.6113   20.9632 C   0  0  0  0  0  0  0  0  0  0  0  0
    6.6095    0.0422   19.8852 C   0  0  0  0  0  0  0  0  0  0  0  0
    5.3909    0.6911   20.1056 C   0  0  0  0  0  0  0  0  0  0  0  0
    4.7887    1.3304   19.0267 C   0  0  0  0  0  0  0  0  0  0  0  0
    5.4284    1.3003   17.7789 C   0  0  0  0  0  0  0  0  0  0  0  0
    6.5860    0.6587   17.5562 N   0  0  0  0  0  0  0  0  0  0  0  0
    7.1573    0.0438   18.5939 C   0  0  0  0  0  0  0  0  0  0  0  0
    8.0974   -0.4697   18.3996 H   0  0  0  0  0  0  0  0  0  0  0  0
    4.9959    1.8114   16.9212 H   0  0  0  0  0  0  0  0  0  0  0  0
    3.8539    1.8681   19.1384 H   0  0  0  0  0  0  0  0  0  0  0  0
    4.9499    0.6970   21.1064 H   0  0  0  0  0  0  0  0  0  0  0  0
    6.9026   -0.6533   22.2450 N   0  0  0  0  0  0  0  0  0  0  0  0
    7.8347   -1.3556   22.8602 C   0  0  0  0  0  0  0  0  0  0  0  0
    7.7634   -1.8474   24.2803 C   0  0  0  0  0  0  0  0  0  0  0  0
    7.1183   -3.2573   24.4390 C   0  0  0  0  0  0  0  0  0  0  0  0
    7.0520   -3.7349   25.8686 C   0  0  0  0  0  0  0  0  0  0  0  0
    5.9774   -3.4064   26.6978 C   0  0  0  0  0  0  0  0  0  0  0  0
    5.9724   -3.9876   27.9571 C   0  0  0  0  0  0  0  0  0  0  0  0
    6.9703   -4.7572   28.3997 N   0  0  0  0  0  0  0  0  0  0  0  0
    7.9730   -4.9655   27.5463 C   0  0  0  0  0  0  0  0  0  0  0  0
    8.0634   -4.4942   26.3033 N   0  0  0  0  0  0  0  0  0  0  0  0
    8.7937   -5.5932   27.8946 H   0  0  0  0  0  0  0  0  0  0  0  0
    5.1265   -3.8479   28.6374 H   0  0  0  0  0  0  0  0  0  0  0  0
    5.1848   -2.7397   26.3786 H   0  0  0  0  0  0  0  0  0  0  0  0
    6.1088   -3.2424   24.0047 H   0  0  0  0  0  0  0  0  0  0  0  0
    7.7078   -3.9880   23.8687 H   0  0  0  0  0  0  0  0  0  0  0  0
    7.1873   -1.1076   24.8473 H   0  0  0  0  0  0  0  0  0  0  0  0
    8.7722   -1.8671   24.7111 H   0  0  0  0  0  0  0  0  0  0  0  0
    9.9199   -3.2578   22.7955 H   0  0  0  0  0  0  0  0  0  0  0  0
   10.2502   -2.7867   21.1101 H   0  0  0  0  0  0  0  0  0  0  0  0
   11.4279   -0.7315   21.8463 H   0  0  0  0  0  0  0  0  0  0  0  0
   12.1433   -2.1775   22.5571 H   0  0  0  0  0  0  0  0  0  0  0  0
   11.0934   -1.1239   23.5512 H   0  0  0  0  0  0  0  0  0  0  0  0
  1  2  1  0
  2  3  1  0
  3  4  1  0
  4  5  2  0
  5  6  1  0
  6  7  2  0
  7  8  1  0
  8  9  2  0
  9 10  1  0
 10 11  2  0
 11 12  1  0
  9 13  1  0
  8 14  1  0
  7 15  1  0
  5 16  1  0
 16 17  2  0
 17 18  1  0
 18 19  1  0
 19 20  1  0
 20 21  2  0
 21 22  1  0
 22 23  2  0
 23 24  1  0
 24 25  2  0
 24 26  1  0
 22 27  1  0
 21 28  1  0
 19 29  1  0
 19 30  1  0
 18 31  1  0
 18 32  1  0
  2 33  1  0
  2 34  1  0
  1 35  1  0
  1 36  1  0
  1 37  1  0
 17  3  1  0
 25 20  1  0
 11  6  1  0
M  END
>  <cnnaffinity>  (1) 
-5.53509

>  <filename>  (1) 
CCn1nc(-c2cccnc2)nc1CCc1ccncn1

$$$$
