
     RDKit          3D

 41 44  0  0  0  0  0  0  0  0999 V2000
   11.1357   -1.6105   22.7944 C   0  0  0  0  0  0  0  0  0  0  0  0
   10.0533   -2.4946   22.1869 C   0  0  0  0  0  0  0  0  0  0  0  0
    8.7817   -1.8359   21.9640 N   0  0  0  0  0  0  0  0  0  0  0  0
    8.4896   -1.3632   20.7341 N   0  0  0  0  0  0  0  0  0  0  0  0
    7.3735   -0.6940   20.9431 C   0  0  0  0  0  0  0  0  0  0  0  0
    6.6556    0.0063   19.8954 C   0  0  0  0  0  0  0  0  0  0  0  0
    5.4395    0.6517   20.1579 C   0  0  0  0  0  0  0  0  0  0  0  0
    4.8103    1.3020   19.1029 C   0  0  0  0  0  0  0  0  0  0  0  0
    5.4176    1.2803   17.8406 C   0  0  0  0  0  0  0  0  0  0  0  0
    6.5782    0.6591   17.5816 N   0  0  0  0  0  0  0  0  0  0  0  0
    7.1851    0.0429   18.5986 C   0  0  0  0  0  0  0  0  0  0  0  0
    8.1357   -0.4389   18.3707 H   0  0  0  0  0  0  0  0  0  0  0  0
    4.9547    1.7869   16.9979 H   0  0  0  0  0  0  0  0  0  0  0  0
    3.8764    1.8365   19.2429 H   0  0  0  0  0  0  0  0  0  0  0  0
    5.0130    0.6386   21.1650 H   0  0  0  0  0  0  0  0  0  0  0  0
    6.9386   -0.7022   22.2255 N   0  0  0  0  0  0  0  0  0  0  0  0
    7.8386   -1.4416   22.8428 C   0  0  0  0  0  0  0  0  0  0  0  0
    7.8528   -1.7794   24.3117 C   0  0  0  0  0  0  0  0  0  0  0  0
    6.4881   -2.1462   24.8460 C   0  0  0  0  0  0  0  0  0  0  0  0
    5.7413   -1.2249   25.5461 C   0  0  0  0  0  0  0  0  0  0  0  0
    4.4721   -1.4332   25.9981 N   0  0  0  0  0  0  0  0  0  0  0  0
    3.9084   -2.5889   25.7270 C   0  0  0  0  0  0  0  0  0  0  0  0
    4.5444   -3.6385   24.9886 C   0  0  0  0  0  0  0  0  0  0  0  0
    3.9021   -4.8776   24.6919 C   0  0  0  0  0  0  0  0  0  0  0  0
    4.5491   -5.8385   23.9544 C   0  0  0  0  0  0  0  0  0  0  0  0
    5.8636   -5.6128   23.4698 C   0  0  0  0  0  0  0  0  0  0  0  0
    6.5071   -4.4257   23.7434 C   0  0  0  0  0  0  0  0  0  0  0  0
    5.8758   -3.4034   24.5214 C   0  0  0  0  0  0  0  0  0  0  0  0
    7.5062   -4.2525   23.3548 H   0  0  0  0  0  0  0  0  0  0  0  0
    6.3554   -6.3903   22.8900 H   0  0  0  0  0  0  0  0  0  0  0  0
    4.0535   -6.7815   23.7450 H   0  0  0  0  0  0  0  0  0  0  0  0
    2.8933   -5.0448   25.0649 H   0  0  0  0  0  0  0  0  0  0  0  0
    2.8913   -2.7276   26.1040 H   0  0  0  0  0  0  0  0  0  0  0  0
    6.1510   -0.2410   25.7799 H   0  0  0  0  0  0  0  0  0  0  0  0
    8.2390   -0.8993   24.8397 H   0  0  0  0  0  0  0  0  0  0  0  0
    8.5669   -2.5876   24.5073 H   0  0  0  0  0  0  0  0  0  0  0  0
    9.8930   -3.3908   22.8024 H   0  0  0  0  0  0  0  0  0  0  0  0
   10.3511   -2.7981   21.1859 H   0  0  0  0  0  0  0  0  0  0  0  0
   10.9093   -1.2942   23.8204 H   0  0  0  0  0  0  0  0  0  0  0  0
   11.2987   -0.7148   22.1883 H   0  0  0  0  0  0  0  0  0  0  0  0
   12.0520   -2.2057   22.7982 H   0  0  0  0  0  0  0  0  0  0  0  0
  1  2  1  0
  2  3  1  0
  3  4  1  0
  4  5  2  0
  5  6  1  0
  6  7  2  0
  7  8  1  0
  8  9  2  0
  9 10  1  0
 10 11  2  0
 11 12  1  0
  9 13  1  0
  8 14  1  0
  7 15  1  0
  5 16  1  0
 16 17  2  0
 17 18  1  0
 18 19  1  0
 19 20  2  0
 20 21  1  0
 21 22  2  0
 22 23  1  0
 23 24  2  0
 24 25  1  0
 25 26  2  0
 26 27  1  0
 27 28  2  0
 27 29  1  0
 26 30  1  0
 25 31  1  0
 24 32  1  0
 22 33  1  0
 20 34  1  0
 18 35  1  0
 18 36  1  0
  2 37  1  0
  2 38  1  0
  1 39  1  0
  1 40  1  0
  1 41  1  0
 17  3  1  0
 28 19  1  0
 11  6  1  0
 28 23  1  0
M  END
>  <cnnaffinity>  (1) 
-5.89642

>  <filename>  (1) 
CCn1nc(-c2cccnc2)nc1Cc1cncc2ccccc12

$$$$
