
     RDKit          3D

 38 41  0  0  0  0  0  0  0  0999 V2000
   11.1494   -1.4053   22.6897 C   0  0  0  0  0  0  0  0  0  0  0  0
   10.0991   -2.4038   22.2170 C   0  0  0  0  0  0  0  0  0  0  0  0
    8.7978   -1.8049   21.9619 N   0  0  0  0  0  0  0  0  0  0  0  0
    8.5118   -1.3435   20.7235 N   0  0  0  0  0  0  0  0  0  0  0  0
    7.3756   -0.7015   20.9144 C   0  0  0  0  0  0  0  0  0  0  0  0
    6.6557    0.0023   19.8714 C   0  0  0  0  0  0  0  0  0  0  0  0
    5.4419    0.6505   20.1434 C   0  0  0  0  0  0  0  0  0  0  0  0
    4.8100    1.3042   19.0938 C   0  0  0  0  0  0  0  0  0  0  0  0
    5.4127    1.2853   17.8296 C   0  0  0  0  0  0  0  0  0  0  0  0
    6.5740    0.6661   17.5646 N   0  0  0  0  0  0  0  0  0  0  0  0
    7.1838    0.0455   18.5764 C   0  0  0  0  0  0  0  0  0  0  0  0
    8.1376   -0.4358   18.3569 H   0  0  0  0  0  0  0  0  0  0  0  0
    4.9498    1.7945   16.9900 H   0  0  0  0  0  0  0  0  0  0  0  0
    3.8763    1.8381   19.2385 H   0  0  0  0  0  0  0  0  0  0  0  0
    5.0194    0.6393   21.1518 H   0  0  0  0  0  0  0  0  0  0  0  0
    6.9202   -0.7154   22.1886 N   0  0  0  0  0  0  0  0  0  0  0  0
    7.8242   -1.4321   22.8211 C   0  0  0  0  0  0  0  0  0  0  0  0
    7.8573   -1.7616   24.2764 C   0  0  0  0  0  0  0  0  0  0  0  0
    8.0274   -0.7679   25.2222 C   0  0  0  0  0  0  0  0  0  0  0  0
    8.0669   -1.0882   26.6069 C   0  0  0  0  0  0  0  0  0  0  0  0
    7.9525   -2.3096   27.0783 N   0  0  0  0  0  0  0  0  0  0  0  0
    7.7797   -3.3213   26.1680 C   0  0  0  0  0  0  0  0  0  0  0  0
    7.6362   -4.6371   26.6843 C   0  0  0  0  0  0  0  0  0  0  0  0
    7.4479   -5.7100   25.8435 C   0  0  0  0  0  0  0  0  0  0  0  0
    7.3931   -5.5073   24.4384 C   0  0  0  0  0  0  0  0  0  0  0  0
    7.5269   -4.2475   23.9024 C   0  0  0  0  0  0  0  0  0  0  0  0
    7.7278   -3.1154   24.7483 C   0  0  0  0  0  0  0  0  0  0  0  0
    7.4775   -4.0885   22.8288 H   0  0  0  0  0  0  0  0  0  0  0  0
    7.2416   -6.3421   23.7665 H   0  0  0  0  0  0  0  0  0  0  0  0
    7.3365   -6.7115   26.2509 H   0  0  0  0  0  0  0  0  0  0  0  0
    7.6799   -4.7204   27.7666 H   0  0  0  0  0  0  0  0  0  0  0  0
    8.1855   -0.2868   27.3370 H   0  0  0  0  0  0  0  0  0  0  0  0
    8.1257    0.2641   24.9133 H   0  0  0  0  0  0  0  0  0  0  0  0
   10.3782   -2.8187   21.2501 H   0  0  0  0  0  0  0  0  0  0  0  0
    9.9592   -3.2087   22.9513 H   0  0  0  0  0  0  0  0  0  0  0  0
   12.1009   -1.9381   22.7401 H   0  0  0  0  0  0  0  0  0  0  0  0
   10.9189   -0.9851   23.6767 H   0  0  0  0  0  0  0  0  0  0  0  0
   11.2532   -0.5863   21.9704 H   0  0  0  0  0  0  0  0  0  0  0  0
  1  2  1  0
  2  3  1  0
  3  4  1  0
  4  5  2  0
  5  6  1  0
  6  7  2  0
  7  8  1  0
  8  9  2  0
  9 10  1  0
 10 11  2  0
 11 12  1  0
  9 13  1  0
  8 14  1  0
  7 15  1  0
  5 16  1  0
 16 17  2  0
 17 18  1  0
 18 19  2  0
 19 20  1  0
 20 21  2  0
 21 22  1  0
 22 23  2  0
 23 24  1  0
 24 25  2  0
 25 26  1  0
 26 27  2  0
 26 28  1  0
 25 29  1  0
 24 30  1  0
 23 31  1  0
 20 32  1  0
 19 33  1  0
  2 34  1  0
  2 35  1  0
  1 36  1  0
  1 37  1  0
  1 38  1  0
 17  3  1  0
 27 18  1  0
 11  6  1  0
 27 22  1  0
M  END
>  <cnnaffinity>  (1) 
-5.83149

>  <filename>  (1) 
CCn1nc(-c2cccnc2)nc1-c1ccnc2ccccc12

$$$$
