
     RDKit          3D

 41 43  0  0  0  0  0  0  0  0999 V2000
    8.5660    0.0054   25.2063 C   0  0  0  0  0  0  0  0  0  0  0  0
    9.3436    1.0776   24.4387 C   0  0  0  0  0  0  0  0  0  0  0  0
    8.4682    1.7949   23.4998 N   0  0  0  0  0  0  0  0  0  0  0  0
    7.9176    2.9837   23.8093 N   0  0  0  0  0  0  0  0  0  0  0  0
    7.2306    3.2790   22.7411 C   0  0  0  0  0  0  0  0  0  0  0  0
    6.4568    4.4951   22.6822 C   0  0  0  0  0  0  0  0  0  0  0  0
    6.4025    5.4228   23.7349 C   0  0  0  0  0  0  0  0  0  0  0  0
    5.6179    6.5642   23.5651 C   0  0  0  0  0  0  0  0  0  0  0  0
    5.4810    7.8674   24.9570 Br  0  0  0  0  0  0  0  0  0  0  0  0
    4.9214    6.7317   22.3654 C   0  0  0  0  0  0  0  0  0  0  0  0
    4.9688    5.8194   21.3860 N   0  0  0  0  0  0  0  0  0  0  0  0
    5.7295    4.7214   21.5283 C   0  0  0  0  0  0  0  0  0  0  0  0
    5.7863    3.9756   20.7338 H   0  0  0  0  0  0  0  0  0  0  0  0
    4.3143    7.6208   22.2078 H   0  0  0  0  0  0  0  0  0  0  0  0
    6.9459    5.2650   24.6672 H   0  0  0  0  0  0  0  0  0  0  0  0
    7.3064    2.3409   21.7168 N   0  0  0  0  0  0  0  0  0  0  0  0
    8.0929    1.4195   22.2145 C   0  0  0  0  0  0  0  0  0  0  0  0
    8.5889    0.1747   21.5091 C   0  0  0  0  0  0  0  0  0  0  0  0
    7.4808   -0.7353   20.9568 C   0  0  0  0  0  0  0  0  0  0  0  0
    6.6066   -1.2740   22.0853 C   0  0  0  0  0  0  0  0  0  0  0  0
    7.1777   -1.9560   22.7243 H   0  0  0  0  0  0  0  0  0  0  0  0
    6.2392   -0.4457   22.6958 H   0  0  0  0  0  0  0  0  0  0  0  0
    5.7553   -1.8239   21.6694 H   0  0  0  0  0  0  0  0  0  0  0  0
    6.6861    0.0062   19.8996 C   0  0  0  0  0  0  0  0  0  0  0  0
    5.4755    0.6536   20.1652 C   0  0  0  0  0  0  0  0  0  0  0  0
    4.8317    1.2980   19.1084 C   0  0  0  0  0  0  0  0  0  0  0  0
    5.4003    1.2962   17.8324 C   0  0  0  0  0  0  0  0  0  0  0  0
    6.5640    0.6792   17.5690 N   0  0  0  0  0  0  0  0  0  0  0  0
    7.1874    0.0596   18.5881 C   0  0  0  0  0  0  0  0  0  0  0  0
    8.1359   -0.4292   18.3915 H   0  0  0  0  0  0  0  0  0  0  0  0
    4.8901    1.8192   17.0300 H   0  0  0  0  0  0  0  0  0  0  0  0
    3.8934    1.8164   19.2534 H   0  0  0  0  0  0  0  0  0  0  0  0
    5.0461    0.6536   21.1645 H   0  0  0  0  0  0  0  0  0  0  0  0
    7.9495   -1.5996   20.4711 H   0  0  0  0  0  0  0  0  0  0  0  0
    9.2227    0.4796   20.6726 H   0  0  0  0  0  0  0  0  0  0  0  0
    9.2129   -0.3935   22.2065 H   0  0  0  0  0  0  0  0  0  0  0  0
    9.7752    1.7975   25.1487 H   0  0  0  0  0  0  0  0  0  0  0  0
   10.1666    0.6230   23.8810 H   0  0  0  0  0  0  0  0  0  0  0  0
    9.2221   -0.4759   25.9406 H   0  0  0  0  0  0  0  0  0  0  0  0
    7.7181    0.4577   25.7389 H   0  0  0  0  0  0  0  0  0  0  0  0
    8.1899   -0.7602   24.5185 H   0  0  0  0  0  0  0  0  0  0  0  0
  1  2  1  0
  2  3  1  0
  3  4  1  0
  4  5  2  0
  5  6  1  0
  6  7  2  0
  7  8  1  0
  8  9  1  0
  8 10  2  0
 10 11  1  0
 11 12  2  0
 12 13  1  0
 10 14  1  0
  7 15  1  0
  5 16  1  0
 16 17  2  0
 17 18  1  0
 18 19  1  0
 19 20  1  0
 20 21  1  0
 20 22  1  0
 20 23  1  0
 19 24  1  0
 24 25  2  0
 25 26  1  0
 26 27  2  0
 27 28  1  0
 28 29  2  0
 29 30  1  0
 27 31  1  0
 26 32  1  0
 25 33  1  0
 19 34  1  0
 18 35  1  0
 18 36  1  0
  2 37  1  0
  2 38  1  0
  1 39  1  0
  1 40  1  0
  1 41  1  0
 17  3  1  0
 29 24  1  0
 12  6  1  0
M  END
>  <cnnaffinity>  (1) 
-5.59246

>  <filename>  (1) 
CCn1nc(-c2cncc(Br)c2)nc1CC(C)c1cccnc1

$$$$
