
     RDKit          3D

 38 41  0  0  0  0  0  0  0  0999 V2000
   11.1201   -1.3123   22.4081 C   0  0  0  0  0  0  0  0  0  0  0  0
   10.0988   -2.2469   21.7672 C   0  0  0  0  0  0  0  0  0  0  0  0
    8.7919   -1.6471   21.5156 N   0  0  0  0  0  0  0  0  0  0  0  0
    8.5163   -1.1540   20.2824 N   0  0  0  0  0  0  0  0  0  0  0  0
    7.3068   -0.6483   20.4318 C   0  0  0  0  0  0  0  0  0  0  0  0
    6.5776    0.0832   19.3981 C   0  0  0  0  0  0  0  0  0  0  0  0
    5.3824    0.7585   19.6930 C   0  0  0  0  0  0  0  0  0  0  0  0
    4.7613    1.4670   18.6711 C   0  0  0  0  0  0  0  0  0  0  0  0
    5.3567    1.4822   17.4051 C   0  0  0  0  0  0  0  0  0  0  0  0
    6.4969    0.8382   17.1129 N   0  0  0  0  0  0  0  0  0  0  0  0
    7.0927    0.1609   18.0986 C   0  0  0  0  0  0  0  0  0  0  0  0
    8.0296   -0.3312   17.8394 H   0  0  0  0  0  0  0  0  0  0  0  0
    4.8962    2.0372   16.5932 H   0  0  0  0  0  0  0  0  0  0  0  0
    3.8418    2.0123   18.8508 H   0  0  0  0  0  0  0  0  0  0  0  0
    4.9741    0.7341   20.7059 H   0  0  0  0  0  0  0  0  0  0  0  0
    6.7940   -0.7840   21.6756 N   0  0  0  0  0  0  0  0  0  0  0  0
    7.7433   -1.4114   22.3380 C   0  0  0  0  0  0  0  0  0  0  0  0
    7.7122   -1.6564   23.7895 C   0  0  0  0  0  0  0  0  0  0  0  0
    7.5804   -0.5934   24.6096 C   0  0  0  0  0  0  0  0  0  0  0  0
    7.7722   -0.6850   25.9379 O   0  0  0  0  0  0  0  0  0  0  0  0
    8.1285   -1.8880   26.5508 C   0  0  0  0  0  0  0  0  0  0  0  0
    8.5485   -1.8190   27.6694 O   0  0  0  0  0  0  0  0  0  0  0  0
    7.8876   -3.1121   25.7550 C   0  0  0  0  0  0  0  0  0  0  0  0
    7.7912   -4.3635   26.3828 C   0  0  0  0  0  0  0  0  0  0  0  0
    7.5264   -5.4932   25.6254 C   0  0  0  0  0  0  0  0  0  0  0  0
    7.3837   -5.3970   24.2251 C   0  0  0  0  0  0  0  0  0  0  0  0
    7.4950   -4.1686   23.5907 C   0  0  0  0  0  0  0  0  0  0  0  0
    7.7310   -3.0015   24.3561 C   0  0  0  0  0  0  0  0  0  0  0  0
    7.3666   -4.0908   22.5108 H   0  0  0  0  0  0  0  0  0  0  0  0
    7.1825   -6.2898   23.6393 H   0  0  0  0  0  0  0  0  0  0  0  0
    7.4311   -6.4521   26.1256 H   0  0  0  0  0  0  0  0  0  0  0  0
    7.9106   -4.4305   27.4637 H   0  0  0  0  0  0  0  0  0  0  0  0
    7.2981    0.4199   24.3152 H   0  0  0  0  0  0  0  0  0  0  0  0
    9.9469   -3.1354   22.3861 H   0  0  0  0  0  0  0  0  0  0  0  0
   10.4399   -2.5645   20.7857 H   0  0  0  0  0  0  0  0  0  0  0  0
   12.1203   -1.7514   22.3342 H   0  0  0  0  0  0  0  0  0  0  0  0
   11.1305   -0.3520   21.8897 H   0  0  0  0  0  0  0  0  0  0  0  0
   10.9011   -1.1333   23.4635 H   0  0  0  0  0  0  0  0  0  0  0  0
  1  2  1  0
  2  3  1  0
  3  4  1  0
  4  5  2  0
  5  6  1  0
  6  7  2  0
  7  8  1  0
  8  9  2  0
  9 10  1  0
 10 11  2  0
 11 12  1  0
  9 13  1  0
  8 14  1  0
  7 15  1  0
  5 16  1  0
 16 17  2  0
 17 18  1  0
 18 19  2  0
 19 20  1  0
 20 21  1  0
 21 22  2  0
 21 23  1  0
 23 24  2  0
 24 25  1  0
 25 26  2  0
 26 27  1  0
 27 28  2  0
 27 29  1  0
 26 30  1  0
 25 31  1  0
 24 32  1  0
 19 33  1  0
  2 34  1  0
  2 35  1  0
  1 36  1  0
  1 37  1  0
  1 38  1  0
 17  3  1  0
 28 18  1  0
 11  6  1  0
 28 23  1  0
M  END
>  <cnnaffinity>  (1) 
-5.74817

>  <filename>  (1) 
CCn1nc(-c2cccnc2)nc1-c1coc(=O)c2ccccc12

$$$$
