
     RDKit          3D

 38 41  0  0  0  0  0  0  0  0999 V2000
   11.0818   -1.3793   22.6105 C   0  0  0  0  0  0  0  0  0  0  0  0
   10.0768   -2.3593   22.0187 C   0  0  0  0  0  0  0  0  0  0  0  0
    8.7551   -1.7897   21.7947 N   0  0  0  0  0  0  0  0  0  0  0  0
    8.4511   -1.3021   20.5691 N   0  0  0  0  0  0  0  0  0  0  0  0
    7.2860   -0.7176   20.7644 C   0  0  0  0  0  0  0  0  0  0  0  0
    6.5598    0.0047   19.7227 C   0  0  0  0  0  0  0  0  0  0  0  0
    5.3563    0.6914   19.9673 C   0  0  0  0  0  0  0  0  0  0  0  0
    4.7722    1.3787   18.9056 C   0  0  0  0  0  0  0  0  0  0  0  0
    5.4111    1.3658   17.6605 C   0  0  0  0  0  0  0  0  0  0  0  0
    6.5595    0.7143   17.4216 N   0  0  0  0  0  0  0  0  0  0  0  0
    7.1155    0.0525   18.4379 C   0  0  0  0  0  0  0  0  0  0  0  0
    8.0534   -0.4586   18.2167 H   0  0  0  0  0  0  0  0  0  0  0  0
    4.9810    1.8937   16.8133 H   0  0  0  0  0  0  0  0  0  0  0  0
    3.8494    1.9388   19.0258 H   0  0  0  0  0  0  0  0  0  0  0  0
    4.9054    0.7033   20.9631 H   0  0  0  0  0  0  0  0  0  0  0  0
    6.8341   -0.7776   22.0372 N   0  0  0  0  0  0  0  0  0  0  0  0
    7.7891   -1.4377   22.6726 C   0  0  0  0  0  0  0  0  0  0  0  0
    7.8433   -1.7820   24.1102 C   0  0  0  0  0  0  0  0  0  0  0  0
    7.7987   -3.1063   24.5321 C   0  0  0  0  0  0  0  0  0  0  0  0
    7.9150   -3.4264   25.9117 C   0  0  0  0  0  0  0  0  0  0  0  0
    7.9980   -2.4261   26.8545 C   0  0  0  0  0  0  0  0  0  0  0  0
    7.9478   -1.0576   26.4645 C   0  0  0  0  0  0  0  0  0  0  0  0
    7.9052    0.0301   27.3967 C   0  0  0  0  0  0  0  0  0  0  0  0
    7.9615    1.2998   27.0672 N   0  0  0  0  0  0  0  0  0  0  0  0
    8.0694    1.6049   25.7473 C   0  0  0  0  0  0  0  0  0  0  0  0
    8.0586    0.6632   24.7480 C   0  0  0  0  0  0  0  0  0  0  0  0
    7.9441   -0.7220   25.0778 C   0  0  0  0  0  0  0  0  0  0  0  0
    8.0961    0.9559   23.7055 H   0  0  0  0  0  0  0  0  0  0  0  0
    8.1542    2.6676   25.5356 H   0  0  0  0  0  0  0  0  0  0  0  0
    7.8114   -0.1746   28.4607 H   0  0  0  0  0  0  0  0  0  0  0  0
    8.1324   -2.6660   27.9008 H   0  0  0  0  0  0  0  0  0  0  0  0
    7.9328   -4.4661   26.2279 H   0  0  0  0  0  0  0  0  0  0  0  0
    7.6470   -3.8997   23.8000 H   0  0  0  0  0  0  0  0  0  0  0  0
   10.3921   -2.6749   21.0279 H   0  0  0  0  0  0  0  0  0  0  0  0
    9.9730   -3.2354   22.6668 H   0  0  0  0  0  0  0  0  0  0  0  0
   11.0383   -0.4147   22.0980 H   0  0  0  0  0  0  0  0  0  0  0  0
   10.8916   -1.2150   23.6738 H   0  0  0  0  0  0  0  0  0  0  0  0
   12.0896   -1.7884   22.4942 H   0  0  0  0  0  0  0  0  0  0  0  0
  1  2  1  0
  2  3  1  0
  3  4  1  0
  4  5  2  0
  5  6  1  0
  6  7  2  0
  7  8  1  0
  8  9  2  0
  9 10  1  0
 10 11  2  0
 11 12  1  0
  9 13  1  0
  8 14  1  0
  7 15  1  0
  5 16  1  0
 16 17  2  0
 17 18  1  0
 18 19  2  0
 19 20  1  0
 20 21  2  0
 21 22  1  0
 22 23  2  0
 23 24  1  0
 24 25  2  0
 25 26  1  0
 26 27  2  0
 26 28  1  0
 25 29  1  0
 23 30  1  0
 21 31  1  0
 20 32  1  0
 19 33  1  0
  2 34  1  0
  2 35  1  0
  1 36  1  0
  1 37  1  0
  1 38  1  0
 17  3  1  0
 27 18  1  0
 11  6  1  0
 27 22  1  0
M  END
>  <cnnaffinity>  (1) 
-5.93599

>  <filename>  (1) 
CCn1nc(-c2cccnc2)nc1-c1cccc2cnccc12

$$$$
