
     RDKit          3D

 38 41  0  0  0  0  0  0  0  0999 V2000
    8.1100    4.0294   23.8093 C   0  0  0  0  0  0  0  0  0  0  0  0
    8.9406    2.7889   24.1156 C   0  0  0  0  0  0  0  0  0  0  0  0
    8.8737    1.8384   22.9900 N   0  0  0  0  0  0  0  0  0  0  0  0
    7.7944    1.0833   22.6738 N   0  0  0  0  0  0  0  0  0  0  0  0
    8.2387    0.3216   21.7014 C   0  0  0  0  0  0  0  0  0  0  0  0
    7.3839   -0.6823   20.9603 C   0  0  0  0  0  0  0  0  0  0  0  0
    6.6368   -0.0234   19.8222 C   0  0  0  0  0  0  0  0  0  0  0  0
    5.4380    0.6309   20.0831 C   0  0  0  0  0  0  0  0  0  0  0  0
    4.8212    1.3004   19.0308 C   0  0  0  0  0  0  0  0  0  0  0  0
    5.4012    1.2881   17.7567 C   0  0  0  0  0  0  0  0  0  0  0  0
    6.5452    0.6332   17.4916 N   0  0  0  0  0  0  0  0  0  0  0  0
    7.1469   -0.0071   18.5094 C   0  0  0  0  0  0  0  0  0  0  0  0
    8.0800   -0.5243   18.3131 H   0  0  0  0  0  0  0  0  0  0  0  0
    4.9095    1.8213   16.9502 H   0  0  0  0  0  0  0  0  0  0  0  0
    3.9013    1.8457   19.1961 H   0  0  0  0  0  0  0  0  0  0  0  0
    5.0132    0.6295   21.0859 H   0  0  0  0  0  0  0  0  0  0  0  0
    8.0200   -1.4790   20.5657 H   0  0  0  0  0  0  0  0  0  0  0  0
    6.6636   -1.1298   21.6543 H   0  0  0  0  0  0  0  0  0  0  0  0
    9.5781    0.5153   21.3815 N   0  0  0  0  0  0  0  0  0  0  0  0
    9.9404    1.4815   22.1793 C   0  0  0  0  0  0  0  0  0  0  0  0
   11.2862    2.0598   22.2742 C   0  0  0  0  0  0  0  0  0  0  0  0
   12.3944    1.2246   22.4100 C   0  0  0  0  0  0  0  0  0  0  0  0
   12.5803   -0.1320   22.3644 N   0  0  0  0  0  0  0  0  0  0  0  0
   13.8755   -0.4658   22.5979 N   0  0  0  0  0  0  0  0  0  0  0  0
   14.5307    0.6355   22.7568 N   0  0  0  0  0  0  0  0  0  0  0  0
   13.6589    1.7106   22.6348 C   0  0  0  0  0  0  0  0  0  0  0  0
   13.8740    3.0949   22.6222 C   0  0  0  0  0  0  0  0  0  0  0  0
   12.7971    3.9697   22.4582 C   0  0  0  0  0  0  0  0  0  0  0  0
   13.1200    5.8488   22.4737 Br  0  0  0  0  0  0  0  0  0  0  0  0
   11.5027    3.4513   22.2982 C   0  0  0  0  0  0  0  0  0  0  0  0
   10.6830    4.1537   22.2103 H   0  0  0  0  0  0  0  0  0  0  0  0
   14.8742    3.5007   22.6932 H   0  0  0  0  0  0  0  0  0  0  0  0
   11.8687   -0.7887   22.0626 H   0  0  0  0  0  0  0  0  0  0  0  0
    8.5790    2.3199   25.0382 H   0  0  0  0  0  0  0  0  0  0  0  0
    9.9802    3.0855   24.2880 H   0  0  0  0  0  0  0  0  0  0  0  0
    8.1865    4.7510   24.6282 H   0  0  0  0  0  0  0  0  0  0  0  0
    7.0566    3.7616   23.6760 H   0  0  0  0  0  0  0  0  0  0  0  0
    8.4714    4.5001   22.8915 H   0  0  0  0  0  0  0  0  0  0  0  0
  1  2  1  0
  2  3  1  0
  3  4  1  0
  4  5  2  0
  5  6  1  0
  6  7  1  0
  7  8  2  0
  8  9  1  0
  9 10  2  0
 10 11  1  0
 11 12  2  0
 12 13  1  0
 10 14  1  0
  9 15  1  0
  8 16  1  0
  6 17  1  0
  6 18  1  0
  5 19  1  0
 19 20  2  0
 20 21  1  0
 21 22  2  0
 22 23  1  0
 23 24  1  0
 24 25  2  0
 25 26  1  0
 26 27  2  0
 27 28  1  0
 28 29  1  0
 28 30  2  0
 30 31  1  0
 27 32  1  0
 23 33  1  0
  2 34  1  0
  2 35  1  0
  1 36  1  0
  1 37  1  0
  1 38  1  0
 20  3  1  0
 30 21  1  0
 12  7  1  0
 26 22  1  0
M  END
>  <cnnaffinity>  (1) 
-6.5825

>  <filename>  (1) 
CCn1nc(Cc2cccnc2)nc1-c1cc(Br)cc2nn[nH]c12

$$$$
