
     RDKit          3D

 39 42  0  0  0  0  0  0  0  0999 V2000
    9.5833    1.9351   25.5491 C   0  0  0  0  0  0  0  0  0  0  0  0
    8.8462    2.5523   24.3624 C   0  0  0  0  0  0  0  0  0  0  0  0
    8.9117    1.7382   23.1477 N   0  0  0  0  0  0  0  0  0  0  0  0
    7.8279    1.0738   22.6810 N   0  0  0  0  0  0  0  0  0  0  0  0
    8.3331    0.3062   21.7315 C   0  0  0  0  0  0  0  0  0  0  0  0
    7.5035   -0.6327   20.8962 C   0  0  0  0  0  0  0  0  0  0  0  0
    6.7238    0.0183   19.7553 C   0  0  0  0  0  0  0  0  0  0  0  0
    5.5227    0.6910   20.0218 C   0  0  0  0  0  0  0  0  0  0  0  0
    4.8525    1.3195   18.9688 C   0  0  0  0  0  0  0  0  0  0  0  0
    5.4160    1.2711   17.6909 C   0  0  0  0  0  0  0  0  0  0  0  0
    6.5607    0.6286   17.4084 N   0  0  0  0  0  0  0  0  0  0  0  0
    7.1890    0.0290   18.4269 C   0  0  0  0  0  0  0  0  0  0  0  0
    8.1295   -0.4657   18.1817 H   0  0  0  0  0  0  0  0  0  0  0  0
    4.9327    1.7702   16.8539 H   0  0  0  0  0  0  0  0  0  0  0  0
    3.9253    1.8607   19.1285 H   0  0  0  0  0  0  0  0  0  0  0  0
    5.1400    0.7340   21.0429 H   0  0  0  0  0  0  0  0  0  0  0  0
    8.1895   -1.3940   20.5131 H   0  0  0  0  0  0  0  0  0  0  0  0
    6.8085   -1.1510   21.5671 H   0  0  0  0  0  0  0  0  0  0  0  0
    9.6795    0.4108   21.5828 N   0  0  0  0  0  0  0  0  0  0  0  0
   10.0132    1.3535   22.4576 C   0  0  0  0  0  0  0  0  0  0  0  0
   11.3635    1.9112   22.6619 C   0  0  0  0  0  0  0  0  0  0  0  0
   12.4931    1.1261   22.8084 C   0  0  0  0  0  0  0  0  0  0  0  0
   13.7944    1.7201   22.8574 C   0  0  0  0  0  0  0  0  0  0  0  0
   13.9428    3.0733   22.7100 C   0  0  0  0  0  0  0  0  0  0  0  0
   12.8233    3.8757   22.6414 N   0  0  0  0  0  0  0  0  0  0  0  0
   12.6994    5.2496   22.5530 C   0  0  0  0  0  0  0  0  0  0  0  0
   11.3477    5.4836   22.5086 C   0  0  0  0  0  0  0  0  0  0  0  0
   10.6395    4.3185   22.6013 N   0  0  0  0  0  0  0  0  0  0  0  0
   11.5339    3.3478   22.6568 C   0  0  0  0  0  0  0  0  0  0  0  0
   10.8203    6.4230   22.4038 H   0  0  0  0  0  0  0  0  0  0  0  0
   13.5689    5.8873   22.5530 H   0  0  0  0  0  0  0  0  0  0  0  0
   14.8873    3.5857   22.5666 H   0  0  0  0  0  0  0  0  0  0  0  0
   14.6771    1.0995   22.9609 H   0  0  0  0  0  0  0  0  0  0  0  0
   12.3941    0.0433   22.8722 H   0  0  0  0  0  0  0  0  0  0  0  0
    9.2801    3.5213   24.1221 H   0  0  0  0  0  0  0  0  0  0  0  0
    7.7883    2.7087   24.5712 H   0  0  0  0  0  0  0  0  0  0  0  0
    9.4090    2.5573   26.4324 H   0  0  0  0  0  0  0  0  0  0  0  0
    9.2362    0.9188   25.7577 H   0  0  0  0  0  0  0  0  0  0  0  0
   10.6597    1.8915   25.3521 H   0  0  0  0  0  0  0  0  0  0  0  0
  1  2  1  0
  2  3  1  0
  3  4  1  0
  4  5  2  0
  5  6  1  0
  6  7  1  0
  7  8  2  0
  8  9  1  0
  9 10  2  0
 10 11  1  0
 11 12  2  0
 12 13  1  0
 10 14  1  0
  9 15  1  0
  8 16  1  0
  6 17  1  0
  6 18  1  0
  5 19  1  0
 19 20  2  0
 20 21  1  0
 21 22  2  0
 22 23  1  0
 23 24  2  0
 24 25  1  0
 25 26  1  0
 26 27  2  0
 27 28  1  0
 28 29  2  0
 27 30  1  0
 26 31  1  0
 24 32  1  0
 23 33  1  0
 22 34  1  0
  2 35  1  0
  2 36  1  0
  1 37  1  0
  1 38  1  0
  1 39  1  0
 20  3  1  0
 29 21  1  0
 12  7  1  0
 29 25  1  0
M  END
>  <cnnaffinity>  (1) 
-5.61307

>  <filename>  (1) 
CCn1nc(Cc2cccnc2)nc1-c1cccn2ccnc12

$$$$
