
     RDKit          3D

 50 53  0  0  0  0  0  0  0  0999 V2000
    8.5948    6.1030   23.2156 C   0  0  0  0  0  0  0  0  0  0  0  0
    7.8663    4.7769   22.9884 C   0  0  0  0  0  0  0  0  0  0  0  0
    8.0029    3.8395   24.0989 N   0  0  0  0  0  0  0  0  0  0  0  0
    7.2251    3.9394   25.2159 C   0  0  0  0  0  0  0  0  0  0  0  0
    6.3584    4.7724   25.4058 O   0  0  0  0  0  0  0  0  0  0  0  0
    7.6218    2.8219   26.1632 C   0  0  0  0  0  0  0  0  0  0  0  0
    8.8445    2.1317   25.5391 C   0  0  0  0  0  0  0  0  0  0  0  0
    9.0098    2.7823   24.1292 C   0  0  0  0  0  0  0  0  0  0  0  0
    8.9179    1.7977   22.9752 C   0  0  0  0  0  0  0  0  0  0  0  0
    7.8641    1.0786   22.6242 N   0  0  0  0  0  0  0  0  0  0  0  0
    8.3449    0.2830   21.6331 C   0  0  0  0  0  0  0  0  0  0  0  0
    7.4814   -0.6922   20.8823 C   0  0  0  0  0  0  0  0  0  0  0  0
    6.6859   -0.0567   19.7462 C   0  0  0  0  0  0  0  0  0  0  0  0
    5.4912    0.6180   20.0303 C   0  0  0  0  0  0  0  0  0  0  0  0
    4.8365    1.3080   19.0066 C   0  0  0  0  0  0  0  0  0  0  0  0
    5.4040    1.2982   17.7286 C   0  0  0  0  0  0  0  0  0  0  0  0
    6.5236    0.6244   17.4229 N   0  0  0  0  0  0  0  0  0  0  0  0
    7.1335   -0.0377   18.4138 C   0  0  0  0  0  0  0  0  0  0  0  0
    8.0334   -0.5878   18.1327 H   0  0  0  0  0  0  0  0  0  0  0  0
    4.9411    1.8477   16.9093 H   0  0  0  0  0  0  0  0  0  0  0  0
    3.9186    1.8596   19.1831 H   0  0  0  0  0  0  0  0  0  0  0  0
    5.0990    0.6029   21.0502 H   0  0  0  0  0  0  0  0  0  0  0  0
    6.7903   -1.1271   21.6113 H   0  0  0  0  0  0  0  0  0  0  0  0
    8.1243   -1.4998   20.5193 H   0  0  0  0  0  0  0  0  0  0  0  0
    9.6286    0.4395   21.3686 N   0  0  0  0  0  0  0  0  0  0  0  0
    9.9921    1.4352   22.2186 N   0  0  0  0  0  0  0  0  0  0  0  0
   11.3242    1.9550   22.3224 C   0  0  0  0  0  0  0  0  0  0  0  0
   11.5294    3.3345   22.1893 C   0  0  0  0  0  0  0  0  0  0  0  0
   12.8061    3.8941   22.3184 C   0  0  0  0  0  0  0  0  0  0  0  0
   13.0631    5.3602   22.0830 C   0  0  0  0  0  0  0  0  0  0  0  0
   12.1549    5.8688   21.7462 H   0  0  0  0  0  0  0  0  0  0  0  0
   13.4229    5.8452   22.9982 H   0  0  0  0  0  0  0  0  0  0  0  0
   13.8286    5.5219   21.3152 H   0  0  0  0  0  0  0  0  0  0  0  0
   13.8542    3.0482   22.6864 C   0  0  0  0  0  0  0  0  0  0  0  0
   13.6535    1.6760   22.8631 C   0  0  0  0  0  0  0  0  0  0  0  0
   12.3959    1.1133   22.6404 C   0  0  0  0  0  0  0  0  0  0  0  0
   12.2309    0.0404   22.7166 H   0  0  0  0  0  0  0  0  0  0  0  0
   14.4716    1.0387   23.1911 H   0  0  0  0  0  0  0  0  0  0  0  0
   14.8348    3.5028   22.7661 H   0  0  0  0  0  0  0  0  0  0  0  0
   10.6687    3.9721   22.0273 H   0  0  0  0  0  0  0  0  0  0  0  0
    9.9971    3.2511   24.0778 H   0  0  0  0  0  0  0  0  0  0  0  0
    9.7513    2.3129   26.1254 H   0  0  0  0  0  0  0  0  0  0  0  0
    8.7256    1.0433   25.4624 H   0  0  0  0  0  0  0  0  0  0  0  0
    6.7587    2.1637   26.2831 H   0  0  0  0  0  0  0  0  0  0  0  0
    7.8116    3.2633   27.1424 H   0  0  0  0  0  0  0  0  0  0  0  0
    8.2245    4.2627   22.0866 H   0  0  0  0  0  0  0  0  0  0  0  0
    6.7958    4.9587   22.8406 H   0  0  0  0  0  0  0  0  0  0  0  0
    8.1999    6.6132   24.1011 H   0  0  0  0  0  0  0  0  0  0  0  0
    8.4504    6.7634   22.3520 H   0  0  0  0  0  0  0  0  0  0  0  0
    9.6732    5.9487   23.3507 H   0  0  0  0  0  0  0  0  0  0  0  0
  1  2  1  0
  2  3  1  0
  3  4  1  0
  4  5  2  0
  4  6  1  0
  6  7  1  0
  7  8  1  0
  8  9  1  0
  9 10  2  0
 10 11  1  0
 11 12  1  0
 12 13  1  0
 13 14  2  0
 14 15  1  0
 15 16  2  0
 16 17  1  0
 17 18  2  0
 18 19  1  0
 16 20  1  0
 15 21  1  0
 14 22  1  0
 12 23  1  0
 12 24  1  0
 11 25  2  0
 25 26  1  0
 26 27  1  0
 27 28  2  0
 28 29  1  0
 29 30  1  0
 30 31  1  0
 30 32  1  0
 30 33  1  0
 29 34  2  0
 34 35  1  0
 35 36  2  0
 36 37  1  0
 35 38  1  0
 34 39  1  0
 28 40  1  0
  8 41  1  0
  7 42  1  0
  7 43  1  0
  6 44  1  0
  6 45  1  0
  2 46  1  0
  2 47  1  0
  1 48  1  0
  1 49  1  0
  1 50  1  0
  8  3  1  0
 26  9  1  0
 36 27  1  0
 18 13  1  0
M  END
>  <cnnaffinity>  (1) 
-6.30259

>  <filename>  (1) 
CCN1C(=O)CCC1c1nc(Cc2cccnc2)nn1-c1cccc(C)c1

$$$$
