
     RDKit          3D

 36 39  0  0  0  0  0  0  0  0999 V2000
   11.2884   -1.8205   22.0771 C   0  0  0  0  0  0  0  0  0  0  0  0
    9.8744   -2.3460   22.2786 C   0  0  0  0  0  0  0  0  0  0  0  0
    8.8377   -1.3331   22.0352 N   0  0  0  0  0  0  0  0  0  0  0  0
    8.5691   -0.8646   20.7963 N   0  0  0  0  0  0  0  0  0  0  0  0
    7.3162   -0.4960   20.9019 C   0  0  0  0  0  0  0  0  0  0  0  0
    6.5823    0.1103   19.8323 C   0  0  0  0  0  0  0  0  0  0  0  0
    5.3485    0.7266   20.0426 C   0  0  0  0  0  0  0  0  0  0  0  0
    4.7618    1.3573   18.9538 C   0  0  0  0  0  0  0  0  0  0  0  0
    5.3990    1.3233   17.7060 C   0  0  0  0  0  0  0  0  0  0  0  0
    6.5586    0.6716   17.5050 N   0  0  0  0  0  0  0  0  0  0  0  0
    7.1376    0.0830   18.5604 C   0  0  0  0  0  0  0  0  0  0  0  0
    8.0733   -0.4458   18.4133 H   0  0  0  0  0  0  0  0  0  0  0  0
    4.9467    1.8416   16.8674 H   0  0  0  0  0  0  0  0  0  0  0  0
    3.8230    1.8851   19.0737 H   0  0  0  0  0  0  0  0  0  0  0  0
    4.8719    0.7248   21.0249 H   0  0  0  0  0  0  0  0  0  0  0  0
    6.7280   -0.7131   22.1265 N   0  0  0  0  0  0  0  0  0  0  0  0
    7.7003   -1.2081   22.8234 C   0  0  0  0  0  0  0  0  0  0  0  0
    7.5839   -1.6567   24.1982 C   0  0  0  0  0  0  0  0  0  0  0  0
    8.5718   -1.2523   25.0830 C   0  0  0  0  0  0  0  0  0  0  0  0
    9.5830   -0.3393   24.8234 N   0  0  0  0  0  0  0  0  0  0  0  0
   10.2225   -0.2165   25.9632 C   0  0  0  0  0  0  0  0  0  0  0  0
    9.6724   -1.0423   26.9388 N   0  0  0  0  0  0  0  0  0  0  0  0
    8.6011   -1.7090   26.3876 C   0  0  0  0  0  0  0  0  0  0  0  0
    7.6390   -2.6256   26.8272 C   0  0  0  0  0  0  0  0  0  0  0  0
    6.5747   -2.9738   25.9766 C   0  0  0  0  0  0  0  0  0  0  0  0
    5.1724   -4.1178   26.5866 Br  0  0  0  0  0  0  0  0  0  0  0  0
    6.5364   -2.4723   24.6658 C   0  0  0  0  0  0  0  0  0  0  0  0
    5.7026   -2.7235   24.0131 H   0  0  0  0  0  0  0  0  0  0  0  0
    7.7157   -3.0549   27.8158 H   0  0  0  0  0  0  0  0  0  0  0  0
    9.9040   -1.0145   27.9304 H   0  0  0  0  0  0  0  0  0  0  0  0
   11.0469    0.4765   26.1057 H   0  0  0  0  0  0  0  0  0  0  0  0
    9.7985   -2.7360   23.2962 H   0  0  0  0  0  0  0  0  0  0  0  0
    9.6848   -3.1691   21.5871 H   0  0  0  0  0  0  0  0  0  0  0  0
   12.0095   -2.6106   22.3069 H   0  0  0  0  0  0  0  0  0  0  0  0
   11.4853   -0.9733   22.7383 H   0  0  0  0  0  0  0  0  0  0  0  0
   11.4282   -1.5008   21.0412 H   0  0  0  0  0  0  0  0  0  0  0  0
  1  2  1  0
  2  3  1  0
  3  4  1  0
  4  5  2  0
  5  6  1  0
  6  7  2  0
  7  8  1  0
  8  9  2  0
  9 10  1  0
 10 11  2  0
 11 12  1  0
  9 13  1  0
  8 14  1  0
  7 15  1  0
  5 16  1  0
 16 17  2  0
 17 18  1  0
 18 19  2  0
 19 20  1  0
 20 21  2  0
 21 22  1  0
 22 23  1  0
 23 24  2  0
 24 25  1  0
 25 26  1  0
 25 27  2  0
 27 28  1  0
 24 29  1  0
 22 30  1  0
 21 31  1  0
  2 32  1  0
  2 33  1  0
  1 34  1  0
  1 35  1  0
  1 36  1  0
 17  3  1  0
 27 18  1  0
 11  6  1  0
 23 19  1  0
M  END
>  <cnnaffinity>  (1) 
-6.01621

>  <filename>  (1) 
CCn1nc(-c2cccnc2)nc1-c1cc(Br)cc2[nH]cnc12

$$$$
