
     RDKit          3D

 41 43  0  0  0  0  0  0  0  0999 V2000
   11.1745   -1.6203   22.6986 C   0  0  0  0  0  0  0  0  0  0  0  0
   10.0417   -2.5065   22.1892 C   0  0  0  0  0  0  0  0  0  0  0  0
    8.7904   -1.8079   21.9802 N   0  0  0  0  0  0  0  0  0  0  0  0
    8.4968   -1.3348   20.7508 N   0  0  0  0  0  0  0  0  0  0  0  0
    7.3622   -0.6957   20.9544 C   0  0  0  0  0  0  0  0  0  0  0  0
    6.6491    0.0028   19.9026 C   0  0  0  0  0  0  0  0  0  0  0  0
    5.4345    0.6525   20.1600 C   0  0  0  0  0  0  0  0  0  0  0  0
    4.8100    1.3024   19.1024 C   0  0  0  0  0  0  0  0  0  0  0  0
    5.4197    1.2785   17.8428 C   0  0  0  0  0  0  0  0  0  0  0  0
    6.5803    0.6558   17.5885 N   0  0  0  0  0  0  0  0  0  0  0  0
    7.1848    0.0382   18.6073 C   0  0  0  0  0  0  0  0  0  0  0  0
    8.1360   -0.4412   18.3786 H   0  0  0  0  0  0  0  0  0  0  0  0
    4.9613    1.7855   16.9984 H   0  0  0  0  0  0  0  0  0  0  0  0
    3.8772    1.8365   19.2400 H   0  0  0  0  0  0  0  0  0  0  0  0
    5.0039    0.6461   21.1640 H   0  0  0  0  0  0  0  0  0  0  0  0
    6.9103   -0.7364   22.2313 N   0  0  0  0  0  0  0  0  0  0  0  0
    7.8320   -1.4449   22.8563 C   0  0  0  0  0  0  0  0  0  0  0  0
    7.7699   -1.8629   24.2922 C   0  0  0  0  0  0  0  0  0  0  0  0
    6.6797   -2.9382   24.5549 C   0  0  0  0  0  0  0  0  0  0  0  0
    6.4970   -3.1835   26.0594 C   0  0  0  0  0  0  0  0  0  0  0  0
    5.7472   -3.9610   26.2392 H   0  0  0  0  0  0  0  0  0  0  0  0
    7.4292   -3.5103   26.5358 H   0  0  0  0  0  0  0  0  0  0  0  0
    6.1709   -2.2694   26.5709 H   0  0  0  0  0  0  0  0  0  0  0  0
    6.9796   -4.2206   23.7825 C   0  0  0  0  0  0  0  0  0  0  0  0
    8.0322   -5.0757   24.1448 C   0  0  0  0  0  0  0  0  0  0  0  0
    8.2820   -6.2161   23.3757 C   0  0  0  0  0  0  0  0  0  0  0  0
    7.5663   -6.5552   22.2934 N   0  0  0  0  0  0  0  0  0  0  0  0
    6.5587   -5.7433   21.9451 C   0  0  0  0  0  0  0  0  0  0  0  0
    6.2357   -4.5748   22.6421 C   0  0  0  0  0  0  0  0  0  0  0  0
    5.4192   -3.9424   22.3006 H   0  0  0  0  0  0  0  0  0  0  0  0
    5.9842   -6.0501   21.0676 H   0  0  0  0  0  0  0  0  0  0  0  0
    9.0940   -6.8955   23.6407 H   0  0  0  0  0  0  0  0  0  0  0  0
    8.6625   -4.8765   25.0087 H   0  0  0  0  0  0  0  0  0  0  0  0
    5.7410   -2.5356   24.1494 H   0  0  0  0  0  0  0  0  0  0  0  0
    8.7449   -2.2439   24.6227 H   0  0  0  0  0  0  0  0  0  0  0  0
    7.5574   -0.9641   24.8803 H   0  0  0  0  0  0  0  0  0  0  0  0
   10.2801   -2.8714   21.1911 H   0  0  0  0  0  0  0  0  0  0  0  0
    9.8537   -3.3650   22.8489 H   0  0  0  0  0  0  0  0  0  0  0  0
   12.0741   -2.2380   22.7487 H   0  0  0  0  0  0  0  0  0  0  0  0
   10.9856   -1.1785   23.6868 H   0  0  0  0  0  0  0  0  0  0  0  0
   11.3583   -0.8027   21.9955 H   0  0  0  0  0  0  0  0  0  0  0  0
  1  2  1  0
  2  3  1  0
  3  4  1  0
  4  5  2  0
  5  6  1  0
  6  7  2  0
  7  8  1  0
  8  9  2  0
  9 10  1  0
 10 11  2  0
 11 12  1  0
  9 13  1  0
  8 14  1  0
  7 15  1  0
  5 16  1  0
 16 17  2  0
 17 18  1  0
 18 19  1  0
 19 20  1  0
 20 21  1  0
 20 22  1  0
 20 23  1  0
 19 24  1  0
 24 25  2  0
 25 26  1  0
 26 27  2  0
 27 28  1  0
 28 29  2  0
 29 30  1  0
 28 31  1  0
 26 32  1  0
 25 33  1  0
 19 34  1  0
 18 35  1  0
 18 36  1  0
  2 37  1  0
  2 38  1  0
  1 39  1  0
  1 40  1  0
  1 41  1  0
 17  3  1  0
 29 24  1  0
 11  6  1  0
M  END
>  <cnnaffinity>  (1) 
-5.99973

>  <filename>  (1) 
CCn1nc(-c2cccnc2)nc1CC(C)c1ccncc1

$$$$
