
     RDKit          3D

 45 48  0  0  0  0  0  0  0  0999 V2000
   12.3783    0.0686   24.2365 C   0  0  0  0  0  0  0  0  0  0  0  0
   11.9771    1.5259   24.3558 C   0  0  0  0  0  0  0  0  0  0  0  0
   12.0918    2.2672   23.1039 N   0  0  0  0  0  0  0  0  0  0  0  0
   13.0817    3.1713   22.8176 C   0  0  0  0  0  0  0  0  0  0  0  0
   12.8935    3.6406   21.5371 C   0  0  0  0  0  0  0  0  0  0  0  0
   11.7700    2.9667   21.0057 C   0  0  0  0  0  0  0  0  0  0  0  0
   11.2518    2.1662   22.0110 C   0  0  0  0  0  0  0  0  0  0  0  0
    9.9695    1.4611   22.0583 C   0  0  0  0  0  0  0  0  0  0  0  0
    9.5448    0.5395   21.2078 N   0  0  0  0  0  0  0  0  0  0  0  0
    8.3032    0.2412   21.6702 C   0  0  0  0  0  0  0  0  0  0  0  0
    7.3811   -0.7195   20.9690 C   0  0  0  0  0  0  0  0  0  0  0  0
    6.6103   -0.0556   19.8350 C   0  0  0  0  0  0  0  0  0  0  0  0
    5.4141    0.6270   20.0837 C   0  0  0  0  0  0  0  0  0  0  0  0
    4.8007    1.3207   19.0382 C   0  0  0  0  0  0  0  0  0  0  0  0
    5.4091    1.3084   17.7799 C   0  0  0  0  0  0  0  0  0  0  0  0
    6.5509    0.6542   17.5157 N   0  0  0  0  0  0  0  0  0  0  0  0
    7.1256   -0.0055   18.5280 C   0  0  0  0  0  0  0  0  0  0  0  0
    8.0554   -0.5288   18.2960 H   0  0  0  0  0  0  0  0  0  0  0  0
    4.9551    1.8305   16.9399 H   0  0  0  0  0  0  0  0  0  0  0  0
    3.8735    1.8637   19.1843 H   0  0  0  0  0  0  0  0  0  0  0  0
    4.9759    0.6090   21.0836 H   0  0  0  0  0  0  0  0  0  0  0  0
    7.9843   -1.5488   20.5853 H   0  0  0  0  0  0  0  0  0  0  0  0
    6.6892   -1.1214   21.7184 H   0  0  0  0  0  0  0  0  0  0  0  0
    7.9270    0.9132   22.7382 N   0  0  0  0  0  0  0  0  0  0  0  0
    8.9863    1.7306   22.9815 N   0  0  0  0  0  0  0  0  0  0  0  0
    8.9260    2.7765   23.9629 C   0  0  0  0  0  0  0  0  0  0  0  0
    8.1995    2.5763   25.1491 C   0  0  0  0  0  0  0  0  0  0  0  0
    8.2073    3.5656   26.1404 C   0  0  0  0  0  0  0  0  0  0  0  0
    8.9600    4.7388   25.9870 C   0  0  0  0  0  0  0  0  0  0  0  0
    9.6984    4.9228   24.8105 C   0  0  0  0  0  0  0  0  0  0  0  0
   10.6379    6.0167   24.6875 C   0  0  0  0  0  0  0  0  0  0  0  0
   11.4452    6.8467   24.5999 N   0  0  0  0  0  0  0  0  0  0  0  0
    9.6122    3.9871   23.7662 C   0  0  0  0  0  0  0  0  0  0  0  0
   10.0568    4.2289   22.8101 H   0  0  0  0  0  0  0  0  0  0  0  0
    8.9685    5.5081   26.7531 H   0  0  0  0  0  0  0  0  0  0  0  0
    7.6168    3.4187   27.0407 H   0  0  0  0  0  0  0  0  0  0  0  0
    7.6354    1.6522   25.2764 H   0  0  0  0  0  0  0  0  0  0  0  0
   11.3428    3.0920   20.0141 H   0  0  0  0  0  0  0  0  0  0  0  0
   13.5135    4.3583   21.0113 H   0  0  0  0  0  0  0  0  0  0  0  0
   13.8503    3.3806   23.5512 H   0  0  0  0  0  0  0  0  0  0  0  0
   12.6289    2.0241   25.0669 H   0  0  0  0  0  0  0  0  0  0  0  0
   10.9550    1.6301   24.7258 H   0  0  0  0  0  0  0  0  0  0  0  0
   13.4025   -0.0246   23.8624 H   0  0  0  0  0  0  0  0  0  0  0  0
   11.7065   -0.4759   23.5643 H   0  0  0  0  0  0  0  0  0  0  0  0
   12.3308   -0.4041   25.2228 H   0  0  0  0  0  0  0  0  0  0  0  0
  1  2  1  0
  2  3  1  0
  3  4  1  0
  4  5  2  0
  5  6  1  0
  6  7  2  0
  7  8  1  0
  8  9  2  0
  9 10  1  0
 10 11  1  0
 11 12  1  0
 12 13  2  0
 13 14  1  0
 14 15  2  0
 15 16  1  0
 16 17  2  0
 17 18  1  0
 15 19  1  0
 14 20  1  0
 13 21  1  0
 11 22  1  0
 11 23  1  0
 10 24  2  0
 24 25  1  0
 25 26  1  0
 26 27  2  0
 27 28  1  0
 28 29  2  0
 29 30  1  0
 30 31  1  0
 31 32  3  0
 30 33  2  0
 33 34  1  0
 29 35  1  0
 28 36  1  0
 27 37  1  0
  6 38  1  0
  5 39  1  0
  4 40  1  0
  2 41  1  0
  2 42  1  0
  1 43  1  0
  1 44  1  0
  1 45  1  0
  7  3  1  0
 25  8  1  0
 33 26  1  0
 17 12  1  0
M  END
>  <cnnaffinity>  (1) 
-6.13671

>  <filename>  (1) 
CCn1cccc1-c1nc(Cc2cccnc2)nn1-c1cccc(C#N)c1

$$$$
