
     RDKit          3D

 35 38  0  0  0  0  0  0  0  0999 V2000
    5.9356   -2.2038   24.9018 C   0  0  0  0  0  0  0  0  0  0  0  0
    6.9336   -1.2611   24.2220 C   0  0  0  0  0  0  0  0  0  0  0  0
    6.9106   -1.2415   22.7531 N   0  0  0  0  0  0  0  0  0  0  0  0
    6.1128   -0.3701   22.0882 N   0  0  0  0  0  0  0  0  0  0  0  0
    6.4541   -0.5445   20.8278 C   0  0  0  0  0  0  0  0  0  0  0  0
    5.9361    0.2256   19.6950 C   0  0  0  0  0  0  0  0  0  0  0  0
    4.8004    1.0508   19.7473 C   0  0  0  0  0  0  0  0  0  0  0  0
    4.4498    1.7423   18.5880 C   0  0  0  0  0  0  0  0  0  0  0  0
    5.2419    1.6015   17.4416 C   0  0  0  0  0  0  0  0  0  0  0  0
    6.3312    0.8202   17.3845 N   0  0  0  0  0  0  0  0  0  0  0  0
    6.6637    0.1568   18.4951 C   0  0  0  0  0  0  0  0  0  0  0  0
    7.5637   -0.4545   18.4429 H   0  0  0  0  0  0  0  0  0  0  0  0
    4.9939    2.1394   16.5286 H   0  0  0  0  0  0  0  0  0  0  0  0
    3.5906    2.4048   18.5574 H   0  0  0  0  0  0  0  0  0  0  0  0
    4.2248    1.1597   20.6710 H   0  0  0  0  0  0  0  0  0  0  0  0
    7.4481   -1.4423   20.6359 N   0  0  0  0  0  0  0  0  0  0  0  0
    7.7374   -1.8427   21.8570 C   0  0  0  0  0  0  0  0  0  0  0  0
    8.9898   -2.4985   22.1993 C   0  0  0  0  0  0  0  0  0  0  0  0
   10.2092   -2.0586   21.7825 C   0  0  0  0  0  0  0  0  0  0  0  0
   11.5069   -2.7228   22.6798 S   0  0  0  0  0  0  0  0  0  0  0  0
   10.4172   -3.6666   23.6531 C   0  0  0  0  0  0  0  0  0  0  0  0
   10.6715   -4.5250   24.7322 C   0  0  0  0  0  0  0  0  0  0  0  0
    9.5770   -5.1842   25.2871 C   0  0  0  0  0  0  0  0  0  0  0  0
    8.3034   -5.0184   24.7155 C   0  0  0  0  0  0  0  0  0  0  0  0
    8.0491   -4.2189   23.6850 N   0  0  0  0  0  0  0  0  0  0  0  0
    9.0874   -3.5072   23.2081 C   0  0  0  0  0  0  0  0  0  0  0  0
    7.4469   -5.5611   25.1131 H   0  0  0  0  0  0  0  0  0  0  0  0
    9.6825   -5.8081   26.1691 H   0  0  0  0  0  0  0  0  0  0  0  0
   11.6729   -4.6850   25.1248 H   0  0  0  0  0  0  0  0  0  0  0  0
   10.3986   -1.3673   20.9668 H   0  0  0  0  0  0  0  0  0  0  0  0
    6.7890   -0.2239   24.5405 H   0  0  0  0  0  0  0  0  0  0  0  0
    7.9379   -1.5642   24.5286 H   0  0  0  0  0  0  0  0  0  0  0  0
    4.9001   -1.8853   24.7819 H   0  0  0  0  0  0  0  0  0  0  0  0
    6.1565   -2.2178   25.9760 H   0  0  0  0  0  0  0  0  0  0  0  0
    6.0461   -3.2209   24.5186 H   0  0  0  0  0  0  0  0  0  0  0  0
  1  2  1  0
  2  3  1  0
  3  4  1  0
  4  5  2  0
  5  6  1  0
  6  7  2  0
  7  8  1  0
  8  9  2  0
  9 10  1  0
 10 11  2  0
 11 12  1  0
  9 13  1  0
  8 14  1  0
  7 15  1  0
  5 16  1  0
 16 17  2  0
 17 18  1  0
 18 19  2  0
 19 20  1  0
 20 21  1  0
 21 22  2  0
 22 23  1  0
 23 24  2  0
 24 25  1  0
 25 26  2  0
 24 27  1  0
 23 28  1  0
 22 29  1  0
 19 30  1  0
  2 31  1  0
  2 32  1  0
  1 33  1  0
  1 34  1  0
  1 35  1  0
 17  3  1  0
 26 18  1  0
 11  6  1  0
 26 21  1  0
M  END
>  <cnnaffinity>  (1) 
-6.01166

>  <filename>  (1) 
CCn1nc(-c2cccnc2)nc1-c1csc2cccnc12

$$$$
