
     RDKit          3D

 51 54  0  0  0  0  0  0  0  0999 V2000
    7.4042    6.0247   23.8770 C   0  0  0  0  0  0  0  0  0  0  0  0
    7.2978    4.5763   23.4082 C   0  0  0  0  0  0  0  0  0  0  0  0
    7.7143    3.6179   24.4297 N   0  0  0  0  0  0  0  0  0  0  0  0
    6.9033    3.3129   25.4870 C   0  0  0  0  0  0  0  0  0  0  0  0
    5.8382    3.8465   25.7430 O   0  0  0  0  0  0  0  0  0  0  0  0
    7.5434    2.1653   26.2463 C   0  0  0  0  0  0  0  0  0  0  0  0
    8.9390    1.9901   25.6378 C   0  0  0  0  0  0  0  0  0  0  0  0
    8.8733    2.7407   24.2773 C   0  0  0  0  0  0  0  0  0  0  0  0
    8.8077    1.8193   23.0729 C   0  0  0  0  0  0  0  0  0  0  0  0
    7.8226    0.9909   22.7623 N   0  0  0  0  0  0  0  0  0  0  0  0
    8.3014    0.3324   21.6754 C   0  0  0  0  0  0  0  0  0  0  0  0
    7.4854   -0.6740   20.9136 C   0  0  0  0  0  0  0  0  0  0  0  0
    6.6864   -0.0439   19.7767 C   0  0  0  0  0  0  0  0  0  0  0  0
    5.4896    0.6263   20.0636 C   0  0  0  0  0  0  0  0  0  0  0  0
    4.8261    1.3053   19.0382 C   0  0  0  0  0  0  0  0  0  0  0  0
    5.3939    1.2971   17.7600 C   0  0  0  0  0  0  0  0  0  0  0  0
    6.5256    0.6423   17.4550 N   0  0  0  0  0  0  0  0  0  0  0  0
    7.1435   -0.0097   18.4485 C   0  0  0  0  0  0  0  0  0  0  0  0
    8.0606   -0.5362   18.1783 H   0  0  0  0  0  0  0  0  0  0  0  0
    4.9239    1.8379   16.9402 H   0  0  0  0  0  0  0  0  0  0  0  0
    3.9029    1.8491   19.2164 H   0  0  0  0  0  0  0  0  0  0  0  0
    5.1093    0.6172   21.0875 H   0  0  0  0  0  0  0  0  0  0  0  0
    6.8029   -1.1400   21.6339 H   0  0  0  0  0  0  0  0  0  0  0  0
    8.1668   -1.4455   20.5391 H   0  0  0  0  0  0  0  0  0  0  0  0
    9.5266    0.6637   21.3189 N   0  0  0  0  0  0  0  0  0  0  0  0
    9.8443    1.6464   22.2070 N   0  0  0  0  0  0  0  0  0  0  0  0
   11.1428    2.2404   22.3088 C   0  0  0  0  0  0  0  0  0  0  0  0
   11.2837    3.6295   22.2504 C   0  0  0  0  0  0  0  0  0  0  0  0
   12.5538    4.2123   22.3261 C   0  0  0  0  0  0  0  0  0  0  0  0
   12.6232    5.5528   22.0893 O   0  0  0  0  0  0  0  0  0  0  0  0
   13.8937    6.1282   21.8345 C   0  0  0  0  0  0  0  0  0  0  0  0
   14.4352    5.5980   21.0393 H   0  0  0  0  0  0  0  0  0  0  0  0
   14.5115    6.1431   22.7394 H   0  0  0  0  0  0  0  0  0  0  0  0
   13.7173    7.1509   21.5065 H   0  0  0  0  0  0  0  0  0  0  0  0
   13.6616    3.4135   22.6359 C   0  0  0  0  0  0  0  0  0  0  0  0
   13.5104    2.0228   22.7296 C   0  0  0  0  0  0  0  0  0  0  0  0
   12.2653    1.4281   22.5407 C   0  0  0  0  0  0  0  0  0  0  0  0
   12.1486    0.3490   22.5916 H   0  0  0  0  0  0  0  0  0  0  0  0
   14.3832    1.3931   22.9038 H   0  0  0  0  0  0  0  0  0  0  0  0
   14.6263    3.8814   22.7776 H   0  0  0  0  0  0  0  0  0  0  0  0
   10.4237    4.2895   22.2047 H   0  0  0  0  0  0  0  0  0  0  0  0
    9.7620    3.3682   24.1618 H   0  0  0  0  0  0  0  0  0  0  0  0
    9.7032    2.4595   26.2618 H   0  0  0  0  0  0  0  0  0  0  0  0
    9.2257    0.9394   25.5112 H   0  0  0  0  0  0  0  0  0  0  0  0
    6.9059    1.2891   26.1050 H   0  0  0  0  0  0  0  0  0  0  0  0
    7.5418    2.3929   27.3127 H   0  0  0  0  0  0  0  0  0  0  0  0
    6.2645    4.3510   23.1147 H   0  0  0  0  0  0  0  0  0  0  0  0
    7.9210    4.4031   22.5210 H   0  0  0  0  0  0  0  0  0  0  0  0
    6.7519    6.1974   24.7372 H   0  0  0  0  0  0  0  0  0  0  0  0
    8.4307    6.2724   24.1624 H   0  0  0  0  0  0  0  0  0  0  0  0
    7.0985    6.7068   23.0758 H   0  0  0  0  0  0  0  0  0  0  0  0
  1  2  1  0
  2  3  1  0
  3  4  1  0
  4  5  2  0
  4  6  1  0
  6  7  1  0
  7  8  1  0
  8  9  1  0
  9 10  2  0
 10 11  1  0
 11 12  1  0
 12 13  1  0
 13 14  2  0
 14 15  1  0
 15 16  2  0
 16 17  1  0
 17 18  2  0
 18 19  1  0
 16 20  1  0
 15 21  1  0
 14 22  1  0
 12 23  1  0
 12 24  1  0
 11 25  2  0
 25 26  1  0
 26 27  1  0
 27 28  2  0
 28 29  1  0
 29 30  1  0
 30 31  1  0
 31 32  1  0
 31 33  1  0
 31 34  1  0
 29 35  2  0
 35 36  1  0
 36 37  2  0
 37 38  1  0
 36 39  1  0
 35 40  1  0
 28 41  1  0
  8 42  1  0
  7 43  1  0
  7 44  1  0
  6 45  1  0
  6 46  1  0
  2 47  1  0
  2 48  1  0
  1 49  1  0
  1 50  1  0
  1 51  1  0
  8  3  1  0
 26  9  1  0
 37 27  1  0
 18 13  1  0
M  END
>  <cnnaffinity>  (1) 
-6.00588

>  <filename>  (1) 
CCN1C(=O)CCC1c1nc(Cc2cccnc2)nn1-c1cccc(OC)c1

$$$$
