
     RDKit          3D

 42 45  0  0  0  0  0  0  0  0999 V2000
   11.1042   -1.3079   22.3556 C   0  0  0  0  0  0  0  0  0  0  0  0
   10.0679   -2.2262   21.6987 C   0  0  0  0  0  0  0  0  0  0  0  0
    8.7664   -1.6036   21.4407 N   0  0  0  0  0  0  0  0  0  0  0  0
    8.4898   -1.1044   20.2097 N   0  0  0  0  0  0  0  0  0  0  0  0
    7.3032   -0.5493   20.3745 C   0  0  0  0  0  0  0  0  0  0  0  0
    6.5620    0.1487   19.3290 C   0  0  0  0  0  0  0  0  0  0  0  0
    5.3543    0.8062   19.6118 C   0  0  0  0  0  0  0  0  0  0  0  0
    4.7314    1.5042   18.5839 C   0  0  0  0  0  0  0  0  0  0  0  0
    5.3329    1.5173   17.3210 C   0  0  0  0  0  0  0  0  0  0  0  0
    6.4669    0.8633   17.0307 N   0  0  0  0  0  0  0  0  0  0  0  0
    7.0642    0.1944   18.0217 C   0  0  0  0  0  0  0  0  0  0  0  0
    7.9871   -0.3218   17.7603 H   0  0  0  0  0  0  0  0  0  0  0  0
    4.8858    2.0788   16.5068 H   0  0  0  0  0  0  0  0  0  0  0  0
    3.8082    2.0450   18.7528 H   0  0  0  0  0  0  0  0  0  0  0  0
    4.9305    0.7726   20.6183 H   0  0  0  0  0  0  0  0  0  0  0  0
    6.8075   -0.6484   21.6287 N   0  0  0  0  0  0  0  0  0  0  0  0
    7.7293   -1.3329   22.2730 C   0  0  0  0  0  0  0  0  0  0  0  0
    7.6525   -1.6662   23.7004 C   0  0  0  0  0  0  0  0  0  0  0  0
    7.6281   -0.6324   24.5838 C   0  0  0  0  0  0  0  0  0  0  0  0
    7.8167   -0.8163   25.9278 N   0  0  0  0  0  0  0  0  0  0  0  0
    8.1021    0.3444   26.8028 C   0  0  0  0  0  0  0  0  0  0  0  0
    8.1021    1.2741   26.2189 H   0  0  0  0  0  0  0  0  0  0  0  0
    7.3540    0.4198   27.5968 H   0  0  0  0  0  0  0  0  0  0  0  0
    9.0877    0.2155   27.2589 H   0  0  0  0  0  0  0  0  0  0  0  0
    7.9301   -2.1127   26.4834 C   0  0  0  0  0  0  0  0  0  0  0  0
    8.2073   -2.2400   27.6620 O   0  0  0  0  0  0  0  0  0  0  0  0
    7.7088   -3.2626   25.5621 C   0  0  0  0  0  0  0  0  0  0  0  0
    7.6084   -4.5692   26.0809 C   0  0  0  0  0  0  0  0  0  0  0  0
    7.3947   -5.6328   25.2299 C   0  0  0  0  0  0  0  0  0  0  0  0
    7.2814   -5.4265   23.8379 C   0  0  0  0  0  0  0  0  0  0  0  0
    7.3751   -4.1506   23.3136 C   0  0  0  0  0  0  0  0  0  0  0  0
    7.6037   -3.0385   24.1726 C   0  0  0  0  0  0  0  0  0  0  0  0
    7.2664   -3.9888   22.2428 H   0  0  0  0  0  0  0  0  0  0  0  0
    7.1170   -6.2725   23.1771 H   0  0  0  0  0  0  0  0  0  0  0  0
    7.3263   -6.6267   25.6570 H   0  0  0  0  0  0  0  0  0  0  0  0
    7.6893   -4.7360   27.1544 H   0  0  0  0  0  0  0  0  0  0  0  0
    7.4502    0.3988   24.2757 H   0  0  0  0  0  0  0  0  0  0  0  0
   10.4056   -2.5580   20.7177 H   0  0  0  0  0  0  0  0  0  0  0  0
    9.8931   -3.1080   22.3263 H   0  0  0  0  0  0  0  0  0  0  0  0
   10.9407   -1.2243   23.4359 H   0  0  0  0  0  0  0  0  0  0  0  0
   12.1049   -1.7237   22.1942 H   0  0  0  0  0  0  0  0  0  0  0  0
   11.0723   -0.3053   21.9154 H   0  0  0  0  0  0  0  0  0  0  0  0
  1  2  1  0
  2  3  1  0
  3  4  1  0
  4  5  2  0
  5  6  1  0
  6  7  2  0
  7  8  1  0
  8  9  2  0
  9 10  1  0
 10 11  2  0
 11 12  1  0
  9 13  1  0
  8 14  1  0
  7 15  1  0
  5 16  1  0
 16 17  2  0
 17 18  1  0
 18 19  2  0
 19 20  1  0
 20 21  1  0
 21 22  1  0
 21 23  1  0
 21 24  1  0
 20 25  1  0
 25 26  2  0
 25 27  1  0
 27 28  2  0
 28 29  1  0
 29 30  2  0
 30 31  1  0
 31 32  2  0
 31 33  1  0
 30 34  1  0
 29 35  1  0
 28 36  1  0
 19 37  1  0
  2 38  1  0
  2 39  1  0
  1 40  1  0
  1 41  1  0
  1 42  1  0
 17  3  1  0
 32 18  1  0
 11  6  1  0
 32 27  1  0
M  END
>  <cnnaffinity>  (1) 
-5.889

>  <filename>  (1) 
CCn1nc(-c2cccnc2)nc1-c1cn(C)c(=O)c2ccccc12

$$$$
