
     RDKit          3D

 39 41  0  0  0  0  0  0  0  0999 V2000
    5.0079    1.8797   16.9196 H   0  0  0  0  0  0  0  0  0  0  0  0
    5.4826    1.3494   17.7406 C   0  0  0  0  0  0  0  0  0  0  0  0
    6.6587    0.7609   17.4593 N   0  0  0  0  0  0  0  0  0  0  0  0
    7.2807    0.1055   18.4456 C   0  0  0  0  0  0  0  0  0  0  0  0
    8.2430   -0.3487   18.2087 H   0  0  0  0  0  0  0  0  0  0  0  0
    6.7365   -0.0314   19.7425 C   0  0  0  0  0  0  0  0  0  0  0  0
    7.3843   -0.7911   20.7479 N   0  0  0  0  0  0  0  0  0  0  0  0
    6.8194   -1.7477   21.6098 C   0  0  0  0  0  0  0  0  0  0  0  0
    5.6837   -2.1838   21.4966 O   0  0  0  0  0  0  0  0  0  0  0  0
    7.9453   -2.0745   22.5654 C   0  0  0  0  0  0  0  0  0  0  0  0
    7.9312   -2.9614   23.6594 N   0  0  0  0  0  0  0  0  0  0  0  0
    6.7092   -3.7197   23.9573 C   0  0  0  0  0  0  0  0  0  0  0  0
    6.1770   -3.9293   23.0289 H   0  0  0  0  0  0  0  0  0  0  0  0
    6.0391   -3.1264   24.6046 H   0  0  0  0  0  0  0  0  0  0  0  0
    7.0667   -5.0131   24.6944 C   0  0  0  0  0  0  0  0  0  0  0  0
    6.1436   -5.5622   24.9180 H   0  0  0  0  0  0  0  0  0  0  0  0
    7.6768   -5.6544   24.0282 H   0  0  0  0  0  0  0  0  0  0  0  0
    7.7478   -4.7234   25.9616 N   0  0  0  0  0  0  0  0  0  0  0  0
    7.9959   -5.9297   26.7509 C   0  0  0  0  0  0  0  0  0  0  0  0
    8.8553   -6.5219   26.3712 H   0  0  0  0  0  0  0  0  0  0  0  0
    7.1177   -6.5841   26.6678 H   0  0  0  0  0  0  0  0  0  0  0  0
    8.1997   -5.5860   28.2165 C   0  0  0  0  0  0  0  0  0  0  0  0
    9.0942   -4.9707   28.3402 H   0  0  0  0  0  0  0  0  0  0  0  0
    8.3291   -6.4872   28.8234 H   0  0  0  0  0  0  0  0  0  0  0  0
    7.3388   -5.0259   28.5949 H   0  0  0  0  0  0  0  0  0  0  0  0
    8.9537   -3.9100   25.7086 C   0  0  0  0  0  0  0  0  0  0  0  0
    9.4027   -3.6240   26.6660 H   0  0  0  0  0  0  0  0  0  0  0  0
    9.7262   -4.4795   25.1569 H   0  0  0  0  0  0  0  0  0  0  0  0
    8.6100   -2.6276   24.9274 C   0  0  0  0  0  0  0  0  0  0  0  0
    9.5194   -2.0527   24.7320 H   0  0  0  0  0  0  0  0  0  0  0  0
    7.9498   -2.0088   25.5604 H   0  0  0  0  0  0  0  0  0  0  0  0
    9.0382   -1.4306   22.0855 C   0  0  0  0  0  0  0  0  0  0  0  0
   10.0390   -1.4490   22.4998 H   0  0  0  0  0  0  0  0  0  0  0  0
    8.7823   -0.7155   20.9029 N   0  0  0  0  0  0  0  0  0  0  0  0
    9.1088    0.2484   20.8833 H   0  0  0  0  0  0  0  0  0  0  0  0
    5.5120    0.5965   20.0267 C   0  0  0  0  0  0  0  0  0  0  0  0
    5.0905    0.5276   21.0290 H   0  0  0  0  0  0  0  0  0  0  0  0
    4.8804    1.3064   19.0027 C   0  0  0  0  0  0  0  0  0  0  0  0
    3.9422    1.8276   19.1698 H   0  0  0  0  0  0  0  0  0  0  0  0
  1  2  1  0
  2  3  2  0
  3  4  1  0
  4  5  1  0
  4  6  2  0
  6  7  1  0
  7  8  1  0
  8  9  2  0
  8 10  1  0
 10 11  1  0
 11 12  1  0
 12 13  1  0
 12 14  1  0
 12 15  1  0
 15 16  1  0
 15 17  1  0
 15 18  1  0
 18 19  1  0
 19 20  1  0
 19 21  1  0
 19 22  1  0
 22 23  1  0
 22 24  1  0
 22 25  1  0
 18 26  1  0
 26 27  1  0
 26 28  1  0
 26 29  1  0
 29 30  1  0
 29 31  1  0
 10 32  2  0
 32 33  1  0
 32 34  1  0
 34 35  1  0
  6 36  1  0
 36 37  1  0
 36 38  2  0
 38 39  1  0
 38  2  1  0
 34  7  1  0
 29 11  1  0
M  END
>  <cnnaffinity>  (1) 
-4.84153

>  <filename>  (1) 
CCN1CCN(c2c[nH]n(-c3cccnc3)c2=O)CC1

$$$$
