
     RDKit          3D

 45 48  0  0  0  0  0  0  0  0999 V2000
   11.1499   -1.6057   22.7729 C   0  0  0  0  0  0  0  0  0  0  0  0
   10.0569   -2.4815   22.1766 C   0  0  0  0  0  0  0  0  0  0  0  0
    8.7835   -1.8202   21.9651 N   0  0  0  0  0  0  0  0  0  0  0  0
    8.4865   -1.3450   20.7371 N   0  0  0  0  0  0  0  0  0  0  0  0
    7.3573   -0.6980   20.9373 C   0  0  0  0  0  0  0  0  0  0  0  0
    6.6517    0.0053   19.8818 C   0  0  0  0  0  0  0  0  0  0  0  0
    5.4377    0.6557   20.1409 C   0  0  0  0  0  0  0  0  0  0  0  0
    4.8092    1.3066   19.0872 C   0  0  0  0  0  0  0  0  0  0  0  0
    5.4193    1.2862   17.8265 C   0  0  0  0  0  0  0  0  0  0  0  0
    6.5808    0.6621   17.5686 N   0  0  0  0  0  0  0  0  0  0  0  0
    7.1864    0.0424   18.5854 C   0  0  0  0  0  0  0  0  0  0  0  0
    8.1371   -0.4412   18.3578 H   0  0  0  0  0  0  0  0  0  0  0  0
    4.9504    1.7957   16.9897 H   0  0  0  0  0  0  0  0  0  0  0  0
    3.8747    1.8377   19.2373 H   0  0  0  0  0  0  0  0  0  0  0  0
    5.0247    0.6392   21.1526 H   0  0  0  0  0  0  0  0  0  0  0  0
    6.9097   -0.7339   22.2149 N   0  0  0  0  0  0  0  0  0  0  0  0
    7.8221   -1.4517   22.8361 C   0  0  0  0  0  0  0  0  0  0  0  0
    7.8340   -1.8102   24.3036 C   0  0  0  0  0  0  0  0  0  0  0  0
    6.5115   -2.0447   24.8825 N   0  0  0  0  0  0  0  0  0  0  0  0
    5.8857   -0.9355   25.5037 C   0  0  0  0  0  0  0  0  0  0  0  0
    6.4733    0.1251   25.6366 O   0  0  0  0  0  0  0  0  0  0  0  0
    4.5293   -1.1561   25.9852 C   0  0  0  0  0  0  0  0  0  0  0  0
    3.8586   -2.3119   25.8165 C   0  0  0  0  0  0  0  0  0  0  0  0
    2.4639   -2.4621   26.3624 C   0  0  0  0  0  0  0  0  0  0  0  0
    2.1483   -1.5573   26.8906 H   0  0  0  0  0  0  0  0  0  0  0  0
    2.4187   -3.2985   27.0669 H   0  0  0  0  0  0  0  0  0  0  0  0
    1.7453   -2.6546   25.5587 H   0  0  0  0  0  0  0  0  0  0  0  0
    4.4953   -3.4124   25.0937 C   0  0  0  0  0  0  0  0  0  0  0  0
    3.8408   -4.6452   24.8417 C   0  0  0  0  0  0  0  0  0  0  0  0
    4.4544   -5.6504   24.1193 C   0  0  0  0  0  0  0  0  0  0  0  0
    5.7474   -5.4579   23.6085 C   0  0  0  0  0  0  0  0  0  0  0  0
    6.4107   -4.2611   23.8423 C   0  0  0  0  0  0  0  0  0  0  0  0
    5.8176   -3.2317   24.6041 C   0  0  0  0  0  0  0  0  0  0  0  0
    7.3963   -4.1092   23.4194 H   0  0  0  0  0  0  0  0  0  0  0  0
    6.2341   -6.2453   23.0380 H   0  0  0  0  0  0  0  0  0  0  0  0
    3.9400   -6.5915   23.9516 H   0  0  0  0  0  0  0  0  0  0  0  0
    2.8376   -4.7911   25.2309 H   0  0  0  0  0  0  0  0  0  0  0  0
    4.1123   -0.2864   26.4756 H   0  0  0  0  0  0  0  0  0  0  0  0
    8.2712   -0.9671   24.8431 H   0  0  0  0  0  0  0  0  0  0  0  0
    8.4836   -2.6694   24.4924 H   0  0  0  0  0  0  0  0  0  0  0  0
   10.3459   -2.7957   21.1807 H   0  0  0  0  0  0  0  0  0  0  0  0
    9.9068   -3.3802   22.7844 H   0  0  0  0  0  0  0  0  0  0  0  0
   11.3031   -0.7047   22.1743 H   0  0  0  0  0  0  0  0  0  0  0  0
   10.9285   -1.2989   23.8007 H   0  0  0  0  0  0  0  0  0  0  0  0
   12.0774   -2.1843   22.7748 H   0  0  0  0  0  0  0  0  0  0  0  0
  1  2  1  0
  2  3  1  0
  3  4  1  0
  4  5  2  0
  5  6  1  0
  6  7  2  0
  7  8  1  0
  8  9  2  0
  9 10  1  0
 10 11  2  0
 11 12  1  0
  9 13  1  0
  8 14  1  0
  7 15  1  0
  5 16  1  0
 16 17  2  0
 17 18  1  0
 18 19  1  0
 19 20  1  0
 20 21  2  0
 20 22  1  0
 22 23  2  0
 23 24  1  0
 24 25  1  0
 24 26  1  0
 24 27  1  0
 23 28  1  0
 28 29  2  0
 29 30  1  0
 30 31  2  0
 31 32  1  0
 32 33  2  0
 32 34  1  0
 31 35  1  0
 30 36  1  0
 29 37  1  0
 22 38  1  0
 18 39  1  0
 18 40  1  0
  2 41  1  0
  2 42  1  0
  1 43  1  0
  1 44  1  0
  1 45  1  0
 17  3  1  0
 33 19  1  0
 11  6  1  0
 33 28  1  0
M  END
>  <cnnaffinity>  (1) 
-5.90415

>  <filename>  (1) 
CCn1nc(-c2cccnc2)nc1Cn1c(=O)cc(C)c2ccccc21

$$$$
