
     RDKit          3D

 39 42  0  0  0  0  0  0  0  0999 V2000
   11.2216   -1.5846   22.5496 C   0  0  0  0  0  0  0  0  0  0  0  0
   10.0501   -2.4569   22.1173 C   0  0  0  0  0  0  0  0  0  0  0  0
    8.7701   -1.7615   22.0310 N   0  0  0  0  0  0  0  0  0  0  0  0
    8.4224   -1.2530   20.8338 N   0  0  0  0  0  0  0  0  0  0  0  0
    7.2443   -0.7000   21.0554 C   0  0  0  0  0  0  0  0  0  0  0  0
    6.5441    0.0003   19.9790 C   0  0  0  0  0  0  0  0  0  0  0  0
    5.3368    0.6931   20.1551 C   0  0  0  0  0  0  0  0  0  0  0  0
    4.7911    1.3383   19.0442 C   0  0  0  0  0  0  0  0  0  0  0  0
    5.4684    1.2785   17.8208 C   0  0  0  0  0  0  0  0  0  0  0  0
    6.6232    0.6203   17.6447 N   0  0  0  0  0  0  0  0  0  0  0  0
    7.1427    0.0008   18.7071 C   0  0  0  0  0  0  0  0  0  0  0  0
    8.0845   -0.5216   18.5452 H   0  0  0  0  0  0  0  0  0  0  0  0
    5.0670    1.7776   16.9406 H   0  0  0  0  0  0  0  0  0  0  0  0
    3.8623    1.8939   19.1111 H   0  0  0  0  0  0  0  0  0  0  0  0
    4.8538    0.7334   21.1342 H   0  0  0  0  0  0  0  0  0  0  0  0
    6.8103   -0.8289   22.3340 N   0  0  0  0  0  0  0  0  0  0  0  0
    7.7886   -1.4965   22.9230 C   0  0  0  0  0  0  0  0  0  0  0  0
    7.8254   -1.8564   24.3762 C   0  0  0  0  0  0  0  0  0  0  0  0
    7.2153   -3.1416   24.6343 N   0  0  0  0  0  0  0  0  0  0  0  0
    7.9697   -4.2457   24.4447 N   0  0  0  0  0  0  0  0  0  0  0  0
    7.1444   -5.2742   24.4156 C   0  0  0  0  0  0  0  0  0  0  0  0
    5.7836   -4.8499   24.5205 C   0  0  0  0  0  0  0  0  0  0  0  0
    4.4978   -5.4541   24.4086 C   0  0  0  0  0  0  0  0  0  0  0  0
    3.3848   -4.6428   24.5330 C   0  0  0  0  0  0  0  0  0  0  0  0
    3.5058   -3.2534   24.8236 C   0  0  0  0  0  0  0  0  0  0  0  0
    4.7469   -2.6448   24.9232 C   0  0  0  0  0  0  0  0  0  0  0  0
    5.8842   -3.4511   24.7045 C   0  0  0  0  0  0  0  0  0  0  0  0
    4.8627   -1.5785   25.1013 H   0  0  0  0  0  0  0  0  0  0  0  0
    2.6077   -2.6531   24.9502 H   0  0  0  0  0  0  0  0  0  0  0  0
    2.3881   -5.0549   24.3896 H   0  0  0  0  0  0  0  0  0  0  0  0
    4.3798   -6.5062   24.1557 H   0  0  0  0  0  0  0  0  0  0  0  0
    7.5355   -6.2744   24.3038 H   0  0  0  0  0  0  0  0  0  0  0  0
    7.2829   -1.0941   24.9414 H   0  0  0  0  0  0  0  0  0  0  0  0
    8.8542   -1.9173   24.7401 H   0  0  0  0  0  0  0  0  0  0  0  0
   10.2101   -2.8067   21.0976 H   0  0  0  0  0  0  0  0  0  0  0  0
    9.9332   -3.3255   22.7706 H   0  0  0  0  0  0  0  0  0  0  0  0
   12.1358   -2.1876   22.5451 H   0  0  0  0  0  0  0  0  0  0  0  0
   11.3647   -0.7485   21.8588 H   0  0  0  0  0  0  0  0  0  0  0  0
   11.0666   -1.1840   23.5571 H   0  0  0  0  0  0  0  0  0  0  0  0
  1  2  1  0
  2  3  1  0
  3  4  1  0
  4  5  2  0
  5  6  1  0
  6  7  2  0
  7  8  1  0
  8  9  2  0
  9 10  1  0
 10 11  2  0
 11 12  1  0
  9 13  1  0
  8 14  1  0
  7 15  1  0
  5 16  1  0
 16 17  2  0
 17 18  1  0
 18 19  1  0
 19 20  1  0
 20 21  2  0
 21 22  1  0
 22 23  2  0
 23 24  1  0
 24 25  2  0
 25 26  1  0
 26 27  2  0
 26 28  1  0
 25 29  1  0
 24 30  1  0
 23 31  1  0
 21 32  1  0
 18 33  1  0
 18 34  1  0
  2 35  1  0
  2 36  1  0
  1 37  1  0
  1 38  1  0
  1 39  1  0
 17  3  1  0
 27 19  1  0
 11  6  1  0
 27 22  1  0
M  END
>  <cnnaffinity>  (1) 
-6.15658

>  <filename>  (1) 
CCn1nc(-c2cccnc2)nc1Cn1ncc2ccccc21

$$$$
