
     RDKit          3D

 42 43  0  0  0  0  0  0  0  0999 V2000
    4.9505    1.8101   16.9618 H   0  0  0  0  0  0  0  0  0  0  0  0
    5.3999    1.2890   17.8071 C   0  0  0  0  0  0  0  0  0  0  0  0
    6.5601    0.6694   17.5618 N   0  0  0  0  0  0  0  0  0  0  0  0
    7.1607    0.0434   18.5899 C   0  0  0  0  0  0  0  0  0  0  0  0
    8.1220   -0.4136   18.3513 H   0  0  0  0  0  0  0  0  0  0  0  0
    6.6469   -0.0225   19.8869 C   0  0  0  0  0  0  0  0  0  0  0  0
    7.3559   -0.7549   21.0312 C   0  0  0  0  0  0  0  0  0  0  0  0
    7.4635    0.1693   22.1932 N   0  0  0  0  0  0  0  0  0  0  0  0
    7.8266   -0.4048   22.9565 H   0  0  0  0  0  0  0  0  0  0  0  0
    8.4075    1.2448   21.9203 N   0  0  0  0  0  0  0  0  0  0  0  0
    7.7300    2.5444   22.0683 C   0  0  0  0  0  0  0  0  0  0  0  0
    6.7959    2.4694   21.5015 H   0  0  0  0  0  0  0  0  0  0  0  0
    8.3790    3.2999   21.5964 H   0  0  0  0  0  0  0  0  0  0  0  0
    7.4430    2.8939   23.5432 C   0  0  0  0  0  0  0  0  0  0  0  0
    6.9818    3.8861   23.6101 H   0  0  0  0  0  0  0  0  0  0  0  0
    6.7040    2.1571   23.9190 H   0  0  0  0  0  0  0  0  0  0  0  0
    8.6831    2.8790   24.3445 N   0  0  0  0  0  0  0  0  0  0  0  0
    8.4807    3.2981   25.7313 C   0  0  0  0  0  0  0  0  0  0  0  0
    9.3476    2.9596   26.3147 H   0  0  0  0  0  0  0  0  0  0  0  0
    7.5953    2.8079   26.1881 H   0  0  0  0  0  0  0  0  0  0  0  0
    8.3704    4.8180   25.8494 C   0  0  0  0  0  0  0  0  0  0  0  0
    9.2353    5.2982   25.3788 H   0  0  0  0  0  0  0  0  0  0  0  0
    7.4681    5.1985   25.3567 H   0  0  0  0  0  0  0  0  0  0  0  0
    8.3252    5.1263   26.8998 H   0  0  0  0  0  0  0  0  0  0  0  0
    9.3633    1.5818   24.2336 C   0  0  0  0  0  0  0  0  0  0  0  0
   10.3248    1.6512   24.7575 H   0  0  0  0  0  0  0  0  0  0  0  0
    8.7886    0.7583   24.7087 H   0  0  0  0  0  0  0  0  0  0  0  0
    9.6218    1.2061   22.7631 C   0  0  0  0  0  0  0  0  0  0  0  0
   10.0644    0.2025   22.7080 H   0  0  0  0  0  0  0  0  0  0  0  0
   10.3211    1.9206   22.3069 H   0  0  0  0  0  0  0  0  0  0  0  0
    8.7733   -1.2498   20.7127 C   0  0  0  0  0  0  0  0  0  0  0  0
    8.7614   -1.9783   19.9163 H   0  0  0  0  0  0  0  0  0  0  0  0
    9.2013   -1.7377   21.5979 H   0  0  0  0  0  0  0  0  0  0  0  0
    9.4226   -0.4114   20.4453 H   0  0  0  0  0  0  0  0  0  0  0  0
    6.4750   -1.9349   21.4542 C   0  0  0  0  0  0  0  0  0  0  0  0
    5.5014   -1.5700   21.7755 H   0  0  0  0  0  0  0  0  0  0  0  0
    6.9180   -2.5231   22.2667 H   0  0  0  0  0  0  0  0  0  0  0  0
    6.3108   -2.6113   20.6071 H   0  0  0  0  0  0  0  0  0  0  0  0
    5.4197    0.6363   20.1165 C   0  0  0  0  0  0  0  0  0  0  0  0
    4.9974    0.6726   21.1238 H   0  0  0  0  0  0  0  0  0  0  0  0
    4.7850    1.3012   19.0637 C   0  0  0  0  0  0  0  0  0  0  0  0
    3.8574    1.8475   19.2137 H   0  0  0  0  0  0  0  0  0  0  0  0
  1  2  1  0
  2  3  2  0
  3  4  1  0
  4  5  1  0
  4  6  2  0
  6  7  1  0
  7  8  1  0
  8  9  1  0
  8 10  1  0
 10 11  1  0
 11 12  1  0
 11 13  1  0
 11 14  1  0
 14 15  1  0
 14 16  1  0
 14 17  1  0
 17 18  1  0
 18 19  1  0
 18 20  1  0
 18 21  1  0
 21 22  1  0
 21 23  1  0
 21 24  1  0
 17 25  1  0
 25 26  1  0
 25 27  1  0
 25 28  1  0
 28 29  1  0
 28 30  1  0
  7 31  1  0
 31 32  1  0
 31 33  1  0
 31 34  1  0
  7 35  1  0
 35 36  1  0
 35 37  1  0
 35 38  1  0
  6 39  1  0
 39 40  1  0
 39 41  2  0
 41 42  1  0
 41  2  1  0
 28 10  1  0
M  END
>  <cnnaffinity>  (1) 
-4.48899

>  <filename>  (1) 
CCN1CCN(NC(C)(C)c2cccnc2)CC1

$$$$
