
     RDKit          3D

 37 40  0  0  0  0  0  0  0  0999 V2000
   11.1501   -1.3983   22.6907 C   0  0  0  0  0  0  0  0  0  0  0  0
   10.1023   -2.4024   22.2250 C   0  0  0  0  0  0  0  0  0  0  0  0
    8.7969   -1.8133   21.9701 N   0  0  0  0  0  0  0  0  0  0  0  0
    8.5019   -1.3484   20.7358 N   0  0  0  0  0  0  0  0  0  0  0  0
    7.3818   -0.6814   20.9423 C   0  0  0  0  0  0  0  0  0  0  0  0
    6.6564    0.0070   19.8911 C   0  0  0  0  0  0  0  0  0  0  0  0
    5.4388    0.6512   20.1538 C   0  0  0  0  0  0  0  0  0  0  0  0
    4.8096    1.3016   19.0995 C   0  0  0  0  0  0  0  0  0  0  0  0
    5.4162    1.2811   17.8372 C   0  0  0  0  0  0  0  0  0  0  0  0
    6.5769    0.6590   17.5786 N   0  0  0  0  0  0  0  0  0  0  0  0
    7.1841    0.0422   18.5942 C   0  0  0  0  0  0  0  0  0  0  0  0
    8.1363   -0.4388   18.3695 H   0  0  0  0  0  0  0  0  0  0  0  0
    4.9550    1.7894   16.9953 H   0  0  0  0  0  0  0  0  0  0  0  0
    3.8762    1.8376   19.2403 H   0  0  0  0  0  0  0  0  0  0  0  0
    5.0124    0.6421   21.1607 H   0  0  0  0  0  0  0  0  0  0  0  0
    6.9526   -0.6699   22.2279 N   0  0  0  0  0  0  0  0  0  0  0  0
    7.8416   -1.4210   22.8396 C   0  0  0  0  0  0  0  0  0  0  0  0
    7.8533   -1.7835   24.2652 C   0  0  0  0  0  0  0  0  0  0  0  0
    7.9951   -0.7946   25.2191 C   0  0  0  0  0  0  0  0  0  0  0  0
    8.0573   -1.0497   26.5536 N   0  0  0  0  0  0  0  0  0  0  0  0
    7.9550   -2.2719   27.0125 N   0  0  0  0  0  0  0  0  0  0  0  0
    7.7837   -3.3181   26.1434 C   0  0  0  0  0  0  0  0  0  0  0  0
    7.6472   -4.6256   26.6959 C   0  0  0  0  0  0  0  0  0  0  0  0
    7.4686   -5.7020   25.8637 C   0  0  0  0  0  0  0  0  0  0  0  0
    7.4163   -5.5226   24.4501 C   0  0  0  0  0  0  0  0  0  0  0  0
    7.5437   -4.2673   23.8935 C   0  0  0  0  0  0  0  0  0  0  0  0
    7.7344   -3.1271   24.7279 C   0  0  0  0  0  0  0  0  0  0  0  0
    7.4952   -4.1242   22.8180 H   0  0  0  0  0  0  0  0  0  0  0  0
    7.2739   -6.3702   23.7928 H   0  0  0  0  0  0  0  0  0  0  0  0
    7.3638   -6.6977   26.2844 H   0  0  0  0  0  0  0  0  0  0  0  0
    7.6887   -4.6950   27.7790 H   0  0  0  0  0  0  0  0  0  0  0  0
    8.0876    0.2514   24.9394 H   0  0  0  0  0  0  0  0  0  0  0  0
   10.3807   -2.8196   21.2600 H   0  0  0  0  0  0  0  0  0  0  0  0
    9.9702   -3.2050   22.9623 H   0  0  0  0  0  0  0  0  0  0  0  0
   12.1054   -1.9251   22.7428 H   0  0  0  0  0  0  0  0  0  0  0  0
   10.9170   -0.9715   23.6740 H   0  0  0  0  0  0  0  0  0  0  0  0
   11.2517   -0.5844   21.9660 H   0  0  0  0  0  0  0  0  0  0  0  0
  1  2  1  0
  2  3  1  0
  3  4  1  0
  4  5  2  0
  5  6  1  0
  6  7  2  0
  7  8  1  0
  8  9  2  0
  9 10  1  0
 10 11  2  0
 11 12  1  0
  9 13  1  0
  8 14  1  0
  7 15  1  0
  5 16  1  0
 16 17  2  0
 17 18  1  0
 18 19  2  0
 19 20  1  0
 20 21  2  0
 21 22  1  0
 22 23  2  0
 23 24  1  0
 24 25  2  0
 25 26  1  0
 26 27  2  0
 26 28  1  0
 25 29  1  0
 24 30  1  0
 23 31  1  0
 19 32  1  0
  2 33  1  0
  2 34  1  0
  1 35  1  0
  1 36  1  0
  1 37  1  0
 17  3  1  0
 27 18  1  0
 11  6  1  0
 27 22  1  0
M  END
>  <cnnaffinity>  (1) 
-5.78063

>  <filename>  (1) 
CCn1nc(-c2cccnc2)nc1-c1cnnc2ccccc12

$$$$
