
     RDKit          3D

 48 50  0  0  0  0  0  0  0  0999 V2000
   11.2818   -1.4769   22.4856 C   0  0  0  0  0  0  0  0  0  0  0  0
   10.0741   -2.2988   22.0460 C   0  0  0  0  0  0  0  0  0  0  0  0
    8.8313   -1.5346   21.9194 N   0  0  0  0  0  0  0  0  0  0  0  0
    8.4790   -1.0726   20.6988 N   0  0  0  0  0  0  0  0  0  0  0  0
    7.3068   -0.4987   20.9124 C   0  0  0  0  0  0  0  0  0  0  0  0
    6.5403    0.1233   19.8413 C   0  0  0  0  0  0  0  0  0  0  0  0
    5.3085    0.7784   20.0188 C   0  0  0  0  0  0  0  0  0  0  0  0
    4.7488    1.4066   18.9077 C   0  0  0  0  0  0  0  0  0  0  0  0
    5.4165    1.3399   17.6781 C   0  0  0  0  0  0  0  0  0  0  0  0
    6.5619    0.6686   17.4932 N   0  0  0  0  0  0  0  0  0  0  0  0
    7.1004    0.0747   18.5572 C   0  0  0  0  0  0  0  0  0  0  0  0
    8.0249   -0.4751   18.3951 H   0  0  0  0  0  0  0  0  0  0  0  0
    5.0121    1.8385   16.8016 H   0  0  0  0  0  0  0  0  0  0  0  0
    3.8190    1.9600   18.9745 H   0  0  0  0  0  0  0  0  0  0  0  0
    4.8054    0.7990   20.9889 H   0  0  0  0  0  0  0  0  0  0  0  0
    6.8851   -0.5652   22.1934 N   0  0  0  0  0  0  0  0  0  0  0  0
    7.8617   -1.2067   22.8033 C   0  0  0  0  0  0  0  0  0  0  0  0
    7.7776   -1.6268   24.2227 C   0  0  0  0  0  0  0  0  0  0  0  0
    7.1484   -3.0177   24.3558 C   0  0  0  0  0  0  0  0  0  0  0  0
    6.9722   -3.3570   25.8160 N   0  0  0  0  0  4  0  0  0  0  0  0
    5.9354   -4.4419   26.0752 C   0  0  0  0  0  0  0  0  0  0  0  0
    6.4814   -5.8478   25.8010 C   0  0  0  0  0  0  0  0  0  0  0  0
    7.7592   -6.1424   26.6040 C   0  0  0  0  0  0  0  0  0  0  0  0
    7.4782   -6.2782   28.1061 C   0  0  0  0  0  0  0  0  0  0  0  0
    8.3624   -6.6053   28.6562 H   0  0  0  0  0  0  0  0  0  0  0  0
    6.6918   -7.0184   28.2933 H   0  0  0  0  0  0  0  0  0  0  0  0
    7.1732   -5.3364   28.5721 H   0  0  0  0  0  0  0  0  0  0  0  0
    8.7996   -5.0705   26.2577 C   0  0  0  0  0  0  0  0  0  0  0  0
    8.3108   -3.6481   26.5151 C   0  0  0  0  0  0  0  0  0  0  0  0
    8.2005   -3.4437   27.5843 H   0  0  0  0  0  0  0  0  0  0  0  0
    9.0583   -2.9481   26.1352 H   0  0  0  0  0  0  0  0  0  0  0  0
    9.7349   -5.2419   26.8013 H   0  0  0  0  0  0  0  0  0  0  0  0
    9.0357   -5.1554   25.1884 H   0  0  0  0  0  0  0  0  0  0  0  0
    8.1870   -7.0874   26.2561 H   0  0  0  0  0  0  0  0  0  0  0  0
    6.7007   -5.9183   24.7273 H   0  0  0  0  0  0  0  0  0  0  0  0
    5.7129   -6.5986   26.0210 H   0  0  0  0  0  0  0  0  0  0  0  0
    5.0722   -4.2524   25.4270 H   0  0  0  0  0  0  0  0  0  0  0  0
    5.5862   -4.3458   27.1097 H   0  0  0  0  0  0  0  0  0  0  0  0
    6.5931   -2.4862   26.2390 H   0  0  0  0  0  0  0  0  0  0  0  0
    7.7598   -3.7852   23.8642 H   0  0  0  0  0  0  0  0  0  0  0  0
    6.1685   -3.0191   23.8583 H   0  0  0  0  0  0  0  0  0  0  0  0
    8.7627   -1.5830   24.6983 H   0  0  0  0  0  0  0  0  0  0  0  0
    7.1258   -0.9139   24.7366 H   0  0  0  0  0  0  0  0  0  0  0  0
    9.9104   -3.1363   22.7354 H   0  0  0  0  0  0  0  0  0  0  0  0
   10.2392   -2.7199   21.0541 H   0  0  0  0  0  0  0  0  0  0  0  0
   12.1836   -2.0977   22.4462 H   0  0  0  0  0  0  0  0  0  0  0  0
   11.1592   -1.1104   23.5093 H   0  0  0  0  0  0  0  0  0  0  0  0
   11.4325   -0.6152   21.8298 H   0  0  0  0  0  0  0  0  0  0  0  0
  1  2  1  0
  2  3  1  0
  3  4  1  0
  4  5  2  0
  5  6  1  0
  6  7  2  0
  7  8  1  0
  8  9  2  0
  9 10  1  0
 10 11  2  0
 11 12  1  0
  9 13  1  0
  8 14  1  0
  7 15  1  0
  5 16  1  0
 16 17  2  0
 17 18  1  0
 18 19  1  0
 19 20  1  0
 20 21  1  0
 21 22  1  0
 22 23  1  0
 23 24  1  0
 24 25  1  0
 24 26  1  0
 24 27  1  0
 23 28  1  0
 28 29  1  0
 29 30  1  0
 29 31  1  0
 28 32  1  0
 28 33  1  0
 23 34  1  0
 22 35  1  0
 22 36  1  0
 21 37  1  0
 21 38  1  0
 20 39  1  0
 19 40  1  0
 19 41  1  0
 18 42  1  0
 18 43  1  0
  2 44  1  0
  2 45  1  0
  1 46  1  0
  1 47  1  0
  1 48  1  0
 17  3  1  0
 29 20  1  0
 11  6  1  0
M  CHG  1  20   1
M  END
>  <cnnaffinity>  (1) 
-5.31875

>  <filename>  (1) 
CCn1nc(-c2cccnc2)nc1CC[NH+]1CCC(C)CC1

$$$$
