
     RDKit          3D

 43 46  0  0  0  0  0  0  0  0999 V2000
    4.9705    1.8313   16.8976 H   0  0  0  0  0  0  0  0  0  0  0  0
    5.4175    1.3215   17.7468 C   0  0  0  0  0  0  0  0  0  0  0  0
    6.5715    0.6849   17.4976 N   0  0  0  0  0  0  0  0  0  0  0  0
    7.1568    0.0592   18.5218 C   0  0  0  0  0  0  0  0  0  0  0  0
    8.0933   -0.4552   18.3127 H   0  0  0  0  0  0  0  0  0  0  0  0
    6.6274    0.0424   19.8239 C   0  0  0  0  0  0  0  0  0  0  0  0
    7.3900   -0.6292   20.8851 C   0  0  0  0  0  0  0  0  0  0  0  0
    8.4972   -1.2844   20.6839 N   0  0  0  0  0  0  0  0  0  0  0  0
    9.0054   -1.8298   21.8247 N   0  0  0  0  0  0  0  0  0  0  0  0
    8.2785   -1.5691   22.8745 C   0  0  0  0  0  0  0  0  0  0  0  0
    8.5534   -2.1520   24.2349 C   0  0  0  0  0  0  0  0  0  0  0  0
    8.0775   -3.4798   24.5315 N   0  0  0  0  0  0  0  0  0  0  0  0
    6.6111   -3.6080   24.5955 C   0  0  0  0  0  0  0  0  0  0  0  0
    6.1169   -3.3275   23.6496 H   0  0  0  0  0  0  0  0  0  0  0  0
    6.2363   -2.9279   25.3668 H   0  0  0  0  0  0  0  0  0  0  0  0
    6.2240   -5.0462   24.9866 C   0  0  0  0  0  0  0  0  0  0  0  0
    6.6074   -5.2346   25.9992 H   0  0  0  0  0  0  0  0  0  0  0  0
    5.1328   -5.1606   25.0199 H   0  0  0  0  0  0  0  0  0  0  0  0
    6.8143   -6.0626   24.1103 N   0  0  0  0  0  0  0  0  0  0  0  0
    6.2087   -6.1936   22.7882 C   0  0  0  0  0  0  0  0  0  0  0  0
    6.0077   -5.2245   22.2888 H   0  0  0  0  0  0  0  0  0  0  0  0
    6.9159   -6.7173   22.1297 H   0  0  0  0  0  0  0  0  0  0  0  0
    4.9402   -7.0238   22.9147 C   0  0  0  0  0  0  0  0  0  0  0  0
    4.3543   -6.7037   23.7806 H   0  0  0  0  0  0  0  0  0  0  0  0
    4.3190   -6.9554   22.0180 H   0  0  0  0  0  0  0  0  0  0  0  0
    5.2115   -8.0678   23.0889 H   0  0  0  0  0  0  0  0  0  0  0  0
    8.2688   -5.9127   24.1407 C   0  0  0  0  0  0  0  0  0  0  0  0
    8.7391   -6.6874   23.5184 H   0  0  0  0  0  0  0  0  0  0  0  0
    8.5939   -6.0810   25.1775 H   0  0  0  0  0  0  0  0  0  0  0  0
    8.7357   -4.5199   23.7146 C   0  0  0  0  0  0  0  0  0  0  0  0
    9.8175   -4.4576   23.8622 H   0  0  0  0  0  0  0  0  0  0  0  0
    8.5547   -4.3650   22.6389 H   0  0  0  0  0  0  0  0  0  0  0  0
    8.6631   -1.2926   25.4686 C   0  0  0  0  0  0  0  0  0  0  0  0
    8.2923   -1.7650   26.3742 H   0  0  0  0  0  0  0  0  0  0  0  0
    8.5149   -0.2213   25.3925 H   0  0  0  0  0  0  0  0  0  0  0  0
    9.8899   -1.8981   24.8634 C   0  0  0  0  0  0  0  0  0  0  0  0
   10.5951   -1.2595   24.3480 H   0  0  0  0  0  0  0  0  0  0  0  0
   10.2863   -2.8006   25.3171 H   0  0  0  0  0  0  0  0  0  0  0  0
    6.8941   -0.5934   22.5465 S   0  0  0  0  0  0  0  0  0  0  0  0
    5.4065    0.6924   20.0668 C   0  0  0  0  0  0  0  0  0  0  0  0
    4.9549    0.6966   21.0610 H   0  0  0  0  0  0  0  0  0  0  0  0
    4.7936    1.3448   18.9972 C   0  0  0  0  0  0  0  0  0  0  0  0
    3.8591    1.8802   19.1249 H   0  0  0  0  0  0  0  0  0  0  0  0
  1  2  1  0
  2  3  2  0
  3  4  1  0
  4  5  1  0
  4  6  2  0
  6  7  1  0
  7  8  2  0
  8  9  1  0
  9 10  2  0
 10 11  1  0
 11 12  1  0
 12 13  1  0
 13 14  1  0
 13 15  1  0
 13 16  1  0
 16 17  1  0
 16 18  1  0
 16 19  1  0
 19 20  1  0
 20 21  1  0
 20 22  1  0
 20 23  1  0
 23 24  1  0
 23 25  1  0
 23 26  1  0
 19 27  1  0
 27 28  1  0
 27 29  1  0
 27 30  1  0
 30 31  1  0
 30 32  1  0
 11 33  1  0
 33 34  1  0
 33 35  1  0
 33 36  1  0
 36 37  1  0
 36 38  1  0
 10 39  1  0
  6 40  1  0
 40 41  1  0
 40 42  2  0
 42 43  1  0
 42  2  1  0
 39  7  1  0
 36 11  1  0
 30 12  1  0
M  END
>  <cnnaffinity>  (1) 
-5.59285

>  <filename>  (1) 
CCN1CCN(C2(c3nnc(-c4cccnc4)s3)CC2)CC1

$$$$
