
     RDKit          3D

 40 43  0  0  0  0  0  0  0  0999 V2000
   10.9685   -1.2573   22.4427 C   0  0  0  0  0  0  0  0  0  0  0  0
    9.8177   -2.2151   22.1623 C   0  0  0  0  0  0  0  0  0  0  0  0
    8.5375   -1.5768   21.8595 N   0  0  0  0  0  0  0  0  0  0  0  0
    8.3874   -1.0050   20.6384 N   0  0  0  0  0  0  0  0  0  0  0  0
    7.1104   -0.6676   20.6155 C   0  0  0  0  0  0  0  0  0  0  0  0
    6.4666    0.0656   19.5264 C   0  0  0  0  0  0  0  0  0  0  0  0
    5.2516    0.7539   19.7015 C   0  0  0  0  0  0  0  0  0  0  0  0
    4.7385    1.4757   18.6266 C   0  0  0  0  0  0  0  0  0  0  0  0
    5.4378    1.4625   17.4140 C   0  0  0  0  0  0  0  0  0  0  0  0
    6.5856    0.7907   17.2319 N   0  0  0  0  0  0  0  0  0  0  0  0
    7.0928    0.1247   18.2742 C   0  0  0  0  0  0  0  0  0  0  0  0
    8.0439   -0.3813   18.1017 H   0  0  0  0  0  0  0  0  0  0  0  0
    5.0602    2.0197   16.5577 H   0  0  0  0  0  0  0  0  0  0  0  0
    3.8308    2.0644   18.7211 H   0  0  0  0  0  0  0  0  0  0  0  0
    4.7368    0.7279   20.6642 H   0  0  0  0  0  0  0  0  0  0  0  0
    6.4304   -1.0078   21.7369 N   0  0  0  0  0  0  0  0  0  0  0  0
    7.3480   -1.5594   22.5053 C   0  0  0  0  0  0  0  0  0  0  0  0
    7.1063   -1.9266   23.9523 C   0  0  0  0  0  0  0  0  0  0  0  0
    7.9278   -1.1660   24.8822 N   0  0  0  0  0  0  0  0  0  0  0  0
    9.1296   -1.5972   25.4242 C   0  0  0  0  0  0  0  0  0  0  0  0
    9.9122   -0.5264   25.7632 C   0  0  0  0  0  0  0  0  0  0  0  0
    9.1659    0.6465   25.4097 C   0  0  0  0  0  0  0  0  0  0  0  0
    9.4633    2.0188   25.4202 C   0  0  0  0  0  0  0  0  0  0  0  0
    8.5265    2.9310   24.9491 C   0  0  0  0  0  0  0  0  0  0  0  0
    7.2590    2.4963   24.4812 C   0  0  0  0  0  0  0  0  0  0  0  0
    6.9442    1.1383   24.4410 C   0  0  0  0  0  0  0  0  0  0  0  0
    7.9275    0.2240   24.8851 C   0  0  0  0  0  0  0  0  0  0  0  0
    5.9996    0.7744   24.0355 H   0  0  0  0  0  0  0  0  0  0  0  0
    6.5280    3.2209   24.1198 H   0  0  0  0  0  0  0  0  0  0  0  0
    8.7832    3.9866   24.9164 H   0  0  0  0  0  0  0  0  0  0  0  0
   10.4387    2.3102   25.7764 H   0  0  0  0  0  0  0  0  0  0  0  0
   10.9357   -0.5123   26.1254 H   0  0  0  0  0  0  0  0  0  0  0  0
    9.3014   -2.6578   25.5765 H   0  0  0  0  0  0  0  0  0  0  0  0
    6.0577   -1.6997   24.1536 H   0  0  0  0  0  0  0  0  0  0  0  0
    7.2533   -2.9970   24.1308 H   0  0  0  0  0  0  0  0  0  0  0  0
   10.0592   -2.8259   21.2894 H   0  0  0  0  0  0  0  0  0  0  0  0
    9.6781   -2.8772   23.0179 H   0  0  0  0  0  0  0  0  0  0  0  0
   11.0838   -0.5457   21.6241 H   0  0  0  0  0  0  0  0  0  0  0  0
   11.9029   -1.8268   22.5104 H   0  0  0  0  0  0  0  0  0  0  0  0
   10.8328   -0.6968   23.3729 H   0  0  0  0  0  0  0  0  0  0  0  0
  1  2  1  0
  2  3  1  0
  3  4  1  0
  4  5  2  0
  5  6  1  0
  6  7  2  0
  7  8  1  0
  8  9  2  0
  9 10  1  0
 10 11  2  0
 11 12  1  0
  9 13  1  0
  8 14  1  0
  7 15  1  0
  5 16  1  0
 16 17  2  0
 17 18  1  0
 18 19  1  0
 19 20  1  0
 20 21  2  0
 21 22  1  0
 22 23  2  0
 23 24  1  0
 24 25  2  0
 25 26  1  0
 26 27  2  0
 26 28  1  0
 25 29  1  0
 24 30  1  0
 23 31  1  0
 21 32  1  0
 20 33  1  0
 18 34  1  0
 18 35  1  0
  2 36  1  0
  2 37  1  0
  1 38  1  0
  1 39  1  0
  1 40  1  0
 17  3  1  0
 27 19  1  0
 11  6  1  0
 27 22  1  0
M  END
>  <cnnaffinity>  (1) 
-5.55226

>  <filename>  (1) 
CCn1nc(-c2cccnc2)nc1Cn1ccc2ccccc21

$$$$
