
     RDKit          3D

 44 47  0  0  0  0  0  0  0  0999 V2000
   11.1658   -1.3327   22.6422 C   0  0  0  0  0  0  0  0  0  0  0  0
   10.1115   -2.3094   22.1427 C   0  0  0  0  0  0  0  0  0  0  0  0
    8.7820   -1.7400   21.9732 N   0  0  0  0  0  0  0  0  0  0  0  0
    8.4809   -1.2329   20.7563 N   0  0  0  0  0  0  0  0  0  0  0  0
    7.2600   -0.7605   20.9180 C   0  0  0  0  0  0  0  0  0  0  0  0
    6.5583   -0.0384   19.8644 C   0  0  0  0  0  0  0  0  0  0  0  0
    5.3483    0.6406   20.0792 C   0  0  0  0  0  0  0  0  0  0  0  0
    4.7867    1.3206   19.0012 C   0  0  0  0  0  0  0  0  0  0  0  0
    5.4534    1.3030   17.7700 C   0  0  0  0  0  0  0  0  0  0  0  0
    6.6134    0.6622   17.5596 N   0  0  0  0  0  0  0  0  0  0  0  0
    7.1513    0.0146   18.5957 C   0  0  0  0  0  0  0  0  0  0  0  0
    8.1015   -0.4875   18.4163 H   0  0  0  0  0  0  0  0  0  0  0  0
    5.0432    1.8248   16.9110 H   0  0  0  0  0  0  0  0  0  0  0  0
    3.8621    1.8762   19.1038 H   0  0  0  0  0  0  0  0  0  0  0  0
    4.8756    0.6409   21.0632 H   0  0  0  0  0  0  0  0  0  0  0  0
    6.7544   -0.9474   22.1577 N   0  0  0  0  0  0  0  0  0  0  0  0
    7.7319   -1.5571   22.8093 C   0  0  0  0  0  0  0  0  0  0  0  0
    7.6479   -1.9057   24.2653 C   0  0  0  0  0  0  0  0  0  0  0  0
    7.4816   -0.6495   25.1556 C   0  0  0  0  0  0  0  0  0  0  0  0
    8.6868    0.2567   25.0815 C   0  0  0  0  0  0  0  0  0  0  0  0
    9.8006    0.0637   25.8236 C   0  0  0  0  0  0  0  0  0  0  0  0
   10.8381    1.0966   25.5425 C   0  0  0  0  0  0  0  0  0  0  0  0
   10.1987    1.9139   24.4481 C   0  0  0  0  0  0  0  0  0  0  0  0
   10.6688    3.0528   23.8054 C   0  0  0  0  0  0  0  0  0  0  0  0
    9.8311    3.7187   22.9083 C   0  0  0  0  0  0  0  0  0  0  0  0
    8.5462    3.2207   22.6341 C   0  0  0  0  0  0  0  0  0  0  0  0
    8.0723    2.0737   23.2700 C   0  0  0  0  0  0  0  0  0  0  0  0
    8.8974    1.4155   24.2024 C   0  0  0  0  0  0  0  0  0  0  0  0
    7.0688    1.7052   23.0734 H   0  0  0  0  0  0  0  0  0  0  0  0
    7.9133    3.7619   21.9349 H   0  0  0  0  0  0  0  0  0  0  0  0
   10.1657    4.6457   22.4467 H   0  0  0  0  0  0  0  0  0  0  0  0
   11.6636    3.4326   24.0282 H   0  0  0  0  0  0  0  0  0  0  0  0
   10.9482    1.7278   26.4298 H   0  0  0  0  0  0  0  0  0  0  0  0
   11.8302    0.6861   25.2890 H   0  0  0  0  0  0  0  0  0  0  0  0
    9.9081   -0.7098   26.5780 H   0  0  0  0  0  0  0  0  0  0  0  0
    7.3544   -0.9712   26.1993 H   0  0  0  0  0  0  0  0  0  0  0  0
    6.5669   -0.1078   24.8778 H   0  0  0  0  0  0  0  0  0  0  0  0
    6.7974   -2.5813   24.4164 H   0  0  0  0  0  0  0  0  0  0  0  0
    8.5469   -2.4567   24.5648 H   0  0  0  0  0  0  0  0  0  0  0  0
   10.3733   -2.6417   21.1383 H   0  0  0  0  0  0  0  0  0  0  0  0
   10.0482   -3.1866   22.7961 H   0  0  0  0  0  0  0  0  0  0  0  0
   11.1829   -0.4180   22.0441 H   0  0  0  0  0  0  0  0  0  0  0  0
   10.9991   -1.0570   23.6861 H   0  0  0  0  0  0  0  0  0  0  0  0
   12.1511   -1.7986   22.5498 H   0  0  0  0  0  0  0  0  0  0  0  0
  1  2  1  0
  2  3  1  0
  3  4  1  0
  4  5  2  0
  5  6  1  0
  6  7  2  0
  7  8  1  0
  8  9  2  0
  9 10  1  0
 10 11  2  0
 11 12  1  0
  9 13  1  0
  8 14  1  0
  7 15  1  0
  5 16  1  0
 16 17  2  0
 17 18  1  0
 18 19  1  0
 19 20  1  0
 20 21  2  0
 21 22  1  0
 22 23  1  0
 23 24  2  0
 24 25  1  0
 25 26  2  0
 26 27  1  0
 27 28  2  0
 27 29  1  0
 26 30  1  0
 25 31  1  0
 24 32  1  0
 22 33  1  0
 22 34  1  0
 21 35  1  0
 19 36  1  0
 19 37  1  0
 18 38  1  0
 18 39  1  0
  2 40  1  0
  2 41  1  0
  1 42  1  0
  1 43  1  0
  1 44  1  0
 17  3  1  0
 28 20  1  0
 11  6  1  0
 28 23  1  0
M  END
>  <cnnaffinity>  (1) 
-6.02098

>  <filename>  (1) 
CCn1nc(-c2cccnc2)nc1CCC1=CCc2ccccc21

$$$$
