
     RDKit          3D

 43 46  0  0  0  0  0  0  0  0999 V2000
   11.2313   -1.6006   22.5666 C   0  0  0  0  0  0  0  0  0  0  0  0
   10.0401   -2.4600   22.1661 C   0  0  0  0  0  0  0  0  0  0  0  0
    8.7756   -1.7557   22.0093 N   0  0  0  0  0  0  0  0  0  0  0  0
    8.4750   -1.2611   20.7917 N   0  0  0  0  0  0  0  0  0  0  0  0
    7.3190   -0.6631   20.9909 C   0  0  0  0  0  0  0  0  0  0  0  0
    6.6102    0.0190   19.9158 C   0  0  0  0  0  0  0  0  0  0  0  0
    5.3952    0.6773   20.1362 C   0  0  0  0  0  0  0  0  0  0  0  0
    4.7963    1.3214   19.0599 C   0  0  0  0  0  0  0  0  0  0  0  0
    5.4309    1.2892   17.8114 C   0  0  0  0  0  0  0  0  0  0  0  0
    6.5922    0.6520   17.5877 N   0  0  0  0  0  0  0  0  0  0  0  0
    7.1665    0.0353   18.6258 C   0  0  0  0  0  0  0  0  0  0  0  0
    8.1146   -0.4644   18.4241 H   0  0  0  0  0  0  0  0  0  0  0  0
    4.9860    1.7941   16.9562 H   0  0  0  0  0  0  0  0  0  0  0  0
    3.8624    1.8568   19.1833 H   0  0  0  0  0  0  0  0  0  0  0  0
    4.9615    0.6860   21.1390 H   0  0  0  0  0  0  0  0  0  0  0  0
    6.8582   -0.7457   22.2655 N   0  0  0  0  0  0  0  0  0  0  0  0
    7.7892   -1.4511   22.8797 C   0  0  0  0  0  0  0  0  0  0  0  0
    7.7766   -1.9324   24.2990 C   0  0  0  0  0  0  0  0  0  0  0  0
    7.2310   -3.3512   24.5244 C   0  0  0  0  0  0  0  0  0  0  0  0
    7.8115   -4.0667   25.7060 C   0  0  0  0  0  0  0  0  0  0  0  0
    7.2790   -3.8942   26.9911 C   0  0  0  0  0  0  0  0  0  0  0  0
    7.7567   -4.6453   28.0592 C   0  0  0  0  0  0  0  0  0  0  0  0
    8.8467   -5.5034   27.8908 C   0  0  0  0  0  0  0  0  0  0  0  0
    9.4340   -5.6349   26.6278 C   0  0  0  0  0  0  0  0  0  0  0  0
    8.8975   -4.9460   25.5419 C   0  0  0  0  0  0  0  0  0  0  0  0
    9.3025   -5.1006   24.5437 H   0  0  0  0  0  0  0  0  0  0  0  0
   10.3027   -6.2746   26.4900 H   0  0  0  0  0  0  0  0  0  0  0  0
    9.2223   -6.0610   28.7392 H   0  0  0  0  0  0  0  0  0  0  0  0
    7.2624   -4.5705   29.0189 H   0  0  0  0  0  0  0  0  0  0  0  0
    6.4771   -3.1763   27.1468 H   0  0  0  0  0  0  0  0  0  0  0  0
    5.7694   -3.5424   24.2325 C   0  0  0  0  0  0  0  0  0  0  0  0
    6.7958   -4.2232   23.3749 C   0  0  0  0  0  0  0  0  0  0  0  0
    6.9320   -5.2954   23.5110 H   0  0  0  0  0  0  0  0  0  0  0  0
    6.9427   -3.8523   22.3641 H   0  0  0  0  0  0  0  0  0  0  0  0
    5.1763   -4.1334   24.9305 H   0  0  0  0  0  0  0  0  0  0  0  0
    5.2600   -2.6976   23.7856 H   0  0  0  0  0  0  0  0  0  0  0  0
    8.7858   -1.8547   24.7115 H   0  0  0  0  0  0  0  0  0  0  0  0
    7.1685   -1.2356   24.8812 H   0  0  0  0  0  0  0  0  0  0  0  0
    9.8877   -3.2875   22.8629 H   0  0  0  0  0  0  0  0  0  0  0  0
   10.2204   -2.8759   21.1812 H   0  0  0  0  0  0  0  0  0  0  0  0
   11.4327   -0.8295   21.8170 H   0  0  0  0  0  0  0  0  0  0  0  0
   12.1111   -2.2492   22.6327 H   0  0  0  0  0  0  0  0  0  0  0  0
   11.0679   -1.1159   23.5338 H   0  0  0  0  0  0  0  0  0  0  0  0
  1  2  1  0
  2  3  1  0
  3  4  1  0
  4  5  2  0
  5  6  1  0
  6  7  2  0
  7  8  1  0
  8  9  2  0
  9 10  1  0
 10 11  2  0
 11 12  1  0
  9 13  1  0
  8 14  1  0
  7 15  1  0
  5 16  1  0
 16 17  2  0
 17 18  1  0
 18 19  1  0
 19 20  1  0
 20 21  2  0
 21 22  1  0
 22 23  2  0
 23 24  1  0
 24 25  2  0
 25 26  1  0
 24 27  1  0
 23 28  1  0
 22 29  1  0
 21 30  1  0
 19 31  1  0
 31 32  1  0
 32 33  1  0
 32 34  1  0
 31 35  1  0
 31 36  1  0
 18 37  1  0
 18 38  1  0
  2 39  1  0
  2 40  1  0
  1 41  1  0
  1 42  1  0
  1 43  1  0
 17  3  1  0
 32 19  1  0
 11  6  1  0
 25 20  1  0
M  END
>  <cnnaffinity>  (1) 
-5.89471

>  <filename>  (1) 
CCn1nc(-c2cccnc2)nc1CC1(c2ccccc2)CC1

$$$$
