
     RDKit          3D

 42 44  0  0  0  0  0  0  0  0999 V2000
    5.1029    1.9835   16.7514 H   0  0  0  0  0  0  0  0  0  0  0  0
    5.4114    1.3881   17.6070 C   0  0  0  0  0  0  0  0  0  0  0  0
    6.6453    0.8579   17.5457 N   0  0  0  0  0  0  0  0  0  0  0  0
    7.0736    0.1695   18.6103 C   0  0  0  0  0  0  0  0  0  0  0  0
    8.0763   -0.2458   18.5567 H   0  0  0  0  0  0  0  0  0  0  0  0
    6.2804   -0.0604   19.7509 C   0  0  0  0  0  0  0  0  0  0  0  0
    6.8331   -0.7320   20.8802 N   0  0  0  0  0  0  0  0  0  0  0  0
    8.0815   -0.2211   21.2693 N   0  0  0  0  0  0  0  0  0  0  0  0
    8.5100   -0.5504   22.4445 C   0  0  0  0  0  0  0  0  0  0  0  0
    9.7998   -0.2445   22.8410 N   0  0  0  0  0  0  0  0  0  0  0  0
   10.6524   -1.3818   23.2704 C   0  0  0  0  0  0  0  0  0  0  0  0
   10.0651   -2.2952   23.3976 H   0  0  0  0  0  0  0  0  0  0  0  0
   11.0711   -1.1254   24.2495 H   0  0  0  0  0  0  0  0  0  0  0  0
   11.7704   -1.6795   22.2486 C   0  0  0  0  0  0  0  0  0  0  0  0
   12.3634   -2.5316   22.6067 H   0  0  0  0  0  0  0  0  0  0  0  0
   11.2820   -2.0151   21.3118 H   0  0  0  0  0  0  0  0  0  0  0  0
   12.6145   -0.5114   22.0275 N   0  0  0  0  0  0  0  0  0  0  0  0
   14.0269   -0.7001   21.8096 C   0  0  0  0  0  0  0  0  0  0  0  0
   14.5208   -1.1232   22.7036 H   0  0  0  0  0  0  0  0  0  0  0  0
   14.4933    0.2817   21.6649 H   0  0  0  0  0  0  0  0  0  0  0  0
   14.2862   -1.5823   20.5752 C   0  0  0  0  0  0  0  0  0  0  0  0
   15.2204   -1.3282   20.0699 H   0  0  0  0  0  0  0  0  0  0  0  0
   14.3219   -2.6483   20.8228 H   0  0  0  0  0  0  0  0  0  0  0  0
   13.4771   -1.4413   19.8517 H   0  0  0  0  0  0  0  0  0  0  0  0
   12.0301    0.7906   22.3377 C   0  0  0  0  0  0  0  0  0  0  0  0
   12.1764    1.0839   23.3952 H   0  0  0  0  0  0  0  0  0  0  0  0
   12.5056    1.5689   21.7233 H   0  0  0  0  0  0  0  0  0  0  0  0
   10.5178    0.7758   22.0292 C   0  0  0  0  0  0  0  0  0  0  0  0
   10.3850    0.5675   20.9580 H   0  0  0  0  0  0  0  0  0  0  0  0
   10.0763    1.7548   22.2420 H   0  0  0  0  0  0  0  0  0  0  0  0
    7.6066   -1.2771   23.4286 C   0  0  0  0  0  0  0  0  0  0  0  0
    6.9044   -0.5369   23.8393 H   0  0  0  0  0  0  0  0  0  0  0  0
    8.1793   -1.6526   24.2830 H   0  0  0  0  0  0  0  0  0  0  0  0
    6.8207   -2.3904   22.7048 C   0  0  0  0  0  0  0  0  0  0  0  0
    7.4239   -3.2931   22.5429 H   0  0  0  0  0  0  0  0  0  0  0  0
    5.9424   -2.7029   23.2744 H   0  0  0  0  0  0  0  0  0  0  0  0
    6.3086   -1.9728   21.3269 C   0  0  0  0  0  0  0  0  0  0  0  0
    5.5350   -2.6581   20.6879 O   0  0  0  0  0  0  0  0  0  0  0  0
    4.9824    0.4556   19.7904 C   0  0  0  0  0  0  0  0  0  0  0  0
    4.3486    0.2839   20.6602 H   0  0  0  0  0  0  0  0  0  0  0  0
    4.5483    1.2129   18.6957 C   0  0  0  0  0  0  0  0  0  0  0  0
    3.5660    1.6718   18.6770 H   0  0  0  0  0  0  0  0  0  0  0  0
  1  2  1  0
  2  3  2  0
  3  4  1  0
  4  5  1  0
  4  6  2  0
  6  7  1  0
  7  8  1  0
  8  9  2  0
  9 10  1  0
 10 11  1  0
 11 12  1  0
 11 13  1  0
 11 14  1  0
 14 15  1  0
 14 16  1  0
 14 17  1  0
 17 18  1  0
 18 19  1  0
 18 20  1  0
 18 21  1  0
 21 22  1  0
 21 23  1  0
 21 24  1  0
 17 25  1  0
 25 26  1  0
 25 27  1  0
 25 28  1  0
 28 29  1  0
 28 30  1  0
  9 31  1  0
 31 32  1  0
 31 33  1  0
 31 34  1  0
 34 35  1  0
 34 36  1  0
 34 37  1  0
 37 38  2  0
  6 39  1  0
 39 40  1  0
 39 41  2  0
 41 42  1  0
 41  2  1  0
 37  7  1  0
 28 10  1  0
M  END
>  <cnnaffinity>  (1) 
-5.40962

>  <filename>  (1) 
CCN1CCN(C2=NN(c3cccnc3)C(=O)CC2)CC1

$$$$
