
     RDKit          3D

 51 54  0  0  0  0  0  0  0  0999 V2000
   10.0921   -0.1102   25.1601 C   0  0  0  0  0  0  0  0  0  0  0  0
   10.3515    1.3639   25.4638 C   0  0  0  0  0  0  0  0  0  0  0  0
    9.1713    2.2157   25.3719 N   0  0  0  0  0  0  0  0  0  0  0  0
    8.1072    2.0734   26.2348 C   0  0  0  0  0  0  0  0  0  0  0  0
    8.1102    1.4617   27.2852 O   0  0  0  0  0  0  0  0  0  0  0  0
    6.9308    2.8161   25.6252 C   0  0  0  0  0  0  0  0  0  0  0  0
    7.5456    3.6663   24.5088 C   0  0  0  0  0  0  0  0  0  0  0  0
    8.8181    2.8903   24.1057 C   0  0  0  0  0  0  0  0  0  0  0  0
    8.6493    1.9461   22.9169 C   0  0  0  0  0  0  0  0  0  0  0  0
    7.5761    1.2360   22.5949 N   0  0  0  0  0  0  0  0  0  0  0  0
    8.0253    0.4175   21.6073 C   0  0  0  0  0  0  0  0  0  0  0  0
    7.2030   -0.6254   20.9026 C   0  0  0  0  0  0  0  0  0  0  0  0
    6.4658   -0.0461   19.7088 C   0  0  0  0  0  0  0  0  0  0  0  0
    5.3055    0.7089   19.9133 C   0  0  0  0  0  0  0  0  0  0  0  0
    4.7434    1.3876   18.8302 C   0  0  0  0  0  0  0  0  0  0  0  0
    5.3609    1.2768   17.5806 C   0  0  0  0  0  0  0  0  0  0  0  0
    6.4447    0.5200   17.3529 N   0  0  0  0  0  0  0  0  0  0  0  0
    6.9716   -0.1257   18.4009 C   0  0  0  0  0  0  0  0  0  0  0  0
    7.8503   -0.7392   18.1928 H   0  0  0  0  0  0  0  0  0  0  0  0
    4.9678    1.8120   16.7183 H   0  0  0  0  0  0  0  0  0  0  0  0
    3.8673    2.0155   18.9451 H   0  0  0  0  0  0  0  0  0  0  0  0
    4.8746    0.7701   20.9152 H   0  0  0  0  0  0  0  0  0  0  0  0
    6.5017   -1.0438   21.6288 H   0  0  0  0  0  0  0  0  0  0  0  0
    7.8780   -1.4328   20.5966 H   0  0  0  0  0  0  0  0  0  0  0  0
    9.2851    0.5873   21.2777 N   0  0  0  0  0  0  0  0  0  0  0  0
    9.6921    1.5885   22.1069 N   0  0  0  0  0  0  0  0  0  0  0  0
   11.0849    1.8450   22.2360 C   0  0  0  0  0  0  0  0  0  0  0  0
   11.9287    0.7297   22.2879 C   0  0  0  0  0  0  0  0  0  0  0  0
   13.2890    0.8916   22.5427 C   0  0  0  0  0  0  0  0  0  0  0  0
   14.3504   -0.5028   22.8451 S   0  0  0  0  0  0  0  0  0  0  0  0
   13.9097   -1.6370   21.5003 C   0  0  0  0  0  0  0  0  0  0  0  0
   14.1529   -2.6572   21.8084 H   0  0  0  0  0  0  0  0  0  0  0  0
   14.4770   -1.3812   20.6068 H   0  0  0  0  0  0  0  0  0  0  0  0
   12.8440   -1.6203   21.2576 H   0  0  0  0  0  0  0  0  0  0  0  0
   13.8182    2.1867   22.6266 C   0  0  0  0  0  0  0  0  0  0  0  0
   12.9884    3.3078   22.5041 C   0  0  0  0  0  0  0  0  0  0  0  0
   11.6113    3.1407   22.3154 C   0  0  0  0  0  0  0  0  0  0  0  0
   10.9518    3.9940   22.1954 H   0  0  0  0  0  0  0  0  0  0  0  0
   13.3998    4.3120   22.5340 H   0  0  0  0  0  0  0  0  0  0  0  0
   14.8974    2.2867   22.6457 H   0  0  0  0  0  0  0  0  0  0  0  0
   11.5026   -0.2510   22.1063 H   0  0  0  0  0  0  0  0  0  0  0  0
    9.6254    3.5829   23.8506 H   0  0  0  0  0  0  0  0  0  0  0  0
    7.8575    4.6427   24.9031 H   0  0  0  0  0  0  0  0  0  0  0  0
    6.8689    3.8423   23.6645 H   0  0  0  0  0  0  0  0  0  0  0  0
    6.4150    3.3892   26.3967 H   0  0  0  0  0  0  0  0  0  0  0  0
    6.2352    2.0643   25.2404 H   0  0  0  0  0  0  0  0  0  0  0  0
   10.7675    1.4703   26.4646 H   0  0  0  0  0  0  0  0  0  0  0  0
   11.1062    1.7756   24.7844 H   0  0  0  0  0  0  0  0  0  0  0  0
    9.4063   -0.5327   25.9027 H   0  0  0  0  0  0  0  0  0  0  0  0
    9.6479   -0.2346   24.1662 H   0  0  0  0  0  0  0  0  0  0  0  0
   11.0357   -0.6677   25.1844 H   0  0  0  0  0  0  0  0  0  0  0  0
  1  2  1  0
  2  3  1  0
  3  4  1  0
  4  5  2  0
  4  6  1  0
  6  7  1  0
  7  8  1  0
  8  9  1  0
  9 10  2  0
 10 11  1  0
 11 12  1  0
 12 13  1  0
 13 14  2  0
 14 15  1  0
 15 16  2  0
 16 17  1  0
 17 18  2  0
 18 19  1  0
 16 20  1  0
 15 21  1  0
 14 22  1  0
 12 23  1  0
 12 24  1  0
 11 25  2  0
 25 26  1  0
 26 27  1  0
 27 28  2  0
 28 29  1  0
 29 30  1  0
 30 31  1  0
 31 32  1  0
 31 33  1  0
 31 34  1  0
 29 35  2  0
 35 36  1  0
 36 37  2  0
 37 38  1  0
 36 39  1  0
 35 40  1  0
 28 41  1  0
  8 42  1  0
  7 43  1  0
  7 44  1  0
  6 45  1  0
  6 46  1  0
  2 47  1  0
  2 48  1  0
  1 49  1  0
  1 50  1  0
  1 51  1  0
  8  3  1  0
 26  9  1  0
 37 27  1  0
 18 13  1  0
M  END
>  <cnnaffinity>  (1) 
-6.51188

>  <filename>  (1) 
CCN1C(=O)CCC1c1nc(Cc2cccnc2)nn1-c1cccc(SC)c1

$$$$
