
     RDKit          3D

 40 42  0  0  0  0  0  0  0  0999 V2000
    4.9107    1.7836   16.9948 H   0  0  0  0  0  0  0  0  0  0  0  0
    5.3998    1.2971   17.8358 C   0  0  0  0  0  0  0  0  0  0  0  0
    6.5637    0.6795   17.5763 N   0  0  0  0  0  0  0  0  0  0  0  0
    7.1717    0.0605   18.5991 C   0  0  0  0  0  0  0  0  0  0  0  0
    8.1191   -0.4268   18.3762 H   0  0  0  0  0  0  0  0  0  0  0  0
    6.6737    0.0186   19.9261 C   0  0  0  0  0  0  0  0  0  0  0  0
    7.3732   -0.6480   20.9654 N   0  0  0  0  0  0  0  0  0  0  0  0
    7.3665   -0.3756   22.3431 C   0  0  0  0  0  0  0  0  0  0  0  0
    6.9972    0.8831   22.7695 N   0  0  0  0  0  0  0  0  0  0  0  0
    6.4353    1.0394   24.1153 C   0  0  0  0  0  0  0  0  0  0  0  0
    5.8325    0.1598   24.3515 H   0  0  0  0  0  0  0  0  0  0  0  0
    7.2110    1.1116   24.8930 H   0  0  0  0  0  0  0  0  0  0  0  0
    5.5449    2.2900   24.1832 C   0  0  0  0  0  0  0  0  0  0  0  0
    4.6573    2.1197   23.5419 H   0  0  0  0  0  0  0  0  0  0  0  0
    5.1659    2.4080   25.2034 H   0  0  0  0  0  0  0  0  0  0  0  0
    6.2679    3.5027   23.7705 N   0  0  0  0  0  0  0  0  0  0  0  0
    5.4544    4.7116   23.9070 C   0  0  0  0  0  0  0  0  0  0  0  0
    5.8653    5.4941   23.2567 H   0  0  0  0  0  0  0  0  0  0  0  0
    4.4149    4.5447   23.5604 H   0  0  0  0  0  0  0  0  0  0  0  0
    5.4552    5.2332   25.3368 C   0  0  0  0  0  0  0  0  0  0  0  0
    6.4831    5.3541   25.6902 H   0  0  0  0  0  0  0  0  0  0  0  0
    4.9516    6.2037   25.3889 H   0  0  0  0  0  0  0  0  0  0  0  0
    4.9400    4.5476   26.0166 H   0  0  0  0  0  0  0  0  0  0  0  0
    6.7576    3.3109   22.3973 C   0  0  0  0  0  0  0  0  0  0  0  0
    7.3156    4.2052   22.0941 H   0  0  0  0  0  0  0  0  0  0  0  0
    5.9245    3.1878   21.6773 H   0  0  0  0  0  0  0  0  0  0  0  0
    7.6822    2.0908   22.2803 C   0  0  0  0  0  0  0  0  0  0  0  0
    7.9685    1.9696   21.2323 H   0  0  0  0  0  0  0  0  0  0  0  0
    8.6030    2.3081   22.8493 H   0  0  0  0  0  0  0  0  0  0  0  0
    7.7069   -1.3402   23.1117 N   0  0  0  0  0  0  0  0  0  0  0  0
    8.0386   -2.4768   22.2587 C   0  0  0  0  0  0  0  0  0  0  0  0
    7.3901   -3.3274   22.4960 H   0  0  0  0  0  0  0  0  0  0  0  0
    9.0693   -2.8115   22.4239 H   0  0  0  0  0  0  0  0  0  0  0  0
    7.8403   -2.0209   20.8005 C   0  0  0  0  0  0  0  0  0  0  0  0
    8.7747   -2.0452   20.2245 H   0  0  0  0  0  0  0  0  0  0  0  0
    7.0995   -2.6363   20.2689 H   0  0  0  0  0  0  0  0  0  0  0  0
    5.4482    0.6607   20.1660 C   0  0  0  0  0  0  0  0  0  0  0  0
    5.0214    0.6262   21.1679 H   0  0  0  0  0  0  0  0  0  0  0  0
    4.8096    1.3120   19.1053 C   0  0  0  0  0  0  0  0  0  0  0  0
    3.8743    1.8404   19.2580 H   0  0  0  0  0  0  0  0  0  0  0  0
  1  2  1  0
  2  3  2  0
  3  4  1  0
  4  5  1  0
  4  6  2  0
  6  7  1  0
  7  8  1  0
  8  9  1  0
  9 10  1  0
 10 11  1  0
 10 12  1  0
 10 13  1  0
 13 14  1  0
 13 15  1  0
 13 16  1  0
 16 17  1  0
 17 18  1  0
 17 19  1  0
 17 20  1  0
 20 21  1  0
 20 22  1  0
 20 23  1  0
 16 24  1  0
 24 25  1  0
 24 26  1  0
 24 27  1  0
 27 28  1  0
 27 29  1  0
  8 30  2  0
 30 31  1  0
 31 32  1  0
 31 33  1  0
 31 34  1  0
 34 35  1  0
 34 36  1  0
  6 37  1  0
 37 38  1  0
 37 39  2  0
 39 40  1  0
 39  2  1  0
 34  7  1  0
 27  9  1  0
M  END
>  <cnnaffinity>  (1) 
-4.68453

>  <filename>  (1) 
CCN1CCN(C2=NCCN2c2cccnc2)CC1

$$$$
