
     RDKit          3D

 38 41  0  0  0  0  0  0  0  0999 V2000
   11.2960   -1.6204   22.3965 C   0  0  0  0  0  0  0  0  0  0  0  0
   10.0424   -2.4540   22.1759 C   0  0  0  0  0  0  0  0  0  0  0  0
    8.8175   -1.6851   22.0181 N   0  0  0  0  0  0  0  0  0  0  0  0
    8.5150   -1.2514   20.7822 N   0  0  0  0  0  0  0  0  0  0  0  0
    7.3521   -0.6628   20.9463 C   0  0  0  0  0  0  0  0  0  0  0  0
    6.6360   -0.0061   19.8727 C   0  0  0  0  0  0  0  0  0  0  0  0
    5.4275    0.6452   20.1329 C   0  0  0  0  0  0  0  0  0  0  0  0
    4.8088    1.3033   19.0784 C   0  0  0  0  0  0  0  0  0  0  0  0
    5.4271    1.2842   17.8211 C   0  0  0  0  0  0  0  0  0  0  0  0
    6.5867    0.6566   17.5658 N   0  0  0  0  0  0  0  0  0  0  0  0
    7.1831    0.0287   18.5826 C   0  0  0  0  0  0  0  0  0  0  0  0
    8.1402   -0.4486   18.3613 H   0  0  0  0  0  0  0  0  0  0  0  0
    4.9633    1.7983   16.9848 H   0  0  0  0  0  0  0  0  0  0  0  0
    3.8780    1.8384   19.2305 H   0  0  0  0  0  0  0  0  0  0  0  0
    5.0289    0.6364   21.1509 H   0  0  0  0  0  0  0  0  0  0  0  0
    6.8759   -0.7087   22.2094 N   0  0  0  0  0  0  0  0  0  0  0  0
    7.8208   -1.3627   22.8747 C   0  0  0  0  0  0  0  0  0  0  0  0
    7.8807   -1.7506   24.3172 C   0  0  0  0  0  0  0  0  0  0  0  0
    9.0388   -1.5223   24.9412 N   0  0  0  0  0  0  0  0  0  0  0  0
    9.0806   -1.6826   26.2832 C   0  0  0  0  0  0  0  0  0  0  0  0
    8.0390   -2.1704   27.0234 C   0  0  0  0  0  0  0  0  0  0  0  0
    6.8019   -2.4876   26.3988 C   0  0  0  0  0  0  0  0  0  0  0  0
    5.6548   -2.9319   27.1194 C   0  0  0  0  0  0  0  0  0  0  0  0
    4.4801   -3.2129   26.4599 C   0  0  0  0  0  0  0  0  0  0  0  0
    4.4071   -3.0980   25.0467 C   0  0  0  0  0  0  0  0  0  0  0  0
    5.5088   -2.7014   24.3256 C   0  0  0  0  0  0  0  0  0  0  0  0
    6.7227   -2.3143   24.9826 C   0  0  0  0  0  0  0  0  0  0  0  0
    5.4613   -2.6283   23.2418 H   0  0  0  0  0  0  0  0  0  0  0  0
    3.4667   -3.3018   24.5381 H   0  0  0  0  0  0  0  0  0  0  0  0
    3.5970   -3.5227   27.0137 H   0  0  0  0  0  0  0  0  0  0  0  0
    5.7136   -3.0267   28.2027 H   0  0  0  0  0  0  0  0  0  0  0  0
    8.1939   -2.3109   28.0709 H   0  0  0  0  0  0  0  0  0  0  0  0
    9.9963   -1.3610   26.7627 H   0  0  0  0  0  0  0  0  0  0  0  0
   10.1149   -2.9816   21.2321 H   0  0  0  0  0  0  0  0  0  0  0  0
    9.8929   -3.1948   22.9619 H   0  0  0  0  0  0  0  0  0  0  0  0
   12.1522   -2.2893   22.5364 H   0  0  0  0  0  0  0  0  0  0  0  0
   11.2028   -0.9844   23.2785 H   0  0  0  0  0  0  0  0  0  0  0  0
   11.4889   -0.9867   21.5259 H   0  0  0  0  0  0  0  0  0  0  0  0
  1  2  1  0
  2  3  1  0
  3  4  1  0
  4  5  2  0
  5  6  1  0
  6  7  2  0
  7  8  1  0
  8  9  2  0
  9 10  1  0
 10 11  2  0
 11 12  1  0
  9 13  1  0
  8 14  1  0
  7 15  1  0
  5 16  1  0
 16 17  2  0
 17 18  1  0
 18 19  2  0
 19 20  1  0
 20 21  2  0
 21 22  1  0
 22 23  2  0
 23 24  1  0
 24 25  2  0
 25 26  1  0
 26 27  2  0
 26 28  1  0
 25 29  1  0
 24 30  1  0
 23 31  1  0
 21 32  1  0
 20 33  1  0
  2 34  1  0
  2 35  1  0
  1 36  1  0
  1 37  1  0
  1 38  1  0
 17  3  1  0
 27 18  1  0
 11  6  1  0
 27 22  1  0
M  END
>  <cnnaffinity>  (1) 
-5.60323

>  <filename>  (1) 
CCn1nc(-c2cccnc2)nc1-c1nccc2ccccc12

$$$$
