
     RDKit          3D

 39 41  0  0  0  0  0  0  0  0999 V2000
   11.2435   -1.5611   22.5699 C   0  0  0  0  0  0  0  0  0  0  0  0
   10.0613   -2.4188   22.1237 C   0  0  0  0  0  0  0  0  0  0  0  0
    8.8019   -1.6992   21.9822 N   0  0  0  0  0  0  0  0  0  0  0  0
    8.4792   -1.2287   20.7583 N   0  0  0  0  0  0  0  0  0  0  0  0
    7.3336   -0.6121   20.9652 C   0  0  0  0  0  0  0  0  0  0  0  0
    6.6070    0.0434   19.8862 C   0  0  0  0  0  0  0  0  0  0  0  0
    5.3858    0.6930   20.1032 C   0  0  0  0  0  0  0  0  0  0  0  0
    4.7869    1.3331   19.0231 C   0  0  0  0  0  0  0  0  0  0  0  0
    5.4245    1.3024   17.7769 C   0  0  0  0  0  0  0  0  0  0  0  0
    6.5829    0.6620   17.5566 N   0  0  0  0  0  0  0  0  0  0  0  0
    7.1540    0.0460   18.5946 C   0  0  0  0  0  0  0  0  0  0  0  0
    8.0934   -0.4696   18.3982 H   0  0  0  0  0  0  0  0  0  0  0  0
    4.9912    1.8122   16.9176 H   0  0  0  0  0  0  0  0  0  0  0  0
    3.8532    1.8702   19.1354 H   0  0  0  0  0  0  0  0  0  0  0  0
    4.9444    0.6976   21.1029 H   0  0  0  0  0  0  0  0  0  0  0  0
    6.8962   -0.6600   22.2462 N   0  0  0  0  0  0  0  0  0  0  0  0
    7.8276   -1.3651   22.8634 C   0  0  0  0  0  0  0  0  0  0  0  0
    7.7587   -1.8566   24.2769 C   0  0  0  0  0  0  0  0  0  0  0  0
    7.0928   -3.2479   24.4144 C   0  0  0  0  0  0  0  0  0  0  0  0
    7.0079   -3.7106   25.8576 C   0  0  0  0  0  0  0  0  0  0  0  0
    5.8582   -3.4307   26.6238 C   0  0  0  0  0  0  0  0  0  0  0  0
    5.6969   -3.9303   27.9182 C   0  0  0  0  0  0  0  0  0  0  0  0
    6.6919   -4.7348   28.4806 C   0  0  0  0  0  0  0  0  0  0  0  0
    7.8835   -4.9555   27.7875 C   0  0  0  0  0  0  0  0  0  0  0  0
    8.0376   -4.4276   26.5004 C   0  0  0  0  0  0  0  0  0  0  0  0
    9.5735   -4.6944   25.6978 Cl  0  0  0  0  0  0  0  0  0  0  0  0
    8.6782   -5.5521   28.2322 H   0  0  0  0  0  0  0  0  0  0  0  0
    6.5548   -5.1571   29.4748 H   0  0  0  0  0  0  0  0  0  0  0  0
    4.7878   -3.7166   28.4758 H   0  0  0  0  0  0  0  0  0  0  0  0
    5.0665   -2.8240   26.1870 H   0  0  0  0  0  0  0  0  0  0  0  0
    7.6491   -3.9764   23.8094 H   0  0  0  0  0  0  0  0  0  0  0  0
    6.0841   -3.2107   23.9816 H   0  0  0  0  0  0  0  0  0  0  0  0
    7.1868   -1.1296   24.8609 H   0  0  0  0  0  0  0  0  0  0  0  0
    8.7622   -1.8874   24.7168 H   0  0  0  0  0  0  0  0  0  0  0  0
   10.2513   -2.7977   21.1193 H   0  0  0  0  0  0  0  0  0  0  0  0
    9.9111   -3.2673   22.8054 H   0  0  0  0  0  0  0  0  0  0  0  0
   12.1405   -2.1902   22.5709 H   0  0  0  0  0  0  0  0  0  0  0  0
   11.0775   -1.1548   23.5752 H   0  0  0  0  0  0  0  0  0  0  0  0
   11.4248   -0.7343   21.8747 H   0  0  0  0  0  0  0  0  0  0  0  0
  1  2  1  0
  2  3  1  0
  3  4  1  0
  4  5  2  0
  5  6  1  0
  6  7  2  0
  7  8  1  0
  8  9  2  0
  9 10  1  0
 10 11  2  0
 11 12  1  0
  9 13  1  0
  8 14  1  0
  7 15  1  0
  5 16  1  0
 16 17  2  0
 17 18  1  0
 18 19  1  0
 19 20  1  0
 20 21  2  0
 21 22  1  0
 22 23  2  0
 23 24  1  0
 24 25  2  0
 25 26  1  0
 24 27  1  0
 23 28  1  0
 22 29  1  0
 21 30  1  0
 19 31  1  0
 19 32  1  0
 18 33  1  0
 18 34  1  0
  2 35  1  0
  2 36  1  0
  1 37  1  0
  1 38  1  0
  1 39  1  0
 17  3  1  0
 25 20  1  0
 11  6  1  0
M  END
>  <cnnaffinity>  (1) 
-5.72983

>  <filename>  (1) 
CCn1nc(-c2cccnc2)nc1CCc1ccccc1Cl

$$$$
