
     RDKit          3D

 30 30  0  0  0  0  0  0  0  0999 V2000
    5.0213    1.8239   16.9792 H   0  0  0  0  0  0  0  0  0  0  0  0
    5.5110    1.2831   17.7863 C   0  0  0  0  0  0  0  0  0  0  0  0
    6.6967    0.7280   17.4872 N   0  0  0  0  0  0  0  0  0  0  0  0
    7.3358    0.0794   18.4632 C   0  0  0  0  0  0  0  0  0  0  0  0
    8.3105   -0.3306   18.1979 H   0  0  0  0  0  0  0  0  0  0  0  0
    6.8166   -0.0974   19.7608 C   0  0  0  0  0  0  0  0  0  0  0  0
    7.6754   -0.8400   20.7551 C   0  0  0  0  0  0  0  0  0  0  0  0
    8.8849   -0.8353   20.5952 O   0  0  0  0  0  0  0  0  0  0  0  0
    7.0562   -1.5750   22.0347 C   0  0  0  0  0  0  0  0  0  0  0  0
    5.7241   -2.1587   21.8061 N   0  0  0  0  0  0  0  0  0  0  0  0
    5.2417   -2.1888   22.7035 H   0  0  0  0  0  0  0  0  0  0  0  0
    5.5762   -3.4055   21.0784 C   0  0  0  0  0  0  0  0  0  0  0  0
    6.3527   -4.1425   21.3361 H   0  0  0  0  0  0  0  0  0  0  0  0
    4.6371   -3.8409   21.4205 H   0  0  0  0  0  0  0  0  0  0  0  0
    5.5406   -3.1827   19.5715 C   0  0  0  0  0  0  0  0  0  0  0  0
    5.3986   -4.1316   19.0429 H   0  0  0  0  0  0  0  0  0  0  0  0
    4.7529   -2.4837   19.2863 H   0  0  0  0  0  0  0  0  0  0  0  0
    6.4570   -2.7153   19.2205 H   0  0  0  0  0  0  0  0  0  0  0  0
    6.8190   -0.5171   23.1272 C   0  0  0  0  0  0  0  0  0  0  0  0
    7.7527   -0.0457   23.4496 H   0  0  0  0  0  0  0  0  0  0  0  0
    6.1346    0.2657   22.7832 H   0  0  0  0  0  0  0  0  0  0  0  0
    6.3610   -0.9817   24.0124 H   0  0  0  0  0  0  0  0  0  0  0  0
    8.0786   -2.6148   22.5580 C   0  0  0  0  0  0  0  0  0  0  0  0
    9.0096   -2.0927   22.7885 H   0  0  0  0  0  0  0  0  0  0  0  0
    8.3095   -3.3832   21.8094 H   0  0  0  0  0  0  0  0  0  0  0  0
    7.7126   -3.1091   23.4682 H   0  0  0  0  0  0  0  0  0  0  0  0
    5.5589    0.4621   20.0478 C   0  0  0  0  0  0  0  0  0  0  0  0
    5.0899    0.3566   21.0272 H   0  0  0  0  0  0  0  0  0  0  0  0
    4.9113    1.1860   19.0459 C   0  0  0  0  0  0  0  0  0  0  0  0
    3.9725    1.6931   19.2368 H   0  0  0  0  0  0  0  0  0  0  0  0
  1  2  1  0
  2  3  2  0
  3  4  1  0
  4  5  1  0
  4  6  2  0
  6  7  1  0
  7  8  2  0
  7  9  1  0
  9 10  1  0
 10 11  1  0
 10 12  1  0
 12 13  1  0
 12 14  1  0
 12 15  1  0
 15 16  1  0
 15 17  1  0
 15 18  1  0
  9 19  1  0
 19 20  1  0
 19 21  1  0
 19 22  1  0
  9 23  1  0
 23 24  1  0
 23 25  1  0
 23 26  1  0
  6 27  1  0
 27 28  1  0
 27 29  2  0
 29 30  1  0
 29  2  1  0
M  END
>  <cnnaffinity>  (1) 
-3.61363

>  <filename>  (1) 
CCNC(C)(C)C(=O)c1cccnc1

$$$$
