
     RDKit          3D

 29 30  0  0  0  0  0  0  0  0999 V2000
    9.0518   -3.0416   22.0177 H   0  0  0  0  0  0  0  0  0  0  0  0
    8.5042   -2.1091   21.9929 C   0  0  0  0  0  0  0  0  0  0  0  0
    8.2522   -1.2861   22.9569 N   0  0  0  0  0  0  0  0  0  0  0  0
    7.5118   -0.3110   22.3539 C   0  0  0  0  0  0  0  0  0  0  0  0
    7.1114    0.8179   23.0237 N   0  0  0  0  0  0  0  0  0  0  0  0
    6.8664    1.6089   22.4602 H   0  0  0  0  0  0  0  0  0  0  0  0
    7.0984    0.9149   24.4005 C   0  0  0  0  0  0  0  0  0  0  0  0
    7.3495    0.0086   25.1604 O   0  0  0  0  0  0  0  0  0  0  0  0
    6.7338    2.1653   24.8034 N   0  0  0  0  0  0  0  0  0  0  0  0
    6.5373    2.8522   24.1012 H   0  0  0  0  0  0  0  0  0  0  0  0
    6.7221    2.5103   26.2224 C   0  0  0  0  0  0  0  0  0  0  0  0
    6.1507    3.4400   26.3403 H   0  0  0  0  0  0  0  0  0  0  0  0
    6.1785    1.7172   26.7584 H   0  0  0  0  0  0  0  0  0  0  0  0
    8.1269    2.6439   26.8227 C   0  0  0  0  0  0  0  0  0  0  0  0
    8.0474    2.8723   27.8915 H   0  0  0  0  0  0  0  0  0  0  0  0
    8.6801    1.7012   26.7196 H   0  0  0  0  0  0  0  0  0  0  0  0
    8.7001    3.4437   26.3381 H   0  0  0  0  0  0  0  0  0  0  0  0
    7.3436   -0.6016   21.0120 C   0  0  0  0  0  0  0  0  0  0  0  0
    6.6455    0.0206   19.9034 C   0  0  0  0  0  0  0  0  0  0  0  0
    7.1600    0.0406   18.5872 C   0  0  0  0  0  0  0  0  0  0  0  0
    8.1102   -0.4354   18.3447 H   0  0  0  0  0  0  0  0  0  0  0  0
    6.5561    0.6631   17.5681 N   0  0  0  0  0  0  0  0  0  0  0  0
    5.3975    1.2967   17.8224 C   0  0  0  0  0  0  0  0  0  0  0  0
    4.9361    1.8050   16.9768 H   0  0  0  0  0  0  0  0  0  0  0  0
    4.7922    1.3176   19.0815 C   0  0  0  0  0  0  0  0  0  0  0  0
    3.8619    1.8506   19.2284 H   0  0  0  0  0  0  0  0  0  0  0  0
    5.4214    0.6629   20.1372 C   0  0  0  0  0  0  0  0  0  0  0  0
    4.9844    0.6281   21.1345 H   0  0  0  0  0  0  0  0  0  0  0  0
    8.0119   -1.7760   20.7921 O   0  0  0  0  0  0  0  0  0  0  0  0
  1  2  1  0
  2  3  2  0
  3  4  1  0
  4  5  1  0
  5  6  1  0
  5  7  1  0
  7  8  2  0
  7  9  1  0
  9 10  1  0
  9 11  1  0
 11 12  1  0
 11 13  1  0
 11 14  1  0
 14 15  1  0
 14 16  1  0
 14 17  1  0
  4 18  2  0
 18 19  1  0
 19 20  2  0
 20 21  1  0
 20 22  1  0
 22 23  2  0
 23 24  1  0
 23 25  1  0
 25 26  1  0
 25 27  2  0
 27 28  1  0
 18 29  1  0
 29  2  1  0
 27 19  1  0
M  END
>  <cnnaffinity>  (1) 
-4.50297

>  <filename>  (1) 
CCNC(=O)Nc1ncoc1-c1cccnc1

$$$$
