
     RDKit          3D

 32 33  0  0  0  0  0  0  0  0999 V2000
    4.9407    1.7904   16.9536 H   0  0  0  0  0  0  0  0  0  0  0  0
    5.4358    1.3158   17.7975 C   0  0  0  0  0  0  0  0  0  0  0  0
    6.6125    0.7205   17.5360 N   0  0  0  0  0  0  0  0  0  0  0  0
    7.2327    0.1162   18.5574 C   0  0  0  0  0  0  0  0  0  0  0  0
    8.1831   -0.3674   18.3415 H   0  0  0  0  0  0  0  0  0  0  0  0
    6.7202    0.0529   19.8716 C   0  0  0  0  0  0  0  0  0  0  0  0
    7.4322   -0.5855   20.9587 N   0  0  0  0  0  0  0  0  0  0  0  0
    6.8222   -1.5783   21.7067 C   0  0  0  0  0  0  0  0  0  0  0  0
    5.7277   -2.0514   21.4869 O   0  0  0  0  0  0  0  0  0  0  0  0
    7.6958   -2.0648   22.8446 C   0  0  0  0  0  0  0  0  0  0  0  0
    7.1732   -1.8549   23.7788 H   0  0  0  0  0  0  0  0  0  0  0  0
    7.8094   -3.1442   22.7427 H   0  0  0  0  0  0  0  0  0  0  0  0
    9.2879   -1.2209   22.7479 S   0  0  0  0  0  0  0  0  0  0  0  0
    8.8701   -0.4621   21.1172 C   0  0  2  0  0  0  0  0  0  0  0  0
    9.4154   -1.0157   20.3358 H   0  0  0  0  0  0  0  0  0  0  0  0
    9.2012    0.9360   21.0852 N   0  0  0  0  0  0  0  0  0  0  0  0
    8.5491    1.4703   21.6298 H   0  0  0  0  0  0  0  0  0  0  0  0
   10.5245    1.2538   21.3293 C   0  0  0  0  0  0  0  0  0  0  0  0
   11.4181    0.4340   21.3134 O   0  0  0  0  0  0  0  0  0  0  0  0
   10.6880    2.6039   21.5177 N   0  0  0  0  0  0  0  0  0  0  0  0
    9.9240    3.1050   21.0966 H   0  0  0  0  0  0  0  0  0  0  0  0
   12.0168    3.1812   21.2797 C   0  0  0  0  0  0  0  0  0  0  0  0
   12.4398    2.7809   20.3500 H   0  0  0  0  0  0  0  0  0  0  0  0
   11.9173    4.2615   21.1374 H   0  0  0  0  0  0  0  0  0  0  0  0
   12.9327    2.9145   22.4593 C   0  0  0  0  0  0  0  0  0  0  0  0
   13.0858    1.8409   22.5809 H   0  0  0  0  0  0  0  0  0  0  0  0
   12.4787    3.3130   23.3685 H   0  0  0  0  0  0  0  0  0  0  0  0
   13.9046    3.3964   22.3215 H   0  0  0  0  0  0  0  0  0  0  0  0
    5.4902    0.6748   20.1249 C   0  0  0  0  0  0  0  0  0  0  0  0
    5.0628    0.6442   21.1271 H   0  0  0  0  0  0  0  0  0  0  0  0
    4.8417    1.3213   19.0657 C   0  0  0  0  0  0  0  0  0  0  0  0
    3.8891    1.8241   19.2125 H   0  0  0  0  0  0  0  0  0  0  0  0
  1  2  1  0
  2  3  2  0
  3  4  1  0
  4  5  1  0
  4  6  2  0
  6  7  1  0
  7  8  1  0
  8  9  2  0
  8 10  1  0
 10 11  1  0
 10 12  1  0
 10 13  1  0
 13 14  1  0
 14 15  1  6
 14 16  1  0
 16 17  1  0
 16 18  1  0
 18 19  2  0
 18 20  1  0
 20 21  1  0
 20 22  1  0
 22 23  1  0
 22 24  1  0
 22 25  1  0
 25 26  1  0
 25 27  1  0
 25 28  1  0
  6 29  1  0
 29 30  1  0
 29 31  2  0
 31 32  1  0
 31  2  1  0
 14  7  1  0
M  END
>  <cnnaffinity>  (1) 
-4.91401

>  <filename>  (1) 
CCNC(=O)N[C@H]1SCC(=O)N1c1cccnc1

$$$$
