
     RDKit          3D

 30 31  0  0  0  0  0  0  0  0999 V2000
    4.9177    1.8034   16.9673 H   0  0  0  0  0  0  0  0  0  0  0  0
    5.3907    1.3057   17.8130 C   0  0  0  0  0  0  0  0  0  0  0  0
    6.5553    0.6874   17.5574 N   0  0  0  0  0  0  0  0  0  0  0  0
    7.1701    0.0744   18.5767 C   0  0  0  0  0  0  0  0  0  0  0  0
    8.1056   -0.4203   18.3231 H   0  0  0  0  0  0  0  0  0  0  0  0
    6.6671    0.0229   19.8893 C   0  0  0  0  0  0  0  0  0  0  0  0
    7.3385   -0.7014   20.9722 C   0  0  0  0  0  0  0  0  0  0  0  0
    6.8029   -1.2388   22.0864 C   0  0  0  0  0  0  0  0  0  0  0  0
    5.7854   -1.2852   22.3927 H   0  0  0  0  0  0  0  0  0  0  0  0
    7.8217   -1.8099   22.8311 N   0  0  0  0  0  0  0  0  0  0  0  0
    7.6477   -2.4202   24.1289 C   0  0  0  0  0  0  0  0  0  0  0  0
    6.7703   -3.0795   24.0686 H   0  0  0  0  0  0  0  0  0  0  0  0
    8.5400   -3.0260   24.3278 H   0  0  0  0  0  0  0  0  0  0  0  0
    7.4537   -1.4477   25.1737 N   0  0  0  0  0  0  0  0  0  0  0  0
    6.6578   -0.8636   24.9207 H   0  0  0  0  0  0  0  0  0  0  0  0
    8.6094   -0.5974   25.4228 C   0  0  0  0  0  0  0  0  0  0  0  0
    9.4805   -1.2529   25.5787 H   0  0  0  0  0  0  0  0  0  0  0  0
    8.8545    0.0569   24.5645 H   0  0  0  0  0  0  0  0  0  0  0  0
    8.3811    0.2466   26.6653 C   0  0  0  0  0  0  0  0  0  0  0  0
    7.5286    0.9262   26.5457 H   0  0  0  0  0  0  0  0  0  0  0  0
    8.1970   -0.3811   27.5435 H   0  0  0  0  0  0  0  0  0  0  0  0
    9.2661    0.8585   26.8523 H   0  0  0  0  0  0  0  0  0  0  0  0
    9.0126   -1.6269   22.1995 C   0  0  0  0  0  0  0  0  0  0  0  0
   10.5531   -2.0796   22.6353 S   0  0  0  0  0  0  0  0  0  0  0  0
    8.6946   -0.9740   21.0500 N   0  0  0  0  0  0  0  0  0  0  0  0
    9.4384   -0.6950   20.4362 H   0  0  0  0  0  0  0  0  0  0  0  0
    5.4394    0.6677   20.1310 C   0  0  0  0  0  0  0  0  0  0  0  0
    5.0086    0.6636   21.1320 H   0  0  0  0  0  0  0  0  0  0  0  0
    4.7971    1.3232   19.0799 C   0  0  0  0  0  0  0  0  0  0  0  0
    3.8629    1.8525   19.2298 H   0  0  0  0  0  0  0  0  0  0  0  0
  1  2  1  0
  2  3  2  0
  3  4  1  0
  4  5  1  0
  4  6  2  0
  6  7  1  0
  7  8  2  0
  8  9  1  0
  8 10  1  0
 10 11  1  0
 11 12  1  0
 11 13  1  0
 11 14  1  0
 14 15  1  0
 14 16  1  0
 16 17  1  0
 16 18  1  0
 16 19  1  0
 19 20  1  0
 19 21  1  0
 19 22  1  0
 10 23  1  0
 23 24  2  0
 23 25  1  0
 25 26  1  0
  6 27  1  0
 27 28  1  0
 27 29  2  0
 29 30  1  0
 29  2  1  0
 25  7  1  0
M  END
>  <cnnaffinity>  (1) 
-4.99101

>  <filename>  (1) 
CCNCn1cc(-c2cccnc2)[nH]c1=S

$$$$
