
     RDKit          3D

 29 30  0  0  0  0  0  0  0  0999 V2000
    5.1343    1.8232   17.0672 H   0  0  0  0  0  0  0  0  0  0  0  0
    5.4950    1.1818   17.8657 C   0  0  0  0  0  0  0  0  0  0  0  0
    6.5764    0.4384   17.5870 N   0  0  0  0  0  0  0  0  0  0  0  0
    7.0687   -0.3337   18.5660 C   0  0  0  0  0  0  0  0  0  0  0  0
    7.9258   -0.9621   18.3189 H   0  0  0  0  0  0  0  0  0  0  0  0
    6.5340   -0.3758   19.8705 C   0  0  0  0  0  0  0  0  0  0  0  0
    7.1578   -1.1295   20.9334 N   0  0  0  0  0  0  0  0  0  0  0  0
    8.2059   -0.7023   21.7650 C   0  0  0  0  0  0  0  0  0  0  0  0
    9.1527    0.4555   21.4690 C   0  0  0  0  0  0  0  0  0  0  0  0
    8.7928    0.9587   20.5575 H   0  0  0  0  0  0  0  0  0  0  0  0
    9.0141    1.1652   22.2997 H   0  0  0  0  0  0  0  0  0  0  0  0
   10.5987    0.1132   21.3749 N   0  0  0  0  0  0  0  0  0  0  0  0
   10.6924   -0.5548   20.5805 H   0  0  0  0  0  0  0  0  0  0  0  0
   12.2914    2.1946   21.7238 C   0  0  0  0  0  0  0  0  0  0  0  0
   11.5380    1.2631   21.3029 H   0  0  0  0  0  0  0  0  0  0  0  0
   11.7460    3.4119   20.5706 H   0  0  0  0  0  0  0  0  0  0  0  0
   12.4052    1.9777   21.8783 C   0  0  0  0  0  0  0  0  0  0  0  0
   13.1192    2.9071   22.3069 H   0  0  0  0  0  0  0  0  0  0  0  0
   11.5555    2.3814   22.7512 H   0  0  0  0  0  0  0  0  0  0  0  0
   13.3714    0.7036   22.5838 H   0  0  0  0  0  0  0  0  0  0  0  0
    8.2579   -1.4202   22.8510 N   0  0  0  0  0  0  0  0  0  0  0  0
    7.2844   -2.3494   22.6810 N   0  0  0  0  0  0  0  0  0  0  0  0
    7.0917   -3.0711   23.3554 H   0  0  0  0  0  0  0  0  0  0  0  0
    6.5997   -2.2523   21.5279 C   0  0  0  0  0  0  0  0  0  0  0  0
    5.4284   -3.2919   20.9903 S   0  0  0  0  0  0  0  0  0  0  0  0
    5.3625    0.3458   20.1243 C   0  0  0  0  0  0  0  0  0  0  0  0
    4.8793    0.2775   21.0999 H   0  0  0  0  0  0  0  0  0  0  0  0
    4.8465    1.1513   19.1029 C   0  0  0  0  0  0  0  0  0  0  0  0
    3.9616    1.7579   19.2571 H   0  0  0  0  0  0  0  0  0  0  0  0
  1  2  1  0
  2  3  2  0
  3  4  1  0
  4  5  1  0
  4  6  2  0
  6  7  1  0
  7  8  1  0
  8  9  1  0
  9 10  1  0
  9 11  1  0
  9 12  1  0
 12 13  1  0
 12 14  1  0
 14 15  1  0
 14 16  1  0
 14 17  1  0
 17 18  1  0
 17 19  1  0
 17 20  1  0
  8 21  2  0
 21 22  1  0
 22 23  1  0
 22 24  1  0
 24 25  2  0
  6 26  1  0
 26 27  1  0
 26 28  2  0
 28 29  1  0
 28  2  1  0
 24  7  1  0
M  END
>  <cnnaffinity>  (1) 
-4.24961

>  <filename>  (1) 
CCNCc1n[nH]c(=S)n1-c1cccnc1

$$$$
