
     RDKit          3D

 33 34  0  0  0  0  0  0  0  0999 V2000
    7.1956   -2.5591   20.1312 H   0  0  0  0  0  0  0  0  0  0  0  0
    7.6124   -1.9601   20.9173 C   0  0  0  0  0  0  0  0  0  0  0  0
    7.2685   -0.6735   21.0798 C   0  0  0  0  0  0  0  0  0  0  0  0
    6.6001    0.1069   20.0291 C   0  0  0  0  0  0  0  0  0  0  0  0
    7.1564    0.0980   18.7359 C   0  0  0  0  0  0  0  0  0  0  0  0
    8.1013   -0.4177   18.5589 H   0  0  0  0  0  0  0  0  0  0  0  0
    6.6040    0.6849   17.6690 N   0  0  0  0  0  0  0  0  0  0  0  0
    5.4297    1.3098   17.8601 C   0  0  0  0  0  0  0  0  0  0  0  0
    4.9855    1.7660   16.9793 H   0  0  0  0  0  0  0  0  0  0  0  0
    4.7836    1.3807   19.1010 C   0  0  0  0  0  0  0  0  0  0  0  0
    3.8294    1.8939   19.1796 H   0  0  0  0  0  0  0  0  0  0  0  0
    5.3853    0.7908   20.2128 C   0  0  0  0  0  0  0  0  0  0  0  0
    4.9198    0.8247   21.2001 H   0  0  0  0  0  0  0  0  0  0  0  0
    7.5893   -0.0463   22.2778 N   0  0  0  0  0  0  0  0  0  0  0  0
    7.2792    0.8814   22.5029 H   0  0  0  0  0  0  0  0  0  0  0  0
    8.3258   -0.6106   23.2671 C   0  0  0  0  0  0  0  0  0  0  0  0
    8.5868    0.1491   24.7143 S   0  0  0  0  0  0  0  0  0  0  0  0
    8.8282   -1.8273   22.9921 N   0  0  0  0  0  0  0  0  0  0  0  0
    9.0757   -2.3464   23.8131 H   0  0  0  0  0  0  0  0  0  0  0  0
    8.4902   -2.6661   21.8743 C   0  0  1  0  0  0  0  0  0  0  0  0
    9.4053   -3.0229   21.3740 H   0  0  0  0  0  0  0  0  0  0  0  0
    7.8189   -3.7773   22.5297 N   0  0  0  0  0  0  0  0  0  0  0  0
    6.9838   -3.4663   22.9983 H   0  0  0  0  0  0  0  0  0  0  0  0
    7.5049   -4.8665   21.7781 C   0  0  0  0  0  0  0  0  0  0  0  0
    8.1283   -5.2654   20.8202 O   0  0  0  0  0  0  0  0  0  0  0  0
    6.3721   -5.4143   22.2771 O   0  0  0  0  0  0  0  0  0  0  0  0
    5.8954   -6.5924   21.5962 C   0  0  0  0  0  0  0  0  0  0  0  0
    6.1107   -6.4990   20.5217 H   0  0  0  0  0  0  0  0  0  0  0  0
    4.8093   -6.5934   21.7273 H   0  0  0  0  0  0  0  0  0  0  0  0
    6.5170   -7.8256   22.2344 C   0  0  0  0  0  0  0  0  0  0  0  0
    6.0257   -8.0582   23.1831 H   0  0  0  0  0  0  0  0  0  0  0  0
    7.5949   -7.6882   22.3772 H   0  0  0  0  0  0  0  0  0  0  0  0
    6.3834   -8.7154   21.6203 H   0  0  0  0  0  0  0  0  0  0  0  0
  1  2  1  0
  2  3  2  0
  3  4  1  0
  4  5  2  0
  5  6  1  0
  5  7  1  0
  7  8  2  0
  8  9  1  0
  8 10  1  0
 10 11  1  0
 10 12  2  0
 12 13  1  0
  3 14  1  0
 14 15  1  0
 14 16  1  0
 16 17  2  0
 16 18  1  0
 18 19  1  0
 18 20  1  0
 20 21  1  6
 20 22  1  0
 22 23  1  0
 22 24  1  0
 24 25  2  0
 24 26  1  0
 26 27  1  0
 27 28  1  0
 27 29  1  0
 27 30  1  0
 30 31  1  0
 30 32  1  0
 30 33  1  0
 20  2  1  0
 12  4  1  0
M  END
>  <cnnaffinity>  (1) 
-4.8684

>  <filename>  (1) 
CCOC(=O)N[C@H]1C=C(c2cccnc2)NC(=S)N1

$$$$
