
     RDKit          3D

 39 39  0  0  0  0  0  0  0  0999 V2000
    6.6651   -5.4034   28.0915 C   0  0  0  0  0  0  0  0  0  0  0  0
    5.4876   -5.1103   27.1732 C   0  0  0  0  0  0  0  0  0  0  0  0
    5.5553   -3.7908   26.6628 O   0  0  0  0  0  0  0  0  0  0  0  0
    4.8347   -2.8007   27.3680 C   0  0  0  0  0  0  0  0  0  0  0  0
    5.2396   -1.4211   26.8716 C   0  0  0  0  0  0  0  0  0  0  0  0
    6.6352   -0.9563   27.3001 C   0  0  0  0  0  0  0  0  0  0  0  0
    7.7692   -1.7262   26.7927 N   0  0  0  0  0  0  0  0  0  0  0  0
    8.0644   -2.0512   25.5049 C   0  0  0  0  0  0  0  0  0  0  0  0
    9.0091   -3.3959   25.2106 S   0  0  0  0  0  0  0  0  0  0  0  0
    7.5392   -1.2062   24.5805 N   0  0  0  0  0  0  0  0  0  0  0  0
    7.8637   -1.2286   23.2117 N   0  0  0  0  0  0  0  0  0  0  0  0
    7.4158   -0.2165   22.3912 C   0  0  0  0  0  0  0  0  0  0  0  0
    7.1251    1.3243   22.9261 S   0  0  0  0  0  0  0  0  0  0  0  0
    7.3240   -0.6649   21.1017 N   0  0  0  0  0  0  0  0  0  0  0  0
    6.6703   -0.0226   20.0163 C   0  0  0  0  0  0  0  0  0  0  0  0
    5.4504    0.6327   20.2107 C   0  0  0  0  0  0  0  0  0  0  0  0
    4.8510    1.2709   19.1231 C   0  0  0  0  0  0  0  0  0  0  0  0
    5.4810    1.2380   17.8769 C   0  0  0  0  0  0  0  0  0  0  0  0
    6.6381    0.5909   17.6690 N   0  0  0  0  0  0  0  0  0  0  0  0
    7.2105   -0.0235   18.7135 C   0  0  0  0  0  0  0  0  0  0  0  0
    8.1494   -0.5346   18.5126 H   0  0  0  0  0  0  0  0  0  0  0  0
    5.0424    1.7507   17.0188 H   0  0  0  0  0  0  0  0  0  0  0  0
    3.9173    1.8075   19.2434 H   0  0  0  0  0  0  0  0  0  0  0  0
    5.0138    0.6475   21.2076 H   0  0  0  0  0  0  0  0  0  0  0  0
    7.7806   -1.5460   20.9258 H   0  0  0  0  0  0  0  0  0  0  0  0
    7.7539   -2.1532   22.8077 H   0  0  0  0  0  0  0  0  0  0  0  0
    7.3122   -0.2829   24.9426 H   0  0  0  0  0  0  0  0  0  0  0  0
    8.0360   -2.5238   27.3465 H   0  0  0  0  0  0  0  0  0  0  0  0
    6.7590    0.1063   27.0501 H   0  0  0  0  0  0  0  0  0  0  0  0
    6.6919   -1.0081   28.3948 H   0  0  0  0  0  0  0  0  0  0  0  0
    4.5209   -0.6972   27.2794 H   0  0  0  0  0  0  0  0  0  0  0  0
    5.1495   -1.3965   25.7812 H   0  0  0  0  0  0  0  0  0  0  0  0
    5.0172   -2.8747   28.4555 H   0  0  0  0  0  0  0  0  0  0  0  0
    3.7527   -2.9418   27.2052 H   0  0  0  0  0  0  0  0  0  0  0  0
    5.5146   -5.7744   26.3001 H   0  0  0  0  0  0  0  0  0  0  0  0
    4.5301   -5.2953   27.6912 H   0  0  0  0  0  0  0  0  0  0  0  0
    6.6095   -6.4286   28.4749 H   0  0  0  0  0  0  0  0  0  0  0  0
    7.6056   -5.2878   27.5409 H   0  0  0  0  0  0  0  0  0  0  0  0
    6.6781   -4.7205   28.9486 H   0  0  0  0  0  0  0  0  0  0  0  0
  1  2  1  0
  2  3  1  0
  3  4  1  0
  4  5  1  0
  5  6  1  0
  6  7  1  0
  7  8  1  0
  8  9  2  0
  8 10  1  0
 10 11  1  0
 11 12  1  0
 12 13  2  0
 12 14  1  0
 14 15  1  0
 15 16  2  0
 16 17  1  0
 17 18  2  0
 18 19  1  0
 19 20  2  0
 20 21  1  0
 18 22  1  0
 17 23  1  0
 16 24  1  0
 14 25  1  0
 11 26  1  0
 10 27  1  0
  7 28  1  0
  6 29  1  0
  6 30  1  0
  5 31  1  0
  5 32  1  0
  4 33  1  0
  4 34  1  0
  2 35  1  0
  2 36  1  0
  1 37  1  0
  1 38  1  0
  1 39  1  0
 20 15  1  0
M  END
>  <cnnaffinity>  (1) 
-4.39556

>  <filename>  (1) 
CCOCCCNC(=S)NNC(=S)Nc1cccnc1

$$$$
