
     RDKit          3D

 45 48  0  0  0  0  0  0  0  0999 V2000
   13.6954   -0.0136   22.7680 C   0  0  0  0  0  0  0  0  0  0  0  0
   12.2183    0.3295   22.9076 C   0  0  0  0  0  0  0  0  0  0  0  0
   11.3650   -0.4967   22.1412 O   0  0  0  0  0  0  0  0  0  0  0  0
   11.0426   -1.7488   22.7071 C   0  0  0  0  0  0  0  0  0  0  0  0
    9.9972   -2.3817   21.8073 C   0  0  0  0  0  0  0  0  0  0  0  0
    8.7576   -1.5924   21.6212 C   0  0  0  0  0  0  0  0  0  0  0  0
    8.3675   -1.1331   20.4598 N   0  0  0  0  0  0  0  0  0  0  0  0
    7.1917   -0.5194   20.7366 C   0  0  0  0  0  0  0  0  0  0  0  0
    6.4445    0.1453   19.6722 C   0  0  0  0  0  0  0  0  0  0  0  0
    5.2323    0.8203   19.8674 C   0  0  0  0  0  0  0  0  0  0  0  0
    4.6765    1.4802   18.7733 C   0  0  0  0  0  0  0  0  0  0  0  0
    5.3343    1.4281   17.5377 C   0  0  0  0  0  0  0  0  0  0  0  0
    6.4708    0.7470   17.3344 N   0  0  0  0  0  0  0  0  0  0  0  0
    7.0036    0.1216   18.3859 C   0  0  0  0  0  0  0  0  0  0  0  0
    7.9213   -0.4300   18.2009 H   0  0  0  0  0  0  0  0  0  0  0  0
    4.9358    1.9560   16.6746 H   0  0  0  0  0  0  0  0  0  0  0  0
    3.7576    2.0463   18.8633 H   0  0  0  0  0  0  0  0  0  0  0  0
    4.7539    0.8214   20.8497 H   0  0  0  0  0  0  0  0  0  0  0  0
    6.8232   -0.5864   21.9998 N   0  0  0  0  0  0  0  0  0  0  0  0
    7.8378   -1.2940   22.5761 N   0  0  0  0  0  0  0  0  0  0  0  0
    7.8510   -1.6256   23.9756 C   0  0  0  0  0  0  0  0  0  0  0  0
    7.6971   -2.9418   24.3746 C   0  0  0  0  0  0  0  0  0  0  0  0
    7.7007   -3.2918   25.7493 C   0  0  0  0  0  0  0  0  0  0  0  0
    7.8488   -2.3209   26.7142 C   0  0  0  0  0  0  0  0  0  0  0  0
    7.9853   -0.9507   26.3421 C   0  0  0  0  0  0  0  0  0  0  0  0
    8.0603    0.0936   27.3076 C   0  0  0  0  0  0  0  0  0  0  0  0
    8.1639    1.4011   26.8981 C   0  0  0  0  0  0  0  0  0  0  0  0
    8.2437    1.7722   25.5950 N   0  0  0  0  0  0  0  0  0  0  0  0
    8.1761    0.8218   24.6767 C   0  0  0  0  0  0  0  0  0  0  0  0
    8.0106   -0.5827   24.9561 C   0  0  0  0  0  0  0  0  0  0  0  0
    8.2365    1.1535   23.6424 H   0  0  0  0  0  0  0  0  0  0  0  0
    8.1682    2.2133   27.6285 H   0  0  0  0  0  0  0  0  0  0  0  0
    8.0113   -0.1533   28.3597 H   0  0  0  0  0  0  0  0  0  0  0  0
    7.8375   -2.5772   27.7674 H   0  0  0  0  0  0  0  0  0  0  0  0
    7.5708   -4.3349   26.0376 H   0  0  0  0  0  0  0  0  0  0  0  0
    7.5250   -3.7285   23.6424 H   0  0  0  0  0  0  0  0  0  0  0  0
    9.7334   -3.3839   22.1541 H   0  0  0  0  0  0  0  0  0  0  0  0
   10.4248   -2.4667   20.8096 H   0  0  0  0  0  0  0  0  0  0  0  0
   11.9215   -2.4168   22.7360 H   0  0  0  0  0  0  0  0  0  0  0  0
   10.6514   -1.6431   23.7351 H   0  0  0  0  0  0  0  0  0  0  0  0
   11.9118    0.3169   23.9678 H   0  0  0  0  0  0  0  0  0  0  0  0
   12.0319    1.3387   22.5363 H   0  0  0  0  0  0  0  0  0  0  0  0
   14.0483    0.1057   21.7422 H   0  0  0  0  0  0  0  0  0  0  0  0
   14.2898    0.6349   23.4189 H   0  0  0  0  0  0  0  0  0  0  0  0
   13.8837   -1.0505   23.0426 H   0  0  0  0  0  0  0  0  0  0  0  0
  1  2  1  0
  2  3  1  0
  3  4  1  0
  4  5  1  0
  5  6  1  0
  6  7  2  0
  7  8  1  0
  8  9  1  0
  9 10  2  0
 10 11  1  0
 11 12  2  0
 12 13  1  0
 13 14  2  0
 14 15  1  0
 12 16  1  0
 11 17  1  0
 10 18  1  0
  8 19  2  0
 19 20  1  0
 20 21  1  0
 21 22  2  0
 22 23  1  0
 23 24  2  0
 24 25  1  0
 25 26  2  0
 26 27  1  0
 27 28  2  0
 28 29  1  0
 29 30  2  0
 29 31  1  0
 27 32  1  0
 26 33  1  0
 24 34  1  0
 23 35  1  0
 22 36  1  0
  5 37  1  0
  5 38  1  0
  4 39  1  0
  4 40  1  0
  2 41  1  0
  2 42  1  0
  1 43  1  0
  1 44  1  0
  1 45  1  0
 20  6  1  0
 30 21  1  0
 14  9  1  0
 30 25  1  0
M  END
>  <cnnaffinity>  (1) 
-5.89816

>  <filename>  (1) 
CCOCCc1nc(-c2cccnc2)nn1-c1cccc2ccncc12

$$$$
