
     RDKit          3D

 30 31  0  0  0  0  0  0  0  0999 V2000
    4.9417    1.7663   16.9835 H   0  0  0  0  0  0  0  0  0  0  0  0
    5.3942    1.3287   17.8696 C   0  0  0  0  0  0  0  0  0  0  0  0
    6.5784    0.7240   17.6849 N   0  0  0  0  0  0  0  0  0  0  0  0
    7.1454    0.1592   18.7565 C   0  0  0  0  0  0  0  0  0  0  0  0
    8.0981   -0.3431   18.5956 H   0  0  0  0  0  0  0  0  0  0  0  0
    6.6023    0.1778   20.0571 C   0  0  0  0  0  0  0  0  0  0  0  0
    7.3122   -0.5562   21.1266 C   0  0  0  0  0  0  0  0  0  0  0  0
    7.8408   -1.8165   21.0537 C   0  0  0  0  0  0  0  0  0  0  0  0
    7.6473   -2.4727   20.2326 H   0  0  0  0  0  0  0  0  0  0  0  0
    8.4956   -2.1299   22.2689 C   0  0  0  0  0  0  0  0  0  0  0  0
    9.0222   -3.0493   22.4961 H   0  0  0  0  0  0  0  0  0  0  0  0
    8.3201   -1.0437   23.0810 C   0  0  0  0  0  0  0  0  0  0  0  0
    8.5149   -0.8776   24.1290 H   0  0  0  0  0  0  0  0  0  0  0  0
    7.6223   -0.0889   22.3895 N   0  0  0  0  0  0  0  0  0  0  0  0
    7.2640    1.1159   22.9602 N   0  0  0  0  0  0  0  0  0  0  0  0
    7.1784    1.9247   22.3699 H   0  0  0  0  0  0  0  0  0  0  0  0
    6.7165    1.1818   24.2124 C   0  0  0  0  0  0  0  0  0  0  0  0
    6.5514    0.2567   24.9786 O   0  0  0  0  0  0  0  0  0  0  0  0
    6.4473    2.4719   24.4683 O   0  0  0  0  0  0  0  0  0  0  0  0
    6.1313    2.7969   25.8343 C   0  0  0  0  0  0  0  0  0  0  0  0
    6.9050    2.3900   26.4992 H   0  0  0  0  0  0  0  0  0  0  0  0
    5.1795    2.3241   26.1073 H   0  0  0  0  0  0  0  0  0  0  0  0
    6.0774    4.3039   25.9103 C   0  0  0  0  0  0  0  0  0  0  0  0
    5.8064    4.6208   26.9202 H   0  0  0  0  0  0  0  0  0  0  0  0
    5.3367    4.7056   25.2138 H   0  0  0  0  0  0  0  0  0  0  0  0
    7.0496    4.7422   25.6655 H   0  0  0  0  0  0  0  0  0  0  0  0
    5.3789    0.8417   20.2280 C   0  0  0  0  0  0  0  0  0  0  0  0
    4.9329    0.8891   21.2209 H   0  0  0  0  0  0  0  0  0  0  0  0
    4.7568    1.4068   19.1121 C   0  0  0  0  0  0  0  0  0  0  0  0
    3.7970    1.9040   19.1855 H   0  0  0  0  0  0  0  0  0  0  0  0
  1  2  1  0
  2  3  2  0
  3  4  1  0
  4  5  1  0
  4  6  2  0
  6  7  1  0
  7  8  2  0
  8  9  1  0
  8 10  1  0
 10 11  1  0
 10 12  2  0
 12 13  1  0
 12 14  1  0
 14 15  1  0
 15 16  1  0
 15 17  1  0
 17 18  2  0
 17 19  1  0
 19 20  1  0
 20 21  1  0
 20 22  1  0
 20 23  1  0
 23 24  1  0
 23 25  1  0
 23 26  1  0
  6 27  1  0
 27 28  1  0
 27 29  2  0
 29 30  1  0
 29  2  1  0
 14  7  1  0
M  END
>  <cnnaffinity>  (1) 
-4.50429

>  <filename>  (1) 
CCOC(=O)Nn1cccc1-c1cccnc1

$$$$
