
     RDKit          3D

 25 25  0  0  0  0  0  0  0  0999 V2000
    6.7230   -1.1503   21.7507 H   0  0  0  0  0  0  0  0  0  0  0  0
    7.3323   -0.6983   20.9714 C   0  0  0  0  0  0  0  0  0  0  0  0
    8.6471   -0.7602   21.1827 C   0  0  0  0  0  0  0  0  0  0  0  0
    9.5151   -0.0698   20.4031 F   0  0  0  0  0  0  0  0  0  0  0  0
    9.2917   -1.4971   22.3410 C   0  0  0  0  0  0  0  0  0  0  0  0
    8.9889   -2.5540   22.3337 H   0  0  0  0  0  0  0  0  0  0  0  0
   10.3855   -1.4425   22.2324 H   0  0  0  0  0  0  0  0  0  0  0  0
    8.8585   -1.0133   23.6052 O   0  0  0  0  0  0  0  0  0  0  0  0
    9.5271    0.1687   24.0290 C   0  0  0  0  0  0  0  0  0  0  0  0
   10.5818   -0.0706   24.2563 H   0  0  0  0  0  0  0  0  0  0  0  0
    9.5368    0.9120   23.2132 H   0  0  0  0  0  0  0  0  0  0  0  0
    8.8196    0.7188   25.2560 C   0  0  0  0  0  0  0  0  0  0  0  0
    8.7811   -0.0322   26.0511 H   0  0  0  0  0  0  0  0  0  0  0  0
    7.7938    1.0304   25.0290 H   0  0  0  0  0  0  0  0  0  0  0  0
    9.3649    1.5916   25.6303 H   0  0  0  0  0  0  0  0  0  0  0  0
    6.6306   -0.0044   19.8736 C   0  0  0  0  0  0  0  0  0  0  0  0
    7.1489    0.0730   18.5658 C   0  0  0  0  0  0  0  0  0  0  0  0
    8.1039   -0.3901   18.3273 H   0  0  0  0  0  0  0  0  0  0  0  0
    6.5372    0.6969   17.5497 N   0  0  0  0  0  0  0  0  0  0  0  0
    5.3733    1.3119   17.8050 C   0  0  0  0  0  0  0  0  0  0  0  0
    4.9159    1.8261   16.9589 H   0  0  0  0  0  0  0  0  0  0  0  0
    4.7732    1.3154   19.0690 C   0  0  0  0  0  0  0  0  0  0  0  0
    3.8497    1.8620   19.2134 H   0  0  0  0  0  0  0  0  0  0  0  0
    5.4060    0.6394   20.1160 C   0  0  0  0  0  0  0  0  0  0  0  0
    4.9867    0.6306   21.1211 H   0  0  0  0  0  0  0  0  0  0  0  0
  1  2  1  0
  2  3  2  3
  3  4  1  0
  3  5  1  0
  5  6  1  0
  5  7  1  0
  5  8  1  0
  8  9  1  0
  9 10  1  0
  9 11  1  0
  9 12  1  0
 12 13  1  0
 12 14  1  0
 12 15  1  0
  2 16  1  0
 16 17  2  0
 17 18  1  0
 17 19  1  0
 19 20  2  0
 20 21  1  0
 20 22  1  0
 22 23  1  0
 22 24  2  0
 24 25  1  0
 24 16  1  0
M  END
>  <cnnaffinity>  (1) 
-4.19975

>  <filename>  (1) 
CCOCC(F)=Cc1cccnc1

$$$$
