
     RDKit          3D

 42 45  0  0  0  0  0  0  0  0999 V2000
    8.9400   -5.6997   24.4042 C   0  0  0  0  0  0  0  0  0  0  0  0
    8.2124   -5.7072   23.0640 C   0  0  0  0  0  0  0  0  0  0  0  0
    7.7107   -4.4258   22.7015 O   0  0  0  0  0  0  0  0  0  0  0  0
    8.6661   -3.5584   22.0976 C   0  0  0  0  0  0  0  0  0  0  0  0
    8.1740   -2.1489   21.9107 C   0  0  0  0  0  0  0  0  0  0  0  0
    7.8151   -1.7400   20.7145 N   0  0  0  0  0  0  0  0  0  0  0  0
    7.3334   -0.4972   20.9342 N   0  0  0  0  0  0  0  0  0  0  0  0
    6.6172    0.1336   19.8854 C   0  0  0  0  0  0  0  0  0  0  0  0
    5.4060    0.7990   20.1053 C   0  0  0  0  0  0  0  0  0  0  0  0
    4.7841    1.3867   19.0004 C   0  0  0  0  0  0  0  0  0  0  0  0
    5.3964    1.3052   17.7462 C   0  0  0  0  0  0  0  0  0  0  0  0
    6.5476    0.6406   17.5315 N   0  0  0  0  0  0  0  0  0  0  0  0
    7.1225    0.0440   18.5762 C   0  0  0  0  0  0  0  0  0  0  0  0
    8.0279   -0.5330   18.3869 H   0  0  0  0  0  0  0  0  0  0  0  0
    4.9452    1.7710   16.8728 H   0  0  0  0  0  0  0  0  0  0  0  0
    3.8360    1.9040   19.1024 H   0  0  0  0  0  0  0  0  0  0  0  0
    4.9835    0.8591   21.1102 H   0  0  0  0  0  0  0  0  0  0  0  0
    7.4866   -0.1851   22.2660 C   0  0  0  0  0  0  0  0  0  0  0  0
    7.1416    1.1385   22.8540 C   0  0  0  0  0  0  0  0  0  0  0  0
    7.5628    2.3187   22.2483 C   0  0  0  0  0  0  0  0  0  0  0  0
    7.2564    3.5900   22.7985 C   0  0  0  0  0  0  0  0  0  0  0  0
    6.5237    3.6904   23.9603 C   0  0  0  0  0  0  0  0  0  0  0  0
    6.0669    2.5168   24.6202 C   0  0  0  0  0  0  0  0  0  0  0  0
    5.3047    2.5706   25.8215 C   0  0  0  0  0  0  0  0  0  0  0  0
    4.8650    1.4075   26.3982 C   0  0  0  0  0  0  0  0  0  0  0  0
    5.1053    0.1734   25.8896 N   0  0  0  0  0  0  0  0  0  0  0  0
    5.8196    0.1006   24.7825 C   0  0  0  0  0  0  0  0  0  0  0  0
    6.3608    1.2268   24.0695 C   0  0  0  0  0  0  0  0  0  0  0  0
    6.0173   -0.8927   24.3829 H   0  0  0  0  0  0  0  0  0  0  0  0
    4.2850    1.4226   27.3187 H   0  0  0  0  0  0  0  0  0  0  0  0
    5.0714    3.5302   26.2730 H   0  0  0  0  0  0  0  0  0  0  0  0
    6.2631    4.6563   24.3871 H   0  0  0  0  0  0  0  0  0  0  0  0
    7.5925    4.4883   22.2832 H   0  0  0  0  0  0  0  0  0  0  0  0
    8.1437    2.2836   21.3304 H   0  0  0  0  0  0  0  0  0  0  0  0
    8.0142   -1.2296   22.8943 N   0  0  0  0  0  0  0  0  0  0  0  0
    8.8942   -3.9024   21.0820 H   0  0  0  0  0  0  0  0  0  0  0  0
    9.5944   -3.5154   22.6865 H   0  0  0  0  0  0  0  0  0  0  0  0
    8.8551   -6.1345   22.2744 H   0  0  0  0  0  0  0  0  0  0  0  0
    7.3371   -6.3581   23.1442 H   0  0  0  0  0  0  0  0  0  0  0  0
    9.3897   -6.6801   24.5981 H   0  0  0  0  0  0  0  0  0  0  0  0
    8.2410   -5.4753   25.2150 H   0  0  0  0  0  0  0  0  0  0  0  0
    9.7360   -4.9474   24.4296 H   0  0  0  0  0  0  0  0  0  0  0  0
  1  2  1  0
  2  3  1  0
  3  4  1  0
  4  5  1  0
  5  6  2  0
  6  7  1  0
  7  8  1  0
  8  9  2  0
  9 10  1  0
 10 11  2  0
 11 12  1  0
 12 13  2  0
 13 14  1  0
 11 15  1  0
 10 16  1  0
  9 17  1  0
  7 18  1  0
 18 19  1  0
 19 20  2  0
 20 21  1  0
 21 22  2  0
 22 23  1  0
 23 24  2  0
 24 25  1  0
 25 26  2  0
 26 27  1  0
 27 28  2  0
 27 29  1  0
 25 30  1  0
 24 31  1  0
 22 32  1  0
 21 33  1  0
 20 34  1  0
 18 35  2  0
  4 36  1  0
  4 37  1  0
  2 38  1  0
  2 39  1  0
  1 40  1  0
  1 41  1  0
  1 42  1  0
 35  5  1  0
 13  8  1  0
 28 19  1  0
 28 23  1  0
M  END
>  <cnnaffinity>  (1) 
-5.22103

>  <filename>  (1) 
CCOCc1nc(-c2cccc3ccncc23)n(-c2cccnc2)n1

$$$$
