
     RDKit          3D

 30 31  0  0  0  0  0  0  0  0999 V2000
    5.0294    1.7872   16.9924 H   0  0  0  0  0  0  0  0  0  0  0  0
    5.4805    1.2688   17.8350 C   0  0  0  0  0  0  0  0  0  0  0  0
    6.6283    0.6197   17.5747 N   0  0  0  0  0  0  0  0  0  0  0  0
    7.2148   -0.0146   18.5950 C   0  0  0  0  0  0  0  0  0  0  0  0
    8.1321   -0.5478   18.3497 H   0  0  0  0  0  0  0  0  0  0  0  0
    6.7040   -0.0432   19.9057 C   0  0  0  0  0  0  0  0  0  0  0  0
    7.3918   -0.7409   20.9862 C   0  0  0  0  0  0  0  0  0  0  0  0
    6.8944   -1.3680   22.0742 C   0  0  0  0  0  0  0  0  0  0  0  0
    5.8897   -1.5948   22.3795 H   0  0  0  0  0  0  0  0  0  0  0  0
    7.9636   -1.8195   22.8250 N   0  0  0  0  0  0  0  0  0  0  0  0
    7.7598   -2.4751   24.0261 N   0  0  0  0  0  0  0  0  0  0  0  0
    7.8221   -1.9502   24.8857 H   0  0  0  0  0  0  0  0  0  0  0  0
    8.2083   -3.7651   24.2483 C   0  0  0  0  0  0  0  0  0  0  0  0
    8.5994   -4.5644   23.4391 O   0  0  0  0  0  0  0  0  0  0  0  0
    8.0871   -3.9433   25.5833 O   0  0  0  0  0  0  0  0  0  0  0  0
    8.6082   -5.1586   26.1427 C   0  0  0  0  0  0  0  0  0  0  0  0
    8.1203   -5.2204   27.1207 H   0  0  0  0  0  0  0  0  0  0  0  0
    8.2980   -6.0155   25.5310 H   0  0  0  0  0  0  0  0  0  0  0  0
   10.1196   -5.0634   26.2765 C   0  0  0  0  0  0  0  0  0  0  0  0
   10.5761   -4.8239   25.3087 H   0  0  0  0  0  0  0  0  0  0  0  0
   10.5458   -6.0070   26.6324 H   0  0  0  0  0  0  0  0  0  0  0  0
   10.3763   -4.2705   26.9825 H   0  0  0  0  0  0  0  0  0  0  0  0
    9.1625   -1.5064   22.1998 C   0  0  0  0  0  0  0  0  0  0  0  0
   10.7284   -1.8012   22.6477 S   0  0  0  0  0  0  0  0  0  0  0  0
    8.7691   -0.8595   21.0685 N   0  0  0  0  0  0  0  0  0  0  0  0
    9.4660   -0.5219   20.4252 H   0  0  0  0  0  0  0  0  0  0  0  0
    5.4857    0.6143   20.1478 C   0  0  0  0  0  0  0  0  0  0  0  0
    5.0573    0.6055   21.1525 H   0  0  0  0  0  0  0  0  0  0  0  0
    4.8692    1.2908   19.0955 C   0  0  0  0  0  0  0  0  0  0  0  0
    3.9380    1.8328   19.2337 H   0  0  0  0  0  0  0  0  0  0  0  0
  1  2  1  0
  2  3  2  0
  3  4  1  0
  4  5  1  0
  4  6  2  0
  6  7  1  0
  7  8  2  0
  8  9  1  0
  8 10  1  0
 10 11  1  0
 11 12  1  0
 11 13  1  0
 13 14  2  0
 13 15  1  0
 15 16  1  0
 16 17  1  0
 16 18  1  0
 16 19  1  0
 19 20  1  0
 19 21  1  0
 19 22  1  0
 10 23  1  0
 23 24  2  0
 23 25  1  0
 25 26  1  0
  6 27  1  0
 27 28  1  0
 27 29  2  0
 29 30  1  0
 29  2  1  0
 25  7  1  0
M  END
>  <cnnaffinity>  (1) 
-5.13839

>  <filename>  (1) 
CCOC(=O)Nn1cc(-c2cccnc2)[nH]c1=S

$$$$
