
     RDKit          3D

 44 47  0  0  0  0  0  0  0  0999 V2000
    6.9362   -5.6598   22.9601 C   0  0  0  0  0  0  0  0  0  0  0  0
    8.3980   -5.3768   23.2665 C   0  0  0  0  0  0  0  0  0  0  0  0
    8.5784   -3.9878   23.5209 O   0  0  0  0  0  0  0  0  0  0  0  0
    9.0061   -3.1546   22.4455 C   0  0  0  0  0  0  0  0  0  0  0  0
   10.4389   -2.6858   22.7604 C   0  0  0  0  0  0  0  0  0  0  0  0
   10.8949   -2.2218   21.8785 H   0  0  0  0  0  0  0  0  0  0  0  0
   11.0475   -3.5332   23.0867 H   0  0  0  0  0  0  0  0  0  0  0  0
   10.4069   -1.9520   23.5776 H   0  0  0  0  0  0  0  0  0  0  0  0
    8.1245   -1.9323   22.2088 C   0  0  0  0  0  0  0  0  0  0  0  0
    7.8346   -1.5678   20.9718 N   0  0  0  0  0  0  0  0  0  0  0  0
    7.1927   -0.3777   21.1326 N   0  0  0  0  0  0  0  0  0  0  0  0
    6.5740    0.2345   20.0125 C   0  0  0  0  0  0  0  0  0  0  0  0
    5.3746    0.9465   20.1274 C   0  0  0  0  0  0  0  0  0  0  0  0
    4.8283    1.4792   18.9549 C   0  0  0  0  0  0  0  0  0  0  0  0
    5.4896    1.2909   17.7387 C   0  0  0  0  0  0  0  0  0  0  0  0
    6.6331    0.5908   17.6249 N   0  0  0  0  0  0  0  0  0  0  0  0
    7.1500    0.0693   18.7385 C   0  0  0  0  0  0  0  0  0  0  0  0
    8.0596   -0.5202   18.6361 H   0  0  0  0  0  0  0  0  0  0  0  0
    5.0975    1.7183   16.8187 H   0  0  0  0  0  0  0  0  0  0  0  0
    3.9068    2.0512   18.9770 H   0  0  0  0  0  0  0  0  0  0  0  0
    4.8731    1.0425   21.0903 H   0  0  0  0  0  0  0  0  0  0  0  0
    7.2093   -0.0443   22.4646 C   0  0  0  0  0  0  0  0  0  0  0  0
    6.7183    1.1403   23.1388 C   0  0  0  0  0  0  0  0  0  0  0  0
    6.9622    2.5098   22.9035 C   0  0  0  0  0  0  0  0  0  0  0  0
    7.6817    3.2781   21.9483 C   0  0  0  0  0  0  0  0  0  0  0  0
    7.7112    4.6550   22.0539 C   0  0  0  0  0  0  0  0  0  0  0  0
    7.0239    5.3168   23.1233 C   0  0  0  0  0  0  0  0  0  0  0  0
    6.4055    4.5742   24.0871 C   0  0  0  0  0  0  0  0  0  0  0  0
    6.3674    3.1978   23.9705 N   0  0  0  0  0  0  0  0  0  0  0  0
    5.8042    2.2989   24.8465 C   0  0  0  0  0  0  0  0  0  0  0  0
    6.0214    1.0437   24.3657 C   0  0  0  0  0  0  0  0  0  0  0  0
    5.7393    0.1116   24.8398 H   0  0  0  0  0  0  0  0  0  0  0  0
    5.3385    2.6571   25.7546 H   0  0  0  0  0  0  0  0  0  0  0  0
    5.9463    4.9775   24.9834 H   0  0  0  0  0  0  0  0  0  0  0  0
    6.9757    6.4010   23.1653 H   0  0  0  0  0  0  0  0  0  0  0  0
    8.2590    5.2461   21.3270 H   0  0  0  0  0  0  0  0  0  0  0  0
    8.1852    2.7581   21.1441 H   0  0  0  0  0  0  0  0  0  0  0  0
    7.7504   -1.0443   23.1534 N   0  0  0  0  0  0  0  0  0  0  0  0
    8.9550   -3.7043   21.4893 H   0  0  0  0  0  0  0  0  0  0  0  0
    8.7432   -5.9074   24.1658 H   0  0  0  0  0  0  0  0  0  0  0  0
    9.0240   -5.7131   22.4238 H   0  0  0  0  0  0  0  0  0  0  0  0
    6.7657   -6.7288   22.7912 H   0  0  0  0  0  0  0  0  0  0  0  0
    6.3011   -5.3221   23.7862 H   0  0  0  0  0  0  0  0  0  0  0  0
    6.6416   -5.1190   22.0521 H   0  0  0  0  0  0  0  0  0  0  0  0
  1  2  1  0
  2  3  1  0
  3  4  1  0
  4  5  1  0
  5  6  1  0
  5  7  1  0
  5  8  1  0
  4  9  1  0
  9 10  2  0
 10 11  1  0
 11 12  1  0
 12 13  2  0
 13 14  1  0
 14 15  2  0
 15 16  1  0
 16 17  2  0
 17 18  1  0
 15 19  1  0
 14 20  1  0
 13 21  1  0
 11 22  1  0
 22 23  1  0
 23 24  2  0
 24 25  1  0
 25 26  2  0
 26 27  1  0
 27 28  2  0
 28 29  1  0
 29 30  1  0
 30 31  2  0
 31 32  1  0
 30 33  1  0
 28 34  1  0
 27 35  1  0
 26 36  1  0
 25 37  1  0
 22 38  2  0
  4 39  1  0
  2 40  1  0
  2 41  1  0
  1 42  1  0
  1 43  1  0
  1 44  1  0
 38  9  1  0
 17 12  1  0
 31 23  1  0
 29 24  1  0
M  END
>  <cnnaffinity>  (1) 
-6.03827

>  <filename>  (1) 
CCOC(C)c1nc(-c2ccn3ccccc23)n(-c2cccnc2)n1

$$$$
