
     RDKit          3D

 40 42  0  0  0  0  0  0  0  0999 V2000
    6.1461   -5.5319   23.7452 C   0  0  0  0  0  0  0  0  0  0  0  0
    7.3110   -4.5616   23.7449 C   0  0  0  0  0  0  0  0  0  0  0  0
    7.7676   -4.5349   22.3959 O   0  0  0  0  0  0  0  0  0  0  0  0
    8.6198   -3.4537   22.0668 C   0  0  0  0  0  0  0  0  0  0  0  0
    7.9458   -2.1171   21.9148 C   0  0  0  0  0  0  0  0  0  0  0  0
    7.4455   -1.7285   20.7607 N   0  0  0  0  0  0  0  0  0  0  0  0
    6.9840   -0.4767   21.0217 N   0  0  0  0  0  0  0  0  0  0  0  0
    6.4107    0.2573   19.9511 C   0  0  0  0  0  0  0  0  0  0  0  0
    5.2377    1.0199   20.0399 C   0  0  0  0  0  0  0  0  0  0  0  0
    4.7325    1.5765   18.8549 C   0  0  0  0  0  0  0  0  0  0  0  0
    5.4214    1.3824   17.6555 C   0  0  0  0  0  0  0  0  0  0  0  0
    6.5614    0.6743   17.5717 N   0  0  0  0  0  0  0  0  0  0  0  0
    7.0347    0.1390   18.6950 C   0  0  0  0  0  0  0  0  0  0  0  0
    7.9741   -0.4109   18.6389 H   0  0  0  0  0  0  0  0  0  0  0  0
    5.0543    1.8090   16.7226 H   0  0  0  0  0  0  0  0  0  0  0  0
    3.8194    2.1626   18.8527 H   0  0  0  0  0  0  0  0  0  0  0  0
    4.7217    1.1692   20.9896 H   0  0  0  0  0  0  0  0  0  0  0  0
    7.3042   -0.1561   22.3130 C   0  0  0  0  0  0  0  0  0  0  0  0
    7.1383    1.1741   22.9738 C   0  0  0  0  0  0  0  0  0  0  0  0
    8.4641    1.6587   23.5465 C   0  0  0  0  0  0  0  0  0  0  0  0
    8.7491    1.5033   24.9068 C   0  0  0  0  0  0  0  0  0  0  0  0
   10.0265    1.7456   25.4148 C   0  0  0  0  0  0  0  0  0  0  0  0
   11.0383    2.1927   24.5647 C   0  0  0  0  0  0  0  0  0  0  0  0
   10.7780    2.4038   23.2087 C   0  0  0  0  0  0  0  0  0  0  0  0
    9.4936    2.1373   22.7199 C   0  0  0  0  0  0  0  0  0  0  0  0
    9.1729    2.3971   21.0358 Cl  0  0  0  0  0  0  0  0  0  0  0  0
   11.5518    2.7591   22.5340 H   0  0  0  0  0  0  0  0  0  0  0  0
   12.0331    2.3727   24.9575 H   0  0  0  0  0  0  0  0  0  0  0  0
   10.2285    1.5632   26.4621 H   0  0  0  0  0  0  0  0  0  0  0  0
    7.9543    1.1832   25.5760 H   0  0  0  0  0  0  0  0  0  0  0  0
    6.7395    1.9036   22.2663 H   0  0  0  0  0  0  0  0  0  0  0  0
    6.4083    1.0444   23.7781 H   0  0  0  0  0  0  0  0  0  0  0  0
    7.8718   -1.1928   22.9041 N   0  0  0  0  0  0  0  0  0  0  0  0
    9.0264   -3.6822   21.0811 H   0  0  0  0  0  0  0  0  0  0  0  0
    9.4452   -3.3460   22.7882 H   0  0  0  0  0  0  0  0  0  0  0  0
    7.0146   -3.5521   24.0833 H   0  0  0  0  0  0  0  0  0  0  0  0
    8.1283   -4.9001   24.4072 H   0  0  0  0  0  0  0  0  0  0  0  0
    5.7378   -5.6959   24.7468 H   0  0  0  0  0  0  0  0  0  0  0  0
    6.4926   -6.4879   23.3406 H   0  0  0  0  0  0  0  0  0  0  0  0
    5.3479   -5.1536   23.0965 H   0  0  0  0  0  0  0  0  0  0  0  0
  1  2  1  0
  2  3  1  0
  3  4  1  0
  4  5  1  0
  5  6  2  0
  6  7  1  0
  7  8  1  0
  8  9  2  0
  9 10  1  0
 10 11  2  0
 11 12  1  0
 12 13  2  0
 13 14  1  0
 11 15  1  0
 10 16  1  0
  9 17  1  0
  7 18  1  0
 18 19  1  0
 19 20  1  0
 20 21  2  0
 21 22  1  0
 22 23  2  0
 23 24  1  0
 24 25  2  0
 25 26  1  0
 24 27  1  0
 23 28  1  0
 22 29  1  0
 21 30  1  0
 19 31  1  0
 19 32  1  0
 18 33  2  0
  4 34  1  0
  4 35  1  0
  2 36  1  0
  2 37  1  0
  1 38  1  0
  1 39  1  0
  1 40  1  0
 33  5  1  0
 13  8  1  0
 25 20  1  0
M  END
>  <cnnaffinity>  (1) 
-5.60776

>  <filename>  (1) 
CCOCc1nc(Cc2ccccc2Cl)n(-c2cccnc2)n1

$$$$
