
     RDKit          3D

 35 37  0  0  0  0  0  0  0  0999 V2000
    7.0390    0.9786   27.4788 C   0  0  0  0  0  0  0  0  0  0  0  0
    5.7421    1.4533   26.8376 C   0  0  0  0  0  0  0  0  0  0  0  0
    5.9089    2.5347   25.9246 O   0  0  0  0  0  0  0  0  0  0  0  0
    6.4422    2.3425   24.6849 C   0  0  0  0  0  0  0  0  0  0  0  0
    6.6980    3.5158   23.9523 C   0  0  0  0  0  0  0  0  0  0  0  0
    7.2336    3.4447   22.6654 C   0  0  0  0  0  0  0  0  0  0  0  0
    7.5151    2.2068   22.0856 C   0  0  0  0  0  0  0  0  0  0  0  0
    7.2407    1.0311   22.8022 C   0  0  0  0  0  0  0  0  0  0  0  0
    7.5541   -0.3006   22.2529 C   0  0  0  0  0  0  0  0  0  0  0  0
    8.1743   -1.3559   22.8858 C   0  0  0  0  0  0  0  0  0  0  0  0
    8.3458   -2.3231   21.8790 C   0  0  0  0  0  0  0  0  0  0  0  0
    7.8652   -1.9163   20.7153 N   0  0  0  0  0  0  0  0  0  0  0  0
    7.3621   -0.6880   20.9418 N   0  0  0  0  0  0  0  0  0  0  0  0
    6.6467   -0.0155   19.9146 C   0  0  0  0  0  0  0  0  0  0  0  0
    5.4268    0.6272   20.1667 C   0  0  0  0  0  0  0  0  0  0  0  0
    4.8100    1.2948   19.1064 C   0  0  0  0  0  0  0  0  0  0  0  0
    5.4112    1.2888   17.8428 C   0  0  0  0  0  0  0  0  0  0  0  0
    6.5764    0.6670   17.5983 N   0  0  0  0  0  0  0  0  0  0  0  0
    7.1738    0.0325   18.6104 C   0  0  0  0  0  0  0  0  0  0  0  0
    8.1213   -0.4427   18.3783 H   0  0  0  0  0  0  0  0  0  0  0  0
    4.9379    1.7842   16.9962 H   0  0  0  0  0  0  0  0  0  0  0  0
    3.8831    1.8346   19.2548 H   0  0  0  0  0  0  0  0  0  0  0  0
    5.0115    0.6423   21.1770 H   0  0  0  0  0  0  0  0  0  0  0  0
    8.7960   -3.3037   21.9483 H   0  0  0  0  0  0  0  0  0  0  0  0
    8.5041   -1.3676   23.9157 H   0  0  0  0  0  0  0  0  0  0  0  0
    6.7169    1.1012   24.1023 C   0  0  0  0  0  0  0  0  0  0  0  0
    6.5282    0.1814   24.6468 H   0  0  0  0  0  0  0  0  0  0  0  0
    7.9282    2.1316   21.0813 H   0  0  0  0  0  0  0  0  0  0  0  0
    7.4288    4.3523   22.0985 H   0  0  0  0  0  0  0  0  0  0  0  0
    6.4653    4.4659   24.4200 H   0  0  0  0  0  0  0  0  0  0  0  0
    5.0825    1.8776   27.5928 H   0  0  0  0  0  0  0  0  0  0  0  0
    5.1919    0.6241   26.3723 H   0  0  0  0  0  0  0  0  0  0  0  0
    7.7284    0.5639   26.7381 H   0  0  0  0  0  0  0  0  0  0  0  0
    6.8392    0.2021   28.2263 H   0  0  0  0  0  0  0  0  0  0  0  0
    7.5404    1.8072   27.9849 H   0  0  0  0  0  0  0  0  0  0  0  0
  1  2  1  0
  2  3  1  0
  3  4  1  0
  4  5  2  0
  5  6  1  0
  6  7  2  0
  7  8  1  0
  8  9  1  0
  9 10  2  0
 10 11  1  0
 11 12  2  0
 12 13  1  0
 13 14  1  0
 14 15  2  0
 15 16  1  0
 16 17  2  0
 17 18  1  0
 18 19  2  0
 19 20  1  0
 17 21  1  0
 16 22  1  0
 15 23  1  0
 11 24  1  0
 10 25  1  0
  8 26  2  0
 26 27  1  0
  7 28  1  0
  6 29  1  0
  5 30  1  0
  2 31  1  0
  2 32  1  0
  1 33  1  0
  1 34  1  0
  1 35  1  0
 26  4  1  0
 13  9  1  0
 19 14  1  0
M  END
>  <cnnaffinity>  (1) 
-5.16777

>  <filename>  (1) 
CCOc1cccc(-c2ccnn2-c2cccnc2)c1

$$$$
