
     RDKit          3D

 27 28  0  0  0  0  0  0  0  0999 V2000
    4.9304    1.7810   16.9990 H   0  0  0  0  0  0  0  0  0  0  0  0
    5.4092    1.2909   17.8455 C   0  0  0  0  0  0  0  0  0  0  0  0
    6.5744    0.6678   17.5959 N   0  0  0  0  0  0  0  0  0  0  0  0
    7.1740    0.0386   18.6086 C   0  0  0  0  0  0  0  0  0  0  0  0
    8.1220   -0.4414   18.3785 H   0  0  0  0  0  0  0  0  0  0  0  0
    6.6446   -0.0021   19.9080 C   0  0  0  0  0  0  0  0  0  0  0  0
    7.3561   -0.6724   20.9320 N   0  0  0  0  0  0  0  0  0  0  0  0
    7.7341   -1.9449   20.7536 N   0  0  0  0  0  0  0  0  0  0  0  0
    8.2568   -2.3235   21.9091 C   0  0  0  0  0  0  0  0  0  0  0  0
    8.6367   -3.3307   22.0234 H   0  0  0  0  0  0  0  0  0  0  0  0
    8.2443   -1.2875   22.8505 C   0  0  0  0  0  0  0  0  0  0  0  0
    8.6091   -1.3126   23.8663 H   0  0  0  0  0  0  0  0  0  0  0  0
    7.6799   -0.2102   22.1868 C   0  0  0  0  0  0  0  0  0  0  0  0
    7.4896    1.1711   22.7149 C   0  0  0  0  0  0  0  0  0  0  0  0
    7.5119    1.3968   23.9069 O   0  0  0  0  0  0  0  0  0  0  0  0
    7.3303    2.1268   21.7841 O   0  0  0  0  0  0  0  0  0  0  0  0
    7.0318    3.4644   22.2541 C   0  0  0  0  0  0  0  0  0  0  0  0
    7.7314    3.7587   23.0435 H   0  0  0  0  0  0  0  0  0  0  0  0
    7.2331    4.0925   21.3954 H   0  0  0  0  0  0  0  0  0  0  0  0
    5.5883    3.6166   22.6882 C   0  0  0  0  0  0  0  0  0  0  0  0
    4.9065    3.3468   21.8737 H   0  0  0  0  0  0  0  0  0  0  0  0
    5.3861    4.6583   22.9616 H   0  0  0  0  0  0  0  0  0  0  0  0
    5.3781    2.9913   23.5565 H   0  0  0  0  0  0  0  0  0  0  0  0
    5.4252    0.6339   20.1655 C   0  0  0  0  0  0  0  0  0  0  0  0
    4.9900    0.6280   21.1659 H   0  0  0  0  0  0  0  0  0  0  0  0
    4.8077    1.3003   19.1065 C   0  0  0  0  0  0  0  0  0  0  0  0
    3.8802    1.8424   19.2614 H   0  0  0  0  0  0  0  0  0  0  0  0
  1  2  1  0
  2  3  2  0
  3  4  1  0
  4  5  1  0
  4  6  2  0
  6  7  1  0
  7  8  1  0
  8  9  2  0
  9 10  1  0
  9 11  1  0
 11 12  1  0
 11 13  2  0
 13 14  1  0
 14 15  2  0
 14 16  1  0
 16 17  1  0
 17 18  1  0
 17 19  1  0
 17 20  1  0
 20 21  1  0
 20 22  1  0
 20 23  1  0
  6 24  1  0
 24 25  1  0
 24 26  2  0
 26 27  1  0
 26  2  1  0
 13  7  1  0
M  END
>  <cnnaffinity>  (1) 
-4.39717

>  <filename>  (1) 
CCOC(=O)c1ccnn1-c1cccnc1

$$$$
