
     RDKit          3D

 32 33  0  0  0  0  0  0  0  0999 V2000
    6.2156   -2.6634   21.0225 H   0  0  0  0  0  0  0  0  0  0  0  0
    6.6466   -1.8609   21.6156 C   0  0  0  0  0  0  0  0  0  0  0  0
    6.5051   -1.7413   22.9352 C   0  0  0  0  0  0  0  0  0  0  0  0
    5.7367   -2.7067   23.8197 C   0  0  0  0  0  0  0  0  0  0  0  0
    4.8012   -3.0055   23.3265 H   0  0  0  0  0  0  0  0  0  0  0  0
    5.4455   -2.2180   24.7672 H   0  0  0  0  0  0  0  0  0  0  0  0
    6.3580   -3.9558   24.0290 O   0  0  0  0  0  0  0  0  0  0  0  0
    7.3806   -4.0448   24.9998 C   0  0  0  0  0  0  0  0  0  0  0  0
    8.1648   -3.2921   24.8163 H   0  0  0  0  0  0  0  0  0  0  0  0
    6.9795   -3.8661   26.0113 H   0  0  0  0  0  0  0  0  0  0  0  0
    7.9053   -5.4579   24.8596 C   0  0  0  0  0  0  0  0  0  0  0  0
    8.2652   -5.5990   23.8383 H   0  0  0  0  0  0  0  0  0  0  0  0
    7.0847   -6.1595   25.0240 H   0  0  0  0  0  0  0  0  0  0  0  0
    8.7108   -5.6922   25.5594 H   0  0  0  0  0  0  0  0  0  0  0  0
    7.0440   -0.4139   23.4156 C   0  0  0  0  0  0  0  0  0  0  0  0
    6.2042    0.2349   23.7089 H   0  0  0  0  0  0  0  0  0  0  0  0
    7.6906   -0.5291   24.2978 H   0  0  0  0  0  0  0  0  0  0  0  0
    7.8049    0.1535   22.1933 C   0  0  0  0  0  0  0  0  0  0  0  0
    8.8847    0.0906   22.3640 H   0  0  0  0  0  0  0  0  0  0  0  0
    7.5772    1.2105   22.0332 H   0  0  0  0  0  0  0  0  0  0  0  0
    7.4168   -0.7297   20.9671 C   0  0  2  0  0  0  0  0  0  0  0  0
    8.3278   -1.1516   20.5250 H   0  0  0  0  0  0  0  0  0  0  0  0
    6.6721   -0.0098   19.8388 C   0  0  0  0  0  0  0  0  0  0  0  0
    7.1643    0.0480   18.5183 C   0  0  0  0  0  0  0  0  0  0  0  0
    8.1013   -0.4427   18.2489 H   0  0  0  0  0  0  0  0  0  0  0  0
    6.5620    0.6875   17.5048 N   0  0  0  0  0  0  0  0  0  0  0  0
    5.4098    1.3188   17.7734 C   0  0  0  0  0  0  0  0  0  0  0  0
    4.9381    1.8521   16.9471 H   0  0  0  0  0  0  0  0  0  0  0  0
    4.8160    1.3175   19.0379 C   0  0  0  0  0  0  0  0  0  0  0  0
    3.8864    1.8489   19.1972 H   0  0  0  0  0  0  0  0  0  0  0  0
    5.4576    0.6491   20.0811 C   0  0  0  0  0  0  0  0  0  0  0  0
    5.0177    0.6366   21.0792 H   0  0  0  0  0  0  0  0  0  0  0  0
  1  2  1  0
  2  3  2  0
  3  4  1  0
  4  5  1  0
  4  6  1  0
  4  7  1  0
  7  8  1  0
  8  9  1  0
  8 10  1  0
  8 11  1  0
 11 12  1  0
 11 13  1  0
 11 14  1  0
  3 15  1  0
 15 16  1  0
 15 17  1  0
 15 18  1  0
 18 19  1  0
 18 20  1  0
 18 21  1  0
 21 22  1  6
 21 23  1  0
 23 24  2  0
 24 25  1  0
 24 26  1  0
 26 27  2  0
 27 28  1  0
 27 29  1  0
 29 30  1  0
 29 31  2  0
 31 32  1  0
 21  2  1  0
 31 23  1  0
M  END
>  <cnnaffinity>  (1) 
-4.47545

>  <filename>  (1) 
CCOCC1=C[C@@H](c2cccnc2)CC1

$$$$
