
     RDKit          3D

 45 47  0  0  0  0  0  0  0  0999 V2000
    8.4150    7.7716   25.9939 C   0  0  0  0  0  0  0  0  0  0  0  0
    9.8265    7.3268   25.6717 C   0  0  0  0  0  0  0  0  0  0  0  0
    9.8182    6.3376   24.6249 O   0  0  0  0  0  0  0  0  0  0  0  0
    9.4260    5.0862   24.9125 C   0  0  0  0  0  0  0  0  0  0  0  0
    9.1260    4.7441   26.1599 N   0  0  0  0  0  0  0  0  0  0  0  0
    8.8095    3.4599   26.4037 C   0  0  0  0  0  0  0  0  0  0  0  0
    8.7967    2.4771   25.4284 C   0  0  0  0  0  0  0  0  0  0  0  0
    9.0639    2.8236   24.0840 C   0  0  0  0  0  0  0  0  0  0  0  0
    8.9797    1.8002   23.0036 C   0  0  0  0  0  0  0  0  0  0  0  0
    7.9444    1.0391   22.7041 N   0  0  0  0  0  0  0  0  0  0  0  0
    8.3825    0.3287   21.6366 C   0  0  0  0  0  0  0  0  0  0  0  0
    7.4982   -0.6524   20.9275 C   0  0  0  0  0  0  0  0  0  0  0  0
    6.6898   -0.0362   19.7934 C   0  0  0  0  0  0  0  0  0  0  0  0
    5.4830    0.6204   20.0741 C   0  0  0  0  0  0  0  0  0  0  0  0
    4.8264    1.2983   19.0472 C   0  0  0  0  0  0  0  0  0  0  0  0
    5.3996    1.3023   17.7716 C   0  0  0  0  0  0  0  0  0  0  0  0
    6.5378    0.6549   17.4729 N   0  0  0  0  0  0  0  0  0  0  0  0
    7.1519    0.0056   18.4674 C   0  0  0  0  0  0  0  0  0  0  0  0
    8.0750   -0.5108   18.2003 H   0  0  0  0  0  0  0  0  0  0  0  0
    4.9283    1.8453   16.9546 H   0  0  0  0  0  0  0  0  0  0  0  0
    3.8970    1.8326   19.2227 H   0  0  0  0  0  0  0  0  0  0  0  0
    5.0797    0.6037   21.0899 H   0  0  0  0  0  0  0  0  0  0  0  0
    8.1217   -1.4760   20.5680 H   0  0  0  0  0  0  0  0  0  0  0  0
    6.8144   -1.0473   21.6864 H   0  0  0  0  0  0  0  0  0  0  0  0
    9.6302    0.5762   21.2782 N   0  0  0  0  0  0  0  0  0  0  0  0
   10.0171    1.5149   22.1803 N   0  0  0  0  0  0  0  0  0  0  0  0
   11.4220    1.9380   22.2445 C   0  0  0  0  0  0  0  0  0  0  0  0
   11.8483    2.5254   20.9054 C   0  0  0  0  0  0  0  0  0  0  0  0
   12.2184    1.7294   20.2806 H   0  0  0  0  0  0  0  0  0  0  0  0
   12.6013    3.3127   21.0149 H   0  0  0  0  0  0  0  0  0  0  0  0
   10.9826    2.9181   20.3816 H   0  0  0  0  0  0  0  0  0  0  0  0
   12.3236    0.7685   22.7194 C   0  0  0  0  0  0  0  0  0  0  0  0
   12.1976   -0.3323   21.9747 F   0  0  0  0  0  0  0  0  0  0  0  0
   13.6223    1.1376   22.6704 F   0  0  0  0  0  0  0  0  0  0  0  0
   12.0660    0.4264   23.9925 F   0  0  0  0  0  0  0  0  0  0  0  0
   11.5296    2.6942   23.0240 H   0  0  0  0  0  0  0  0  0  0  0  0
    9.3899    4.1529   23.8343 C   0  0  0  0  0  0  0  0  0  0  0  0
    9.6756    4.5575   22.5850 F   0  0  0  0  0  0  0  0  0  0  0  0
    8.5799    1.4478   25.6908 H   0  0  0  0  0  0  0  0  0  0  0  0
    8.5404    3.2040   27.4235 H   0  0  0  0  0  0  0  0  0  0  0  0
   10.3341    6.9144   26.5520 H   0  0  0  0  0  0  0  0  0  0  0  0
   10.4277    8.1487   25.2725 H   0  0  0  0  0  0  0  0  0  0  0  0
    7.8979    8.0816   25.0807 H   0  0  0  0  0  0  0  0  0  0  0  0
    8.4339    8.6187   26.6844 H   0  0  0  0  0  0  0  0  0  0  0  0
    7.8538    6.9544   26.4542 H   0  0  0  0  0  0  0  0  0  0  0  0
  1  2  1  0
  2  3  1  0
  3  4  1  0
  4  5  2  0
  5  6  1  0
  6  7  2  0
  7  8  1  0
  8  9  1  0
  9 10  2  0
 10 11  1  0
 11 12  1  0
 12 13  1  0
 13 14  2  0
 14 15  1  0
 15 16  2  0
 16 17  1  0
 17 18  2  0
 18 19  1  0
 16 20  1  0
 15 21  1  0
 14 22  1  0
 12 23  1  0
 12 24  1  0
 11 25  2  0
 25 26  1  0
 26 27  1  0
 27 28  1  0
 28 29  1  0
 28 30  1  0
 28 31  1  0
 27 32  1  0
 32 33  1  0
 32 34  1  0
 32 35  1  0
 27 36  1  0
  8 37  2  0
 37 38  1  0
  7 39  1  0
  6 40  1  0
  2 41  1  0
  2 42  1  0
  1 43  1  0
  1 44  1  0
  1 45  1  0
 37  4  1  0
 26  9  1  0
 18 13  1  0
M  END
>  <cnnaffinity>  (1) 
-6.02074

>  <filename>  (1) 
CCOc1nccc(-c2nc(Cc3cccnc3)nn2C(C)C(F)(F)F)c1F

$$$$
