
     RDKit          3D

 45 48  0  0  0  0  0  0  0  0999 V2000
    6.6634   -4.3766   23.4159 C   0  0  0  0  0  0  0  0  0  0  0  0
    8.0881   -4.8984   23.5388 C   0  0  0  0  0  0  0  0  0  0  0  0
    9.0533   -3.8711   23.5072 O   0  0  0  0  0  0  0  0  0  0  0  0
    9.2452   -3.1921   22.2815 C   0  0  0  0  0  0  0  0  0  0  0  0
   10.6674   -2.6231   22.3610 C   0  0  0  0  0  0  0  0  0  0  0  0
   11.0008   -2.2767   21.3794 H   0  0  0  0  0  0  0  0  0  0  0  0
   11.3660   -3.3736   22.7483 H   0  0  0  0  0  0  0  0  0  0  0  0
   10.6682   -1.7720   23.0534 H   0  0  0  0  0  0  0  0  0  0  0  0
    8.2808   -2.0632   22.0176 C   0  0  0  0  0  0  0  0  0  0  0  0
    7.8755   -1.7596   20.7998 N   0  0  0  0  0  0  0  0  0  0  0  0
    7.2511   -0.5637   20.9663 N   0  0  0  0  0  0  0  0  0  0  0  0
    6.5570    0.0243   19.8804 C   0  0  0  0  0  0  0  0  0  0  0  0
    5.3252    0.6667   20.0615 C   0  0  0  0  0  0  0  0  0  0  0  0
    4.7661    1.3116   18.9578 C   0  0  0  0  0  0  0  0  0  0  0  0
    5.4321    1.2622   17.7302 C   0  0  0  0  0  0  0  0  0  0  0  0
    6.5823    0.5890   17.5411 N   0  0  0  0  0  0  0  0  0  0  0  0
    7.1225   -0.0265   18.5947 C   0  0  0  0  0  0  0  0  0  0  0  0
    8.0504   -0.5720   18.4248 H   0  0  0  0  0  0  0  0  0  0  0  0
    5.0240    1.7640   16.8581 H   0  0  0  0  0  0  0  0  0  0  0  0
    3.8332    1.8574   19.0453 H   0  0  0  0  0  0  0  0  0  0  0  0
    4.8398    0.6892   21.0387 H   0  0  0  0  0  0  0  0  0  0  0  0
    7.3719   -0.1826   22.2773 C   0  0  0  0  0  0  0  0  0  0  0  0
    7.0426    1.1629   22.8230 C   0  0  0  0  0  0  0  0  0  0  0  0
    7.3762    2.2276   22.0920 N   0  0  0  0  0  0  0  0  0  0  0  0
    7.1718    3.4579   22.6159 C   0  0  0  0  0  0  0  0  0  0  0  0
    6.6278    3.6790   23.8582 C   0  0  0  0  0  0  0  0  0  0  0  0
    6.2349    2.5717   24.6588 C   0  0  0  0  0  0  0  0  0  0  0  0
    5.6686    2.7285   25.9571 C   0  0  0  0  0  0  0  0  0  0  0  0
    5.3116    1.6292   26.7020 C   0  0  0  0  0  0  0  0  0  0  0  0
    5.4961    0.3222   26.1823 C   0  0  0  0  0  0  0  0  0  0  0  0
    6.0345    0.1327   24.9310 C   0  0  0  0  0  0  0  0  0  0  0  0
    6.4378    1.2568   24.1343 C   0  0  0  0  0  0  0  0  0  0  0  0
    6.1796   -0.8715   24.5381 H   0  0  0  0  0  0  0  0  0  0  0  0
    5.2230   -0.5417   26.7813 H   0  0  0  0  0  0  0  0  0  0  0  0
    4.8911    1.7505   27.6979 H   0  0  0  0  0  0  0  0  0  0  0  0
    5.5300    3.7349   26.3425 H   0  0  0  0  0  0  0  0  0  0  0  0
    6.5082    4.6911   24.2241 H   0  0  0  0  0  0  0  0  0  0  0  0
    7.4810    4.2859   21.9846 H   0  0  0  0  0  0  0  0  0  0  0  0
    7.9784   -1.1501   22.9567 N   0  0  0  0  0  0  0  0  0  0  0  0
    9.0675   -3.8665   21.4283 H   0  0  0  0  0  0  0  0  0  0  0  0
    8.2968   -5.6371   22.7437 H   0  0  0  0  0  0  0  0  0  0  0  0
    8.2581   -5.3917   24.5013 H   0  0  0  0  0  0  0  0  0  0  0  0
    6.4709   -3.5929   24.1585 H   0  0  0  0  0  0  0  0  0  0  0  0
    5.9658   -5.2014   23.5864 H   0  0  0  0  0  0  0  0  0  0  0  0
    6.4712   -3.9633   22.4183 H   0  0  0  0  0  0  0  0  0  0  0  0
  1  2  1  0
  2  3  1  0
  3  4  1  0
  4  5  1  0
  5  6  1  0
  5  7  1  0
  5  8  1  0
  4  9  1  0
  9 10  2  0
 10 11  1  0
 11 12  1  0
 12 13  2  0
 13 14  1  0
 14 15  2  0
 15 16  1  0
 16 17  2  0
 17 18  1  0
 15 19  1  0
 14 20  1  0
 13 21  1  0
 11 22  1  0
 22 23  1  0
 23 24  2  0
 24 25  1  0
 25 26  2  0
 26 27  1  0
 27 28  2  0
 28 29  1  0
 29 30  2  0
 30 31  1  0
 31 32  2  0
 31 33  1  0
 30 34  1  0
 29 35  1  0
 28 36  1  0
 26 37  1  0
 25 38  1  0
 22 39  2  0
  4 40  1  0
  2 41  1  0
  2 42  1  0
  1 43  1  0
  1 44  1  0
  1 45  1  0
 39  9  1  0
 17 12  1  0
 32 23  1  0
 32 27  1  0
M  END
>  <cnnaffinity>  (1) 
-6.00523

>  <filename>  (1) 
CCOC(C)c1nc(-c2nccc3ccccc23)n(-c2cccnc2)n1

$$$$
