
     RDKit          3D

 29 30  0  0  0  0  0  0  0  0999 V2000
    4.9606    1.8106   16.9919 H   0  0  0  0  0  0  0  0  0  0  0  0
    5.4143    1.2911   17.8340 C   0  0  0  0  0  0  0  0  0  0  0  0
    6.5706    0.6573   17.5779 N   0  0  0  0  0  0  0  0  0  0  0  0
    7.1840    0.0413   18.5905 C   0  0  0  0  0  0  0  0  0  0  0  0
    8.1154   -0.4756   18.3726 H   0  0  0  0  0  0  0  0  0  0  0  0
    6.6845    0.0354   19.9030 C   0  0  0  0  0  0  0  0  0  0  0  0
    7.4329   -0.6330   20.9237 N   0  0  0  0  0  0  0  0  0  0  0  0
    7.8153   -1.9209   20.7742 N   0  0  0  0  0  0  0  0  0  0  0  0
    8.3651   -2.2742   21.8757 N   0  0  0  0  0  0  0  0  0  0  0  0
    8.3710   -1.2552   22.7671 N   0  0  0  0  0  0  0  0  0  0  0  0
    7.8062   -0.2375   22.1675 C   0  0  0  0  0  0  0  0  0  0  0  0
    7.6702    1.1598   22.6774 C   0  0  0  0  0  0  0  0  0  0  0  0
    6.6275    1.4809   22.5927 H   0  0  0  0  0  0  0  0  0  0  0  0
    7.9436    1.1615   23.7354 H   0  0  0  0  0  0  0  0  0  0  0  0
    8.5819    2.1167   21.9098 C   0  0  0  0  0  0  0  0  0  0  0  0
    8.4663    3.1474   22.2850 H   0  0  0  0  0  0  0  0  0  0  0  0
    8.3251    2.1300   20.8381 H   0  0  0  0  0  0  0  0  0  0  0  0
    9.8943    1.6408   22.0997 O   0  0  0  0  0  0  0  0  0  0  0  0
   10.9382    2.4173   21.5537 C   0  0  0  0  0  0  0  0  0  0  0  0
   11.7502    1.7038   21.3906 H   0  0  0  0  0  0  0  0  0  0  0  0
   10.6495    2.8244   20.5697 H   0  0  0  0  0  0  0  0  0  0  0  0
   11.3821    3.5051   22.5271 C   0  0  0  0  0  0  0  0  0  0  0  0
   11.8315    3.0453   23.4109 H   0  0  0  0  0  0  0  0  0  0  0  0
   12.1183    4.1761   22.0770 H   0  0  0  0  0  0  0  0  0  0  0  0
   10.5387    4.1162   22.8686 H   0  0  0  0  0  0  0  0  0  0  0  0
    5.4576    0.6599   20.1596 C   0  0  0  0  0  0  0  0  0  0  0  0
    5.0045    0.6230   21.1513 H   0  0  0  0  0  0  0  0  0  0  0  0
    4.8123    1.3049   19.0955 C   0  0  0  0  0  0  0  0  0  0  0  0
    3.8715    1.8297   19.2351 H   0  0  0  0  0  0  0  0  0  0  0  0
  1  2  1  0
  2  3  2  0
  3  4  1  0
  4  5  1  0
  4  6  2  0
  6  7  1  0
  7  8  1  0
  8  9  2  0
  9 10  1  0
 10 11  2  0
 11 12  1  0
 12 13  1  0
 12 14  1  0
 12 15  1  0
 15 16  1  0
 15 17  1  0
 15 18  1  0
 18 19  1  0
 19 20  1  0
 19 21  1  0
 19 22  1  0
 22 23  1  0
 22 24  1  0
 22 25  1  0
  6 26  1  0
 26 27  1  0
 26 28  2  0
 28 29  1  0
 28  2  1  0
 11  7  1  0
M  END
>  <cnnaffinity>  (1) 
-4.84087

>  <filename>  (1) 
CCOCCc1nnnn1-c1cccnc1

$$$$
