
     RDKit          3D

 26 27  0  0  0  0  0  0  0  0999 V2000
    4.9634    1.7808   16.9915 H   0  0  0  0  0  0  0  0  0  0  0  0
    5.4210    1.2778   17.8414 C   0  0  0  0  0  0  0  0  0  0  0  0
    6.5847    0.6515   17.6059 N   0  0  0  0  0  0  0  0  0  0  0  0
    7.1862    0.0342   18.6277 C   0  0  0  0  0  0  0  0  0  0  0  0
    8.1355   -0.4454   18.3973 H   0  0  0  0  0  0  0  0  0  0  0  0
    6.6462    0.0029   19.9179 C   0  0  0  0  0  0  0  0  0  0  0  0
    7.3392   -0.6846   20.9960 C   0  0  0  0  0  0  0  0  0  0  0  0
    8.5194   -1.3516   20.8653 N   0  0  0  0  0  0  0  0  0  0  0  0
    8.7670   -1.7985   22.0640 C   0  0  0  0  0  0  0  0  0  0  0  0
    9.6326   -2.3825   22.3675 H   0  0  0  0  0  0  0  0  0  0  0  0
    7.7830   -1.4224   22.9076 N   0  0  0  0  0  0  0  0  0  0  0  0
    7.7881   -1.9408   24.5505 S   0  0  0  0  0  0  0  0  0  0  0  0
    7.3888   -3.3343   24.5829 O   0  0  0  0  0  0  0  0  0  0  0  0
    9.0718   -1.5131   25.0759 O   0  0  0  0  0  0  0  0  0  0  0  0
    6.4949   -0.9679   25.3218 C   0  0  0  0  0  0  0  0  0  0  0  0
    5.6107   -1.2353   24.7330 H   0  0  0  0  0  0  0  0  0  0  0  0
    6.8047    0.0590   25.1050 H   0  0  0  0  0  0  0  0  0  0  0  0
    6.3537   -1.2675   26.8266 C   0  0  0  0  0  0  0  0  0  0  0  0
    5.5548   -0.6604   27.2665 H   0  0  0  0  0  0  0  0  0  0  0  0
    6.1073   -2.3223   27.0051 H   0  0  0  0  0  0  0  0  0  0  0  0
    7.2807   -1.0408   27.3694 H   0  0  0  0  0  0  0  0  0  0  0  0
    6.8357   -0.7002   22.2163 N   0  0  0  0  0  0  0  0  0  0  0  0
    5.4274    0.6576   20.1581 C   0  0  0  0  0  0  0  0  0  0  0  0
    4.9869    0.6557   21.1554 H   0  0  0  0  0  0  0  0  0  0  0  0
    4.8072    1.3066   19.0976 C   0  0  0  0  0  0  0  0  0  0  0  0
    3.8735    1.8438   19.2296 H   0  0  0  0  0  0  0  0  0  0  0  0
  1  2  1  0
  2  3  2  0
  3  4  1  0
  4  5  1  0
  4  6  2  0
  6  7  1  0
  7  8  1  0
  8  9  2  0
  9 10  1  0
  9 11  1  0
 11 12  1  0
 12 13  2  0
 12 14  2  0
 12 15  1  0
 15 16  1  0
 15 17  1  0
 15 18  1  0
 18 19  1  0
 18 20  1  0
 18 21  1  0
 11 22  1  0
  6 23  1  0
 23 24  1  0
 23 25  2  0
 25 26  1  0
 25  2  1  0
 22  7  2  0
M  END
>  <cnnaffinity>  (1) 
-4.44568

>  <filename>  (1) 
CCS(=O)(=O)n1cnc(-c2cccnc2)n1

$$$$
