
     RDKit          3D

 34 35  0  0  0  0  0  0  0  0999 V2000
    7.1149   -2.3747   19.9919 H   0  0  0  0  0  0  0  0  0  0  0  0
    7.5419   -1.8595   20.8476 C   0  0  0  0  0  0  0  0  0  0  0  0
    7.1976   -0.5825   21.0694 C   0  0  0  0  0  0  0  0  0  0  0  0
    6.5581    0.1826   19.9697 C   0  0  0  0  0  0  0  0  0  0  0  0
    7.1183    0.1597   18.6739 C   0  0  0  0  0  0  0  0  0  0  0  0
    8.0611   -0.3654   18.5119 H   0  0  0  0  0  0  0  0  0  0  0  0
    6.5675    0.7331   17.6007 N   0  0  0  0  0  0  0  0  0  0  0  0
    5.3915    1.3563   17.7834 C   0  0  0  0  0  0  0  0  0  0  0  0
    4.9563    1.8060   16.8957 H   0  0  0  0  0  0  0  0  0  0  0  0
    4.7464    1.4434   19.0216 C   0  0  0  0  0  0  0  0  0  0  0  0
    3.7936    1.9549   19.0944 H   0  0  0  0  0  0  0  0  0  0  0  0
    5.3496    0.8696   20.1403 C   0  0  0  0  0  0  0  0  0  0  0  0
    4.8877    0.9166   21.1283 H   0  0  0  0  0  0  0  0  0  0  0  0
    7.3648    0.0575   22.4431 C   0  0  0  0  0  0  0  0  0  0  0  0
    7.5451    1.1324   22.3385 H   0  0  0  0  0  0  0  0  0  0  0  0
    6.4086   -0.0389   22.9807 H   0  0  0  0  0  0  0  0  0  0  0  0
    8.4604   -0.6074   23.3046 C   0  0  0  0  0  0  0  0  0  0  0  0
    9.4535   -0.3110   22.9408 H   0  0  0  0  0  0  0  0  0  0  0  0
    8.3865   -0.2369   24.3379 H   0  0  0  0  0  0  0  0  0  0  0  0
    8.3090   -2.1395   23.2087 C   0  0  2  0  0  0  0  0  0  0  0  0
    7.3056   -2.4244   23.5496 H   0  0  0  0  0  0  0  0  0  0  0  0
    9.4147   -3.1559   24.2104 S   0  0  0  0  0  0  0  0  0  0  0  0
    8.9641   -4.5402   24.0603 O   0  0  0  0  0  0  0  0  0  0  0  0
   10.7872   -2.7886   23.8787 O   0  0  0  0  0  0  0  0  0  0  0  0
    9.1688   -2.6564   25.9092 C   0  0  0  0  0  0  0  0  0  0  0  0
    9.6139   -1.6539   25.9441 H   0  0  0  0  0  0  0  0  0  0  0  0
    9.8356   -3.3372   26.4440 H   0  0  0  0  0  0  0  0  0  0  0  0
    7.7507   -2.6881   26.4770 C   0  0  0  0  0  0  0  0  0  0  0  0
    7.0835   -1.9984   25.9523 H   0  0  0  0  0  0  0  0  0  0  0  0
    7.7993   -2.3494   27.5177 H   0  0  0  0  0  0  0  0  0  0  0  0
    7.3004   -3.6882   26.4573 H   0  0  0  0  0  0  0  0  0  0  0  0
    8.4790   -2.6077   21.7482 C   0  0  0  0  0  0  0  0  0  0  0  0
    8.3253   -3.6884   21.6562 H   0  0  0  0  0  0  0  0  0  0  0  0
    9.5147   -2.4146   21.4201 H   0  0  0  0  0  0  0  0  0  0  0  0
  1  2  1  0
  2  3  2  0
  3  4  1  0
  4  5  2  0
  5  6  1  0
  5  7  1  0
  7  8  2  0
  8  9  1  0
  8 10  1  0
 10 11  1  0
 10 12  2  0
 12 13  1  0
  3 14  1  0
 14 15  1  0
 14 16  1  0
 14 17  1  0
 17 18  1  0
 17 19  1  0
 17 20  1  0
 20 21  1  1
 20 22  1  0
 22 23  2  0
 22 24  2  0
 22 25  1  0
 25 26  1  0
 25 27  1  0
 25 28  1  0
 28 29  1  0
 28 30  1  0
 28 31  1  0
 20 32  1  0
 32 33  1  0
 32 34  1  0
 32  2  1  0
 12  4  1  0
M  END
>  <cnnaffinity>  (1) 
-5.43671

>  <filename>  (1) 
CCS(=O)(=O)[C@@H]1CC=C(c2cccnc2)CC1

$$$$
