
     RDKit          3D

 28 29  0  0  0  0  0  0  0  0999 V2000
    4.9829    1.8050   16.9256 H   0  0  0  0  0  0  0  0  0  0  0  0
    5.4240    1.2891   17.7805 C   0  0  0  0  0  0  0  0  0  0  0  0
    6.5859    0.6516   17.5633 N   0  0  0  0  0  0  0  0  0  0  0  0
    7.1617    0.0290   18.6020 C   0  0  0  0  0  0  0  0  0  0  0  0
    8.1171   -0.4395   18.3738 H   0  0  0  0  0  0  0  0  0  0  0  0
    6.6214   -0.0046   19.9063 C   0  0  0  0  0  0  0  0  0  0  0  0
    7.2934   -0.5979   21.0731 C   0  0  0  0  0  0  0  0  0  0  0  0
    7.1547   -0.2736   22.3786 C   0  0  0  0  0  0  0  0  0  0  0  0
    6.5444    0.4679   22.8767 H   0  0  0  0  0  0  0  0  0  0  0  0
    8.0534   -1.0899   23.0983 N   0  0  0  0  0  0  0  0  0  0  0  0
    8.0962   -1.3647   24.7478 S   0  0  0  0  0  0  0  0  0  0  0  0
    7.1320   -0.4402   25.3181 O   0  0  0  0  0  0  0  0  0  0  0  0
    8.0167   -2.7856   25.0186 O   0  0  0  0  0  0  0  0  0  0  0  0
    9.7315   -0.7555   25.1091 C   0  0  0  0  0  0  0  0  0  0  0  0
    9.7740    0.1883   24.5572 H   0  0  0  0  0  0  0  0  0  0  0  0
   10.3848   -1.4887   24.6181 H   0  0  0  0  0  0  0  0  0  0  0  0
    9.9444   -0.5739   26.6134 C   0  0  0  0  0  0  0  0  0  0  0  0
   10.9625   -0.2215   26.8056 H   0  0  0  0  0  0  0  0  0  0  0  0
    9.2408    0.1577   27.0248 H   0  0  0  0  0  0  0  0  0  0  0  0
    9.7654   -1.5185   27.1387 H   0  0  0  0  0  0  0  0  0  0  0  0
    8.7847   -1.8640   22.2396 C   0  0  0  0  0  0  0  0  0  0  0  0
   10.0918   -2.8252   22.5277 S   0  0  0  0  0  0  0  0  0  0  0  0
    8.2644   -1.5885   21.0246 N   0  0  0  0  0  0  0  0  0  0  0  0
    8.5621   -2.1508   20.2473 H   0  0  0  0  0  0  0  0  0  0  0  0
    5.3940    0.6557   20.0999 C   0  0  0  0  0  0  0  0  0  0  0  0
    4.9250    0.6580   21.0857 H   0  0  0  0  0  0  0  0  0  0  0  0
    4.7916    1.3114   19.0280 C   0  0  0  0  0  0  0  0  0  0  0  0
    3.8598    1.8528   19.1483 H   0  0  0  0  0  0  0  0  0  0  0  0
  1  2  1  0
  2  3  2  0
  3  4  1  0
  4  5  1  0
  4  6  2  0
  6  7  1  0
  7  8  2  0
  8  9  1  0
  8 10  1  0
 10 11  1  0
 11 12  2  0
 11 13  2  0
 11 14  1  0
 14 15  1  0
 14 16  1  0
 14 17  1  0
 17 18  1  0
 17 19  1  0
 17 20  1  0
 10 21  1  0
 21 22  2  0
 21 23  1  0
 23 24  1  0
  6 25  1  0
 25 26  1  0
 25 27  2  0
 27 28  1  0
 27  2  1  0
 23  7  1  0
M  END
>  <cnnaffinity>  (1) 
-4.90896

>  <filename>  (1) 
CCS(=O)(=O)n1cc(-c2cccnc2)[nH]c1=S

$$$$
