
     RDKit          3D

 33 34  0  0  0  0  0  0  0  0999 V2000
    4.9709    1.8414   16.9317 H   0  0  0  0  0  0  0  0  0  0  0  0
    5.4121    1.3164   17.7769 C   0  0  0  0  0  0  0  0  0  0  0  0
    6.5613    0.6682   17.5375 N   0  0  0  0  0  0  0  0  0  0  0  0
    7.1347    0.0337   18.5690 C   0  0  0  0  0  0  0  0  0  0  0  0
    8.0613   -0.4973   18.3419 H   0  0  0  0  0  0  0  0  0  0  0  0
    6.6263    0.0145   19.8814 C   0  0  0  0  0  0  0  0  0  0  0  0
    7.3603   -0.6912   21.0084 C   0  0  0  0  0  0  0  0  0  0  0  0
    6.6173   -1.1309   21.6833 H   0  0  0  0  0  0  0  0  0  0  0  0
    7.9337   -1.5315   20.5981 H   0  0  0  0  0  0  0  0  0  0  0  0
    8.3338    0.1501   21.8973 C   0  0  1  0  0  0  0  0  0  0  0  0
    9.6826    0.7158   20.7843 S   0  0  0  0  0  0  0  0  0  0  0  0
   10.5310    1.9359   21.8411 C   0  0  0  0  0  0  0  0  0  0  0  0
   10.0323    2.9003   21.7151 H   0  0  0  0  0  0  0  0  0  0  0  0
   10.4163    1.6338   22.8876 H   0  0  0  0  0  0  0  0  0  0  0  0
   12.0184    2.0666   21.5362 C   0  0  0  0  0  0  0  0  0  0  0  0
   12.4894    2.7994   22.2012 H   0  0  0  0  0  0  0  0  0  0  0  0
   12.5217    1.1118   21.6961 H   0  0  0  0  0  0  0  0  0  0  0  0
   12.2034    2.3690   20.5033 H   0  0  0  0  0  0  0  0  0  0  0  0
    7.5991    1.2708   22.6735 C   0  0  0  0  0  0  0  0  0  0  0  0
    8.2845    2.1077   22.8899 H   0  0  0  0  0  0  0  0  0  0  0  0
    6.7630    1.6809   22.0985 H   0  0  0  0  0  0  0  0  0  0  0  0
    7.1049    0.6018   23.8751 N   0  0  0  0  0  0  0  0  0  0  0  0
    6.8912    1.2641   24.6128 H   0  0  0  0  0  0  0  0  0  0  0  0
    8.0991   -0.3808   24.3122 C   0  0  0  0  0  0  0  0  0  0  0  0
    7.5997   -1.2671   24.7250 H   0  0  0  0  0  0  0  0  0  0  0  0
    8.7648    0.0014   25.1038 H   0  0  0  0  0  0  0  0  0  0  0  0
    8.9182   -0.7123   23.0526 C   0  0  0  0  0  0  0  0  0  0  0  0
    8.8886   -1.7778   22.8082 H   0  0  0  0  0  0  0  0  0  0  0  0
    9.9730   -0.4757   23.2267 H   0  0  0  0  0  0  0  0  0  0  0  0
    5.3966    0.6601   20.0863 C   0  0  0  0  0  0  0  0  0  0  0  0
    4.9266    0.6404   21.0732 H   0  0  0  0  0  0  0  0  0  0  0  0
    4.7818    1.3256   19.0235 C   0  0  0  0  0  0  0  0  0  0  0  0
    3.8426    1.8555   19.1528 H   0  0  0  0  0  0  0  0  0  0  0  0
  1  2  1  0
  2  3  2  0
  3  4  1  0
  4  5  1  0
  4  6  2  0
  6  7  1  0
  7  8  1  0
  7  9  1  0
  7 10  1  0
 10 11  1  6
 11 12  1  0
 12 13  1  0
 12 14  1  0
 12 15  1  0
 15 16  1  0
 15 17  1  0
 15 18  1  0
 10 19  1  0
 19 20  1  0
 19 21  1  0
 19 22  1  0
 22 23  1  0
 22 24  1  0
 24 25  1  0
 24 26  1  0
 24 27  1  0
 27 28  1  0
 27 29  1  0
  6 30  1  0
 30 31  1  0
 30 32  2  0
 32 33  1  0
 32  2  1  0
 27 10  1  0
M  END
>  <cnnaffinity>  (1) 
-4.3646

>  <filename>  (1) 
CCS[C@@]1(Cc2cccnc2)CCNC1

$$$$
