
     RDKit          3D

 35 37  0  0  0  0  0  0  0  0999 V2000
    4.9670    1.7798   16.9740 H   0  0  0  0  0  0  0  0  0  0  0  0
    5.4228    1.2836   17.8275 C   0  0  0  0  0  0  0  0  0  0  0  0
    6.5791    0.6432   17.6038 N   0  0  0  0  0  0  0  0  0  0  0  0
    7.1660    0.0512   18.6550 C   0  0  0  0  0  0  0  0  0  0  0  0
    8.1110   -0.4433   18.4181 H   0  0  0  0  0  0  0  0  0  0  0  0
    6.6595    0.0391   19.9745 C   0  0  0  0  0  0  0  0  0  0  0  0
    7.4151   -0.6016   21.1678 C   0  0  2  0  0  0  0  0  0  0  0  0
    8.2311    0.7204   22.1676 S   0  0  0  0  0  0  0  0  0  0  0  0
    9.2529    1.4202   20.8542 C   0  0  0  0  0  0  0  0  0  0  0  0
    9.6226    0.6001   20.2255 H   0  0  0  0  0  0  0  0  0  0  0  0
    8.5846    2.0530   20.2627 H   0  0  0  0  0  0  0  0  0  0  0  0
   10.4291    2.2361   21.3472 C   0  0  0  0  0  0  0  0  0  0  0  0
   10.0936    3.1052   21.9171 H   0  0  0  0  0  0  0  0  0  0  0  0
   10.9907    2.5940   20.4772 H   0  0  0  0  0  0  0  0  0  0  0  0
   11.1079    1.6497   21.9721 H   0  0  0  0  0  0  0  0  0  0  0  0
    8.4577   -1.7119   20.7910 C   0  0  0  0  0  0  0  0  0  0  0  0
    8.5011   -1.8188   19.7185 H   0  0  0  0  0  0  0  0  0  0  0  0
    9.4749   -1.4600   21.1189 H   0  0  0  0  0  0  0  0  0  0  0  0
    7.9913   -2.9803   21.5434 C   0  0  2  0  0  0  0  0  0  0  0  0
    8.7790   -3.7321   21.6120 H   0  0  0  0  0  0  0  0  0  0  0  0
    6.6533   -3.5236   21.0064 C   0  0  0  0  0  0  0  0  0  0  0  0
    6.6524   -3.7663   19.9420 H   0  0  0  0  0  0  0  0  0  0  0  0
    6.3909   -4.4372   21.5520 H   0  0  0  0  0  0  0  0  0  0  0  0
    5.6552   -2.3904   21.3557 C   0  0  0  0  0  0  0  0  0  0  0  0
    5.3208   -1.9066   20.4334 H   0  0  0  0  0  0  0  0  0  0  0  0
    4.7814   -2.7387   21.9176 H   0  0  0  0  0  0  0  0  0  0  0  0
    6.5301   -1.4071   22.1736 C   0  0  1  0  0  0  0  0  0  0  0  0
    6.0244   -0.7393   22.8666 H   0  0  0  0  0  0  0  0  0  0  0  0
    7.5191   -2.3678   22.8628 C   0  0  0  0  0  0  0  0  0  0  0  0
    7.0169   -3.0857   23.5276 H   0  0  0  0  0  0  0  0  0  0  0  0
    8.3227   -1.8701   23.4176 H   0  0  0  0  0  0  0  0  0  0  0  0
    5.4442    0.7238   20.1693 C   0  0  0  0  0  0  0  0  0  0  0  0
    4.9849    0.7452   21.1590 H   0  0  0  0  0  0  0  0  0  0  0  0
    4.8131    1.3420   19.0848 C   0  0  0  0  0  0  0  0  0  0  0  0
    3.8687    1.8625   19.2037 H   0  0  0  0  0  0  0  0  0  0  0  0
  1  2  1  0
  2  3  2  0
  3  4  1  0
  4  5  1  0
  4  6  2  0
  6  7  1  0
  7  8  1  1
  8  9  1  0
  9 10  1  0
  9 11  1  0
  9 12  1  0
 12 13  1  0
 12 14  1  0
 12 15  1  0
  7 16  1  0
 16 17  1  0
 16 18  1  0
 16 19  1  0
 19 20  1  1
 19 21  1  0
 21 22  1  0
 21 23  1  0
 21 24  1  0
 24 25  1  0
 24 26  1  0
 24 27  1  0
 27 28  1  1
 27 29  1  0
 29 30  1  0
 29 31  1  0
  6 32  1  0
 32 33  1  0
 32 34  2  0
 34 35  1  0
 34  2  1  0
 27  7  1  0
 29 19  1  0
M  END
>  <cnnaffinity>  (1) 
-4.20048

>  <filename>  (1) 
CCS[C@@]1(c2cccnc2)C[C@@H]2CC[C@H]1C2

$$$$
