
     RDKit          3D

 28 29  0  0  0  0  0  0  0  0999 V2000
    4.9081    1.7799   16.9963 H   0  0  0  0  0  0  0  0  0  0  0  0
    5.3991    1.2958   17.8354 C   0  0  0  0  0  0  0  0  0  0  0  0
    6.5639    0.6832   17.5642 N   0  0  0  0  0  0  0  0  0  0  0  0
    7.1849    0.0783   18.5840 C   0  0  0  0  0  0  0  0  0  0  0  0
    8.1236   -0.4335   18.3765 H   0  0  0  0  0  0  0  0  0  0  0  0
    6.6744    0.0341   19.8943 C   0  0  0  0  0  0  0  0  0  0  0  0
    7.3645   -0.6646   20.9426 N   0  0  0  0  0  0  0  0  0  0  0  0
    8.6522   -0.2662   21.2654 C   0  0  0  0  0  0  0  0  0  0  0  0
    9.0604    0.5763   20.7087 H   0  0  0  0  0  0  0  0  0  0  0  0
    9.3595   -0.8898   22.2528 C   0  0  0  0  0  0  0  0  0  0  0  0
   10.9790   -0.3030   22.6721 S   0  0  0  0  0  0  0  0  0  0  0  0
   10.4759    0.9922   23.8454 C   0  0  0  0  0  0  0  0  0  0  0  0
   11.3107    1.6961   23.9031 H   0  0  0  0  0  0  0  0  0  0  0  0
    9.6269    1.5265   23.4048 H   0  0  0  0  0  0  0  0  0  0  0  0
   10.1265    0.4407   25.2146 C   0  0  0  0  0  0  0  0  0  0  0  0
    9.9032    1.2581   25.9061 H   0  0  0  0  0  0  0  0  0  0  0  0
    9.2506   -0.2133   25.1609 H   0  0  0  0  0  0  0  0  0  0  0  0
   10.9613   -0.1421   25.6119 H   0  0  0  0  0  0  0  0  0  0  0  0
    8.7527   -1.9676   22.9621 C   0  0  0  0  0  0  0  0  0  0  0  0
    9.3105   -2.4550   23.7614 H   0  0  0  0  0  0  0  0  0  0  0  0
    7.4880   -2.3795   22.6498 C   0  0  0  0  0  0  0  0  0  0  0  0
    6.9889   -3.1934   23.1435 H   0  0  0  0  0  0  0  0  0  0  0  0
    6.6961   -1.7575   21.6064 C   0  0  0  0  0  0  0  0  0  0  0  0
    5.5842   -2.1346   21.2799 O   0  0  0  0  0  0  0  0  0  0  0  0
    5.4485    0.6535   20.1597 C   0  0  0  0  0  0  0  0  0  0  0  0
    5.0172    0.6140   21.1626 H   0  0  0  0  0  0  0  0  0  0  0  0
    4.8094    1.3132   19.1064 C   0  0  0  0  0  0  0  0  0  0  0  0
    3.8733    1.8431   19.2635 H   0  0  0  0  0  0  0  0  0  0  0  0
  1  2  1  0
  2  3  2  0
  3  4  1  0
  4  5  1  0
  4  6  2  0
  6  7  1  0
  7  8  1  0
  8  9  1  0
  8 10  2  0
 10 11  1  0
 11 12  1  0
 12 13  1  0
 12 14  1  0
 12 15  1  0
 15 16  1  0
 15 17  1  0
 15 18  1  0
 10 19  1  0
 19 20  1  0
 19 21  2  0
 21 22  1  0
 21 23  1  0
 23 24  2  0
  6 25  1  0
 25 26  1  0
 25 27  2  0
 27 28  1  0
 27  2  1  0
 23  7  1  0
M  END
>  <cnnaffinity>  (1) 
-4.96229

>  <filename>  (1) 
CCSc1ccc(=O)n(-c2cccnc2)c1

$$$$
