
     RDKit          3D

 27 28  0  0  0  0  0  0  0  0999 V2000
    4.9136    1.7747   17.0017 H   0  0  0  0  0  0  0  0  0  0  0  0
    5.4036    1.2893   17.8446 C   0  0  0  0  0  0  0  0  0  0  0  0
    6.5703    0.6728   17.5834 N   0  0  0  0  0  0  0  0  0  0  0  0
    7.1999    0.0742   18.6019 C   0  0  0  0  0  0  0  0  0  0  0  0
    8.1381   -0.4289   18.3821 H   0  0  0  0  0  0  0  0  0  0  0  0
    6.6842    0.0331   19.9085 C   0  0  0  0  0  0  0  0  0  0  0  0
    7.3875   -0.6511   20.9485 N   0  0  0  0  0  0  0  0  0  0  0  0
    8.7220   -0.3134   21.0754 N   0  0  0  0  0  0  0  0  0  0  0  0
    9.4009   -0.9085   22.0209 C   0  0  0  0  0  0  0  0  0  0  0  0
   11.1026   -0.4574   22.2744 S   0  0  0  0  0  0  0  0  0  0  0  0
   10.8259    0.8726   23.4910 C   0  0  0  0  0  0  0  0  0  0  0  0
   11.7728    1.0255   24.0213 H   0  0  0  0  0  0  0  0  0  0  0  0
   10.0989    0.5192   24.2329 H   0  0  0  0  0  0  0  0  0  0  0  0
   10.3535    2.1528   22.8266 C   0  0  0  0  0  0  0  0  0  0  0  0
   11.0776    2.4757   22.0724 H   0  0  0  0  0  0  0  0  0  0  0  0
    9.3927    1.9936   22.3249 H   0  0  0  0  0  0  0  0  0  0  0  0
   10.2461    2.9469   23.5719 H   0  0  0  0  0  0  0  0  0  0  0  0
    8.8322   -1.8977   22.9044 C   0  0  0  0  0  0  0  0  0  0  0  0
    9.4511   -2.3476   23.6792 H   0  0  0  0  0  0  0  0  0  0  0  0
    7.5307   -2.2438   22.7531 C   0  0  0  0  0  0  0  0  0  0  0  0
    7.0237   -2.9835   23.3581 H   0  0  0  0  0  0  0  0  0  0  0  0
    6.6927   -1.6469   21.7203 C   0  0  0  0  0  0  0  0  0  0  0  0
    5.5405   -1.9750   21.4938 O   0  0  0  0  0  0  0  0  0  0  0  0
    5.4519    0.6488   20.1662 C   0  0  0  0  0  0  0  0  0  0  0  0
    5.0139    0.6142   21.1629 H   0  0  0  0  0  0  0  0  0  0  0  0
    4.8142    1.3095   19.1127 C   0  0  0  0  0  0  0  0  0  0  0  0
    3.8783    1.8395   19.2650 H   0  0  0  0  0  0  0  0  0  0  0  0
  1  2  1  0
  2  3  2  0
  3  4  1  0
  4  5  1  0
  4  6  2  0
  6  7  1  0
  7  8  1  0
  8  9  2  0
  9 10  1  0
 10 11  1  0
 11 12  1  0
 11 13  1  0
 11 14  1  0
 14 15  1  0
 14 16  1  0
 14 17  1  0
  9 18  1  0
 18 19  1  0
 18 20  2  0
 20 21  1  0
 20 22  1  0
 22 23  2  0
  6 24  1  0
 24 25  1  0
 24 26  2  0
 26 27  1  0
 26  2  1  0
 22  7  1  0
M  END
>  <cnnaffinity>  (1) 
-4.99336

>  <filename>  (1) 
CCSc1ccc(=O)n(-c2cccnc2)n1

$$$$
