
     RDKit          3D

 30 31  0  0  0  0  0  0  0  0999 V2000
    4.9096    1.8234   16.9457 H   0  0  0  0  0  0  0  0  0  0  0  0
    5.3982    1.3317   17.7859 C   0  0  0  0  0  0  0  0  0  0  0  0
    6.5618    0.7191   17.5236 N   0  0  0  0  0  0  0  0  0  0  0  0
    7.1798    0.1055   18.5429 C   0  0  0  0  0  0  0  0  0  0  0  0
    8.1230   -0.3837   18.2915 H   0  0  0  0  0  0  0  0  0  0  0  0
    6.6844    0.0498   19.8589 C   0  0  0  0  0  0  0  0  0  0  0  0
    7.3318   -0.7722   20.9606 C   0  0  0  0  0  0  0  0  0  0  0  0
    8.3226   -1.1410   20.6722 H   0  0  0  0  0  0  0  0  0  0  0  0
    7.4548   -0.1615   21.8699 H   0  0  0  0  0  0  0  0  0  0  0  0
    6.4663   -1.9578   21.4083 C   0  0  1  0  0  0  0  0  0  0  0  0
    5.5197   -1.5712   21.8063 H   0  0  0  0  0  0  0  0  0  0  0  0
    5.9585   -3.0019   20.0177 Cl  0  0  0  0  0  0  0  0  0  0  0  0
    7.1677   -2.6850   22.3604 O   0  0  0  0  0  0  0  0  0  0  0  0
    6.4204   -3.6879   23.0411 C   0  0  0  0  0  0  0  0  0  0  0  0
    6.0524   -4.4528   22.3417 H   0  0  0  0  0  0  0  0  0  0  0  0
    5.5455   -3.2190   23.5078 H   0  0  0  0  0  0  0  0  0  0  0  0
    7.2878   -4.3286   24.1065 C   0  0  0  0  0  0  0  0  0  0  0  0
    7.3261   -3.8304   25.4174 C   0  0  0  0  0  0  0  0  0  0  0  0
    6.7671   -2.9450   25.7040 H   0  0  0  0  0  0  0  0  0  0  0  0
    8.1041   -4.4859   26.3764 C   0  0  0  0  0  0  0  0  0  0  0  0
    8.1169   -4.1392   27.4077 H   0  0  0  0  0  0  0  0  0  0  0  0
    8.8586   -5.5583   26.1098 N   0  0  0  0  0  0  0  0  0  0  0  0
    8.8563   -6.0087   24.8504 C   0  0  0  0  0  0  0  0  0  0  0  0
    9.4993   -6.8612   24.6477 H   0  0  0  0  0  0  0  0  0  0  0  0
    8.0841   -5.4476   23.8276 C   0  0  0  0  0  0  0  0  0  0  0  0
    8.1032   -5.8914   22.8375 H   0  0  0  0  0  0  0  0  0  0  0  0
    5.4656    0.7047   20.1021 C   0  0  0  0  0  0  0  0  0  0  0  0
    5.0317    0.6966   21.1039 H   0  0  0  0  0  0  0  0  0  0  0  0
    4.8110    1.3521   19.0529 C   0  0  0  0  0  0  0  0  0  0  0  0
    3.8574    1.8503   19.2007 H   0  0  0  0  0  0  0  0  0  0  0  0
  1  2  1  0
  2  3  2  0
  3  4  1  0
  4  5  1  0
  4  6  2  0
  6  7  1  0
  7  8  1  0
  7  9  1  0
  7 10  1  0
 10 11  1  1
 10 12  1  0
 10 13  1  0
 13 14  1  0
 14 15  1  0
 14 16  1  0
 14 17  1  0
 17 18  2  0
 18 19  1  0
 18 20  1  0
 20 21  1  0
 20 22  2  0
 22 23  1  0
 23 24  1  0
 23 25  2  0
 25 26  1  0
  6 27  1  0
 27 28  1  0
 27 29  2  0
 29 30  1  0
 29  2  1  0
 25 17  1  0
M  END
>  <cnnaffinity>  (1) 
-4.5267

>  <filename>  (1) 
Cl[C@H](Cc1cccnc1)OCc1ccncc1

$$$$
