
     RDKit          3D

 23 24  0  0  0  0  0  0  0  0999 V2000
    5.6948    2.3764   24.8753 H   0  0  0  0  0  0  0  0  0  0  0  0
    6.2798    2.3697   23.9628 C   0  0  0  0  0  0  0  0  0  0  0  0
    6.9158    1.2147   23.5834 N   0  0  0  0  0  0  0  0  0  0  0  0
    7.5658    1.3899   22.4743 C   0  0  0  0  0  0  0  0  0  0  0  0
    8.3294    0.2989   21.7847 C   0  0  0  0  0  0  0  0  0  0  0  0
    8.8907   -0.2660   22.5347 H   0  0  0  0  0  0  0  0  0  0  0  0
    9.0403    0.7412   21.0866 H   0  0  0  0  0  0  0  0  0  0  0  0
    7.4570   -0.6831   20.9805 C   0  0  1  0  0  0  0  0  0  0  0  0
    8.1039   -1.4450   20.5278 H   0  0  0  0  0  0  0  0  0  0  0  0
    6.3984   -1.6268   22.0659 Cl  0  0  0  0  0  0  0  0  0  0  0  0
    6.6522   -0.0001   19.9044 C   0  0  0  0  0  0  0  0  0  0  0  0
    7.1639    0.0619   18.5997 C   0  0  0  0  0  0  0  0  0  0  0  0
    8.1088   -0.4252   18.3667 H   0  0  0  0  0  0  0  0  0  0  0  0
    6.5686    0.6814   17.5768 N   0  0  0  0  0  0  0  0  0  0  0  0
    5.4053    1.2950   17.8384 C   0  0  0  0  0  0  0  0  0  0  0  0
    4.9192    1.7816   16.9960 H   0  0  0  0  0  0  0  0  0  0  0  0
    4.8079    1.3092   19.1051 C   0  0  0  0  0  0  0  0  0  0  0  0
    3.8763    1.8437   19.2581 H   0  0  0  0  0  0  0  0  0  0  0  0
    5.4368    0.6492   20.1616 C   0  0  0  0  0  0  0  0  0  0  0  0
    5.0068    0.6331   21.1683 H   0  0  0  0  0  0  0  0  0  0  0  0
    7.4626    3.0003   21.8326 S   0  0  0  0  0  0  0  0  0  0  0  0
    6.4522    3.4381   23.1442 C   0  0  0  0  0  0  0  0  0  0  0  0
    6.0568    4.4359   23.2629 H   0  0  0  0  0  0  0  0  0  0  0  0
  1  2  1  0
  2  3  1  0
  3  4  2  0
  4  5  1  0
  5  6  1  0
  5  7  1  0
  5  8  1  0
  8  9  1  6
  8 10  1  0
  8 11  1  0
 11 12  2  0
 12 13  1  0
 12 14  1  0
 14 15  2  0
 15 16  1  0
 15 17  1  0
 17 18  1  0
 17 19  2  0
 19 20  1  0
  4 21  1  0
 21 22  1  0
 22 23  1  0
 22  2  2  0
 19 11  1  0
M  END
>  <cnnaffinity>  (1) 
-4.63289

>  <filename>  (1) 
Cl[C@H](Cc1nccs1)c1cccnc1

$$$$
