
     RDKit          3D

 29 30  0  0  0  0  0  0  0  0999 V2000
    4.9601    1.7064   16.8516 H   0  0  0  0  0  0  0  0  0  0  0  0
    5.3899    1.3319   17.7775 C   0  0  0  0  0  0  0  0  0  0  0  0
    6.5964    0.7581   17.6592 N   0  0  0  0  0  0  0  0  0  0  0  0
    7.1505    0.2720   18.7744 C   0  0  0  0  0  0  0  0  0  0  0  0
    8.1135   -0.2256   18.6472 H   0  0  0  0  0  0  0  0  0  0  0  0
    6.5555    0.3324   20.0497 C   0  0  0  0  0  0  0  0  0  0  0  0
    7.2378   -0.3357   21.2213 C   0  0  2  0  0  0  0  0  0  0  0  0
    6.7154   -0.1461   22.1691 H   0  0  0  0  0  0  0  0  0  0  0  0
    8.8780    0.3897   21.4107 Cl  0  0  0  0  0  0  0  0  0  0  0  0
    7.3402   -1.8453   20.9319 C   0  0  0  0  0  0  0  0  0  0  0  0
    8.0218   -1.9475   20.0821 H   0  0  0  0  0  0  0  0  0  0  0  0
    6.3534   -2.1721   20.5883 H   0  0  0  0  0  0  0  0  0  0  0  0
    7.7431   -2.7537   22.0037 C   0  0  0  0  0  0  0  0  0  0  0  0
    8.0348   -3.6396   22.7698 C   0  0  0  0  0  0  0  0  0  0  0  0
    8.5853   -4.4166   23.8424 C   0  0  0  0  0  0  0  0  0  0  0  0
    8.1270   -5.6842   24.2458 C   0  0  0  0  0  0  0  0  0  0  0  0
    7.3762   -6.2022   23.6564 H   0  0  0  0  0  0  0  0  0  0  0  0
    8.6624   -6.2671   25.3984 C   0  0  0  0  0  0  0  0  0  0  0  0
    8.2984   -7.2113   25.7892 H   0  0  0  0  0  0  0  0  0  0  0  0
    9.6829   -5.6288   26.0975 C   0  0  0  0  0  0  0  0  0  0  0  0
   10.0789   -6.0646   27.0021 H   0  0  0  0  0  0  0  0  0  0  0  0
   10.1992   -4.4218   25.6417 C   0  0  0  0  0  0  0  0  0  0  0  0
   11.0453   -3.9931   26.1446 H   0  0  0  0  0  0  0  0  0  0  0  0
    9.6364   -3.7975   24.5376 C   0  0  0  0  0  0  0  0  0  0  0  0
    9.9877   -2.8253   24.2085 H   0  0  0  0  0  0  0  0  0  0  0  0
    5.2955    0.9338   20.1513 C   0  0  0  0  0  0  0  0  0  0  0  0
    4.7878    1.0037   21.1179 H   0  0  0  0  0  0  0  0  0  0  0  0
    4.6985    1.4383   18.9891 C   0  0  0  0  0  0  0  0  0  0  0  0
    3.7209    1.9107   19.0044 H   0  0  0  0  0  0  0  0  0  0  0  0
  1  2  1  0
  2  3  2  0
  3  4  1  0
  4  5  1  0
  4  6  2  0
  6  7  1  0
  7  8  1  1
  7  9  1  0
  7 10  1  0
 10 11  1  0
 10 12  1  0
 10 13  1  0
 13 14  3  0
 14 15  1  0
 15 16  2  0
 16 17  1  0
 16 18  1  0
 18 19  1  0
 18 20  2  0
 20 21  1  0
 20 22  1  0
 22 23  1  0
 22 24  2  0
 24 25  1  0
  6 26  1  0
 26 27  1  0
 26 28  2  0
 28 29  1  0
 28  2  1  0
 24 15  1  0
M  END
>  <cnnaffinity>  (1) 
-4.4321

>  <filename>  (1) 
Cl[C@H](CC#Cc1ccccc1)c1cccnc1

$$$$
