
     RDKit          3D

 28 29  0  0  0  0  0  0  0  0999 V2000
    4.9627    1.7271   16.8985 H   0  0  0  0  0  0  0  0  0  0  0  0
    5.3984    1.3078   17.8033 C   0  0  0  0  0  0  0  0  0  0  0  0
    6.5965    0.7188   17.6563 N   0  0  0  0  0  0  0  0  0  0  0  0
    7.1731    0.2103   18.7503 C   0  0  0  0  0  0  0  0  0  0  0  0
    8.1342   -0.2843   18.5880 H   0  0  0  0  0  0  0  0  0  0  0  0
    6.6112    0.2717   20.0393 C   0  0  0  0  0  0  0  0  0  0  0  0
    7.3185   -0.3216   21.2400 C   0  0  2  0  0  0  0  0  0  0  0  0
    6.7992   -0.0788   22.1758 H   0  0  0  0  0  0  0  0  0  0  0  0
    8.9724    0.4047   21.3573 Cl  0  0  0  0  0  0  0  0  0  0  0  0
    7.4078   -1.8393   21.1119 C   0  0  0  0  0  0  0  0  0  0  0  0
    8.0922   -2.0670   20.2847 H   0  0  0  0  0  0  0  0  0  0  0  0
    6.4130   -2.1724   20.7913 H   0  0  0  0  0  0  0  0  0  0  0  0
    7.7695   -2.5567   22.3199 N   0  0  0  0  0  0  0  0  0  0  0  0
    8.5165   -2.1733   22.8848 H   0  0  0  0  0  0  0  0  0  0  0  0
    7.8160   -3.9243   22.2781 C   0  0  0  0  0  0  0  0  0  0  0  0
    8.3706   -4.6425   23.3416 C   0  0  0  0  0  0  0  0  0  0  0  0
    8.8233   -4.1446   24.1912 H   0  0  0  0  0  0  0  0  0  0  0  0
    8.2440   -6.0210   23.3278 C   0  0  0  0  0  0  0  0  0  0  0  0
    8.6300   -6.6147   24.1563 H   0  0  0  0  0  0  0  0  0  0  0  0
    7.6830   -6.7183   22.3316 N   0  0  0  0  0  0  0  0  0  0  0  0
    7.2194   -6.0126   21.2990 C   0  0  0  0  0  0  0  0  0  0  0  0
    6.7802   -6.5764   20.4875 H   0  0  0  0  0  0  0  0  0  0  0  0
    7.2495   -4.6359   21.2162 C   0  0  0  0  0  0  0  0  0  0  0  0
    6.8086   -4.1403   20.3674 H   0  0  0  0  0  0  0  0  0  0  0  0
    5.3407    0.8487   20.1615 C   0  0  0  0  0  0  0  0  0  0  0  0
    4.8528    0.8770   21.1359 H   0  0  0  0  0  0  0  0  0  0  0  0
    4.7296    1.3863   19.0258 C   0  0  0  0  0  0  0  0  0  0  0  0
    3.7610    1.8716   19.0776 H   0  0  0  0  0  0  0  0  0  0  0  0
  1  2  1  0
  2  3  2  0
  3  4  1  0
  4  5  1  0
  4  6  2  0
  6  7  1  0
  7  8  1  1
  7  9  1  0
  7 10  1  0
 10 11  1  0
 10 12  1  0
 10 13  1  0
 13 14  1  0
 13 15  1  0
 15 16  2  0
 16 17  1  0
 16 18  1  0
 18 19  1  0
 18 20  2  0
 20 21  1  0
 21 22  1  0
 21 23  2  0
 23 24  1  0
  6 25  1  0
 25 26  1  0
 25 27  2  0
 27 28  1  0
 27  2  1  0
 23 15  1  0
M  END
>  <cnnaffinity>  (1) 
-4.61927

>  <filename>  (1) 
Cl[C@H](CNc1ccncc1)c1cccnc1

$$$$
