
     RDKit          3D

 30 32  0  0  0  0  0  0  0  0999 V2000
    4.9658    1.7505   16.8986 H   0  0  0  0  0  0  0  0  0  0  0  0
    5.4067    1.3128   17.7944 C   0  0  0  0  0  0  0  0  0  0  0  0
    6.5945    0.7081   17.6475 N   0  0  0  0  0  0  0  0  0  0  0  0
    7.1527    0.1792   18.7441 C   0  0  0  0  0  0  0  0  0  0  0  0
    8.1047   -0.3254   18.5957 H   0  0  0  0  0  0  0  0  0  0  0  0
    6.5838    0.2243   20.0278 C   0  0  0  0  0  0  0  0  0  0  0  0
    7.2812   -0.4314   21.1936 C   0  0  2  0  0  0  0  0  0  0  0  0
    6.7810   -0.1758   22.1318 H   0  0  0  0  0  0  0  0  0  0  0  0
    8.9552    0.1955   21.3557 Cl  0  0  0  0  0  0  0  0  0  0  0  0
    7.3355   -1.9529   21.0171 C   0  0  0  0  0  0  0  0  0  0  0  0
    6.3349   -2.2958   20.7525 H   0  0  0  0  0  0  0  0  0  0  0  0
    8.0200   -2.1504   20.1966 H   0  0  0  0  0  0  0  0  0  0  0  0
    7.7925   -2.7386   22.1923 C   0  0  0  0  0  0  0  0  0  0  0  0
    7.0177   -3.2704   23.0961 N   0  0  0  0  0  0  0  0  0  0  0  0
    7.8832   -3.8802   23.9949 C   0  0  0  0  0  0  0  0  0  0  0  0
    7.6134   -4.6145   25.1673 C   0  0  0  0  0  0  0  0  0  0  0  0
    6.5835   -4.7298   25.5005 H   0  0  0  0  0  0  0  0  0  0  0  0
    8.6967   -5.1029   25.8975 C   0  0  0  0  0  0  0  0  0  0  0  0
    8.5140   -5.6744   26.8027 H   0  0  0  0  0  0  0  0  0  0  0  0
   10.0326   -4.8740   25.4849 C   0  0  0  0  0  0  0  0  0  0  0  0
   10.8638   -5.2372   26.0868 H   0  0  0  0  0  0  0  0  0  0  0  0
   10.3125   -4.1798   24.3094 C   0  0  0  0  0  0  0  0  0  0  0  0
   11.3356   -4.0321   23.9718 H   0  0  0  0  0  0  0  0  0  0  0  0
    9.2193   -3.6944   23.5831 C   0  0  0  0  0  0  0  0  0  0  0  0
    9.1249   -2.9711   22.4126 N   0  0  0  0  0  0  0  0  0  0  0  0
    9.8788   -2.7747   21.7729 H   0  0  0  0  0  0  0  0  0  0  0  0
    5.3293    0.8351   20.1556 C   0  0  0  0  0  0  0  0  0  0  0  0
    4.8243    0.8730   21.1245 H   0  0  0  0  0  0  0  0  0  0  0  0
    4.7318    1.3873   19.0183 C   0  0  0  0  0  0  0  0  0  0  0  0
    3.7666    1.8771   19.0671 H   0  0  0  0  0  0  0  0  0  0  0  0
  1  2  1  0
  2  3  2  0
  3  4  1  0
  4  5  1  0
  4  6  2  0
  6  7  1  0
  7  8  1  1
  7  9  1  0
  7 10  1  0
 10 11  1  0
 10 12  1  0
 10 13  1  0
 13 14  2  0
 14 15  1  0
 15 16  2  0
 16 17  1  0
 16 18  1  0
 18 19  1  0
 18 20  2  0
 20 21  1  0
 20 22  1  0
 22 23  1  0
 22 24  2  0
 24 25  1  0
 25 26  1  0
  6 27  1  0
 27 28  1  0
 27 29  2  0
 29 30  1  0
 29  2  1  0
 25 13  1  0
 24 15  1  0
M  END
>  <cnnaffinity>  (1) 
-5.27848

>  <filename>  (1) 
Cl[C@H](Cc1nc2ccccc2[nH]1)c1cccnc1

$$$$
