
     RDKit          3D

 29 30  0  0  0  0  0  0  0  0999 V2000
    4.9683    1.7197   16.8876 H   0  0  0  0  0  0  0  0  0  0  0  0
    5.4010    1.3096   17.7968 C   0  0  0  0  0  0  0  0  0  0  0  0
    6.5994    0.7222   17.6576 N   0  0  0  0  0  0  0  0  0  0  0  0
    7.1755    0.2227   18.7568 C   0  0  0  0  0  0  0  0  0  0  0  0
    8.1398   -0.2658   18.6008 H   0  0  0  0  0  0  0  0  0  0  0  0
    6.6049    0.2917   20.0424 C   0  0  0  0  0  0  0  0  0  0  0  0
    7.3089   -0.2884   21.2516 C   0  0  2  0  0  0  0  0  0  0  0  0
    6.7905   -0.0332   22.1828 H   0  0  0  0  0  0  0  0  0  0  0  0
    8.9657    0.4309   21.3694 Cl  0  0  0  0  0  0  0  0  0  0  0  0
    7.4021   -1.8061   21.1615 C   0  0  0  0  0  0  0  0  0  0  0  0
    8.1043   -2.0424   20.3497 H   0  0  0  0  0  0  0  0  0  0  0  0
    6.4113   -2.1506   20.8352 H   0  0  0  0  0  0  0  0  0  0  0  0
    7.7471   -2.4823   22.4045 N   0  0  0  0  0  0  0  0  0  0  0  0
    8.5462   -2.0990   22.9019 H   0  0  0  0  0  0  0  0  0  0  0  0
    7.7926   -3.8776   22.3643 C   0  0  0  0  0  0  0  0  0  0  0  0
    8.3443   -4.5894   23.4434 C   0  0  0  0  0  0  0  0  0  0  0  0
    8.8206   -4.0483   24.2535 H   0  0  0  0  0  0  0  0  0  0  0  0
    8.2637   -5.9826   23.4782 C   0  0  0  0  0  0  0  0  0  0  0  0
    8.6232   -6.5143   24.3557 H   0  0  0  0  0  0  0  0  0  0  0  0
    7.6903   -6.6857   22.4141 C   0  0  0  0  0  0  0  0  0  0  0  0
    7.6223   -7.7685   22.4570 H   0  0  0  0  0  0  0  0  0  0  0  0
    7.1769   -5.9853   21.3210 C   0  0  0  0  0  0  0  0  0  0  0  0
    6.6853   -6.4920   20.4977 H   0  0  0  0  0  0  0  0  0  0  0  0
    7.2330   -4.5941   21.2906 C   0  0  0  0  0  0  0  0  0  0  0  0
    6.8425   -4.0550   20.4354 H   0  0  0  0  0  0  0  0  0  0  0  0
    5.3333    0.8675   20.1560 C   0  0  0  0  0  0  0  0  0  0  0  0
    4.8443    0.9072   21.1310 H   0  0  0  0  0  0  0  0  0  0  0  0
    4.7217    1.3952   19.0153 C   0  0  0  0  0  0  0  0  0  0  0  0
    3.7508    1.8785   19.0581 H   0  0  0  0  0  0  0  0  0  0  0  0
  1  2  1  0
  2  3  2  0
  3  4  1  0
  4  5  1  0
  4  6  2  0
  6  7  1  0
  7  8  1  1
  7  9  1  0
  7 10  1  0
 10 11  1  0
 10 12  1  0
 10 13  1  0
 13 14  1  0
 13 15  1  0
 15 16  2  0
 16 17  1  0
 16 18  1  0
 18 19  1  0
 18 20  2  0
 20 21  1  0
 20 22  1  0
 22 23  1  0
 22 24  2  0
 24 25  1  0
  6 26  1  0
 26 27  1  0
 26 28  2  0
 28 29  1  0
 28  2  1  0
 24 15  1  0
M  END
>  <cnnaffinity>  (1) 
-4.58119

>  <filename>  (1) 
Cl[C@H](CNc1ccccc1)c1cccnc1

$$$$
