
     RDKit          3D

 32 34  0  0  0  0  0  0  0  0999 V2000
    6.7396   -1.4014   21.5809 H   0  0  0  0  0  0  0  0  0  0  0  0
    7.3335   -0.7277   20.9596 C   0  0  0  0  0  0  0  0  0  0  0  0
    8.6027   -0.5716   21.3313 C   0  0  0  0  0  0  0  0  0  0  0  0
    9.6413    0.6317   20.6016 Cl  0  0  0  0  0  0  0  0  0  0  0  0
    9.2137   -1.3267   22.4697 C   0  0  1  0  0  0  0  0  0  0  0  0
    9.5562   -2.3267   22.2024 H   0  0  0  0  0  0  0  0  0  0  0  0
    9.9296   -0.5699   23.5465 C   0  0  0  0  0  0  0  0  0  0  0  0
    9.9953    0.5128   23.4394 H   0  0  0  0  0  0  0  0  0  0  0  0
   10.8004   -1.0293   24.0068 H   0  0  0  0  0  0  0  0  0  0  0  0
    8.5780   -1.1788   23.8332 C   0  0  2  0  0  0  0  0  0  0  0  0
    7.7502   -0.4733   23.8902 H   0  0  0  0  0  0  0  0  0  0  0  0
    8.4278   -2.3579   24.7315 C   0  0  0  0  0  0  0  0  0  0  0  0
    7.3112   -2.4511   25.5796 C   0  0  0  0  0  0  0  0  0  0  0  0
    6.5562   -1.6671   25.5526 H   0  0  0  0  0  0  0  0  0  0  0  0
    7.1726   -3.5313   26.4580 C   0  0  0  0  0  0  0  0  0  0  0  0
    6.3037   -3.5886   27.1083 H   0  0  0  0  0  0  0  0  0  0  0  0
    8.1503   -4.5311   26.4953 C   0  0  0  0  0  0  0  0  0  0  0  0
    8.0491   -5.3753   27.1730 H   0  0  0  0  0  0  0  0  0  0  0  0
    9.2643   -4.4467   25.6529 C   0  0  0  0  0  0  0  0  0  0  0  0
   10.0342   -5.2118   25.6731 H   0  0  0  0  0  0  0  0  0  0  0  0
    9.3992   -3.3688   24.7761 C   0  0  0  0  0  0  0  0  0  0  0  0
   10.2789   -3.3058   24.1385 H   0  0  0  0  0  0  0  0  0  0  0  0
    6.6270   -0.0136   19.8757 C   0  0  0  0  0  0  0  0  0  0  0  0
    7.1532    0.0632   18.5743 C   0  0  0  0  0  0  0  0  0  0  0  0
    8.0996   -0.4206   18.3416 H   0  0  0  0  0  0  0  0  0  0  0  0
    6.5483    0.6906   17.5592 N   0  0  0  0  0  0  0  0  0  0  0  0
    5.3860    1.3056   17.8235 C   0  0  0  0  0  0  0  0  0  0  0  0
    4.9147    1.8002   16.9775 H   0  0  0  0  0  0  0  0  0  0  0  0
    4.7883    1.3178   19.0899 C   0  0  0  0  0  0  0  0  0  0  0  0
    3.8620    1.8558   19.2429 H   0  0  0  0  0  0  0  0  0  0  0  0
    5.4161    0.6379   20.1344 C   0  0  0  0  0  0  0  0  0  0  0  0
    5.0058    0.6298   21.1467 H   0  0  0  0  0  0  0  0  0  0  0  0
  1  2  1  0
  2  3  2  3
  3  4  1  0
  3  5  1  0
  5  6  1  6
  5  7  1  0
  7  8  1  0
  7  9  1  0
  7 10  1  0
 10 11  1  6
 10 12  1  0
 12 13  2  0
 13 14  1  0
 13 15  1  0
 15 16  1  0
 15 17  2  0
 17 18  1  0
 17 19  1  0
 19 20  1  0
 19 21  2  0
 21 22  1  0
  2 23  1  0
 23 24  2  0
 24 25  1  0
 24 26  1  0
 26 27  2  0
 27 28  1  0
 27 29  1  0
 29 30  1  0
 29 31  2  0
 31 32  1  0
 10  5  1  0
 21 12  1  0
 31 23  1  0
M  END
>  <cnnaffinity>  (1) 
-5.11471

>  <filename>  (1) 
ClC(=Cc1cccnc1)[C@H]1C[C@@H]1c1ccccc1

$$$$
