
     RDKit          3D

 32 34  0  0  0  0  0  0  0  0999 V2000
    5.5839   -2.6829   25.3440 Cl  0  0  0  0  0  0  0  0  0  0  0  0
    5.6891   -3.4999   23.8013 C   0  0  0  0  0  0  0  0  0  0  0  0
    4.6331   -4.3262   23.4053 C   0  0  0  0  0  0  0  0  0  0  0  0
    4.6868   -5.0042   22.1839 C   0  0  0  0  0  0  0  0  0  0  0  0
    5.7805   -4.8261   21.3315 C   0  0  0  0  0  0  0  0  0  0  0  0
    5.8211   -5.6826   19.6253 Br  0  0  0  0  0  0  0  0  0  0  0  0
    6.8318   -3.9858   21.7169 C   0  0  0  0  0  0  0  0  0  0  0  0
    6.8074   -3.3344   22.9603 C   0  0  0  0  0  0  0  0  0  0  0  0
    7.9788   -2.4837   23.3885 C   0  0  0  0  0  0  0  0  0  0  0  0
    7.6175   -1.0611   23.3812 N   0  0  0  0  0  0  0  0  0  0  0  0
    7.3897   -0.2710   24.4836 C   0  0  0  0  0  0  0  0  0  0  0  0
    6.8658    0.8687   24.1188 N   0  0  0  0  0  0  0  0  0  0  0  0
    6.7667    0.8440   22.7476 N   0  0  0  0  0  0  0  0  0  0  0  0
    7.2282   -0.2989   22.3090 C   0  0  0  0  0  0  0  0  0  0  0  0
    7.3559   -0.7040   20.9782 N   0  0  0  0  0  0  0  0  0  0  0  0
    6.7398   -0.0401   19.8857 C   0  0  0  0  0  0  0  0  0  0  0  0
    5.5810    0.6909   20.1365 C   0  0  0  0  0  0  0  0  0  0  0  0
    4.9500    1.3564   19.0808 C   0  0  0  0  0  0  0  0  0  0  0  0
    5.4909    1.2933   17.7907 C   0  0  0  0  0  0  0  0  0  0  0  0
    6.5937    0.5704   17.5100 N   0  0  0  0  0  0  0  0  0  0  0  0
    7.1935   -0.0830   18.5360 C   0  0  0  0  0  0  0  0  0  0  0  0
    8.0802   -0.6649   18.3058 H   0  0  0  0  0  0  0  0  0  0  0  0
    4.9974    1.8418   16.9930 H   0  0  0  0  0  0  0  0  0  0  0  0
    4.0447    1.9276   19.2558 H   0  0  0  0  0  0  0  0  0  0  0  0
    5.1833    0.7142   21.1482 H   0  0  0  0  0  0  0  0  0  0  0  0
    7.8943   -1.5493   20.8221 H   0  0  0  0  0  0  0  0  0  0  0  0
    7.6028   -0.5478   25.5124 H   0  0  0  0  0  0  0  0  0  0  0  0
    8.8466   -2.6620   22.7486 H   0  0  0  0  0  0  0  0  0  0  0  0
    8.2689   -2.7799   24.3994 H   0  0  0  0  0  0  0  0  0  0  0  0
    7.6608   -3.8378   21.0320 H   0  0  0  0  0  0  0  0  0  0  0  0
    3.8642   -5.6538   21.8984 H   0  0  0  0  0  0  0  0  0  0  0  0
    3.7688   -4.4275   24.0546 H   0  0  0  0  0  0  0  0  0  0  0  0
  1  2  1  0
  2  3  2  0
  3  4  1  0
  4  5  2  0
  5  6  1  0
  5  7  1  0
  7  8  2  0
  8  9  1  0
  9 10  1  0
 10 11  1  0
 11 12  2  0
 12 13  1  0
 13 14  2  0
 14 15  1  0
 15 16  1  0
 16 17  2  0
 17 18  1  0
 18 19  2  0
 19 20  1  0
 20 21  2  0
 21 22  1  0
 19 23  1  0
 18 24  1  0
 17 25  1  0
 15 26  1  0
 11 27  1  0
  9 28  1  0
  9 29  1  0
  7 30  1  0
  4 31  1  0
  3 32  1  0
  8  2  1  0
 14 10  1  0
 21 16  1  0
M  END
>  <cnnaffinity>  (1) 
-5.47127

>  <filename>  (1) 
Clc1ccc(Br)cc1Cn1cnnc1Nc1cccnc1

$$$$
