
     RDKit          3D

 25 27  0  0  0  0  0  0  0  0999 V2000
    4.9213    1.7896   16.9919 H   0  0  0  0  0  0  0  0  0  0  0  0
    5.4015    1.2967   17.8347 C   0  0  0  0  0  0  0  0  0  0  0  0
    6.5659    0.6796   17.5730 N   0  0  0  0  0  0  0  0  0  0  0  0
    7.1663    0.0589   18.5930 C   0  0  0  0  0  0  0  0  0  0  0  0
    8.1167   -0.4188   18.3636 H   0  0  0  0  0  0  0  0  0  0  0  0
    6.6589    0.0079   19.9113 C   0  0  0  0  0  0  0  0  0  0  0  0
    7.3607   -0.6886   21.0133 C   0  0  0  0  0  0  0  0  0  0  0  0
    7.9143   -2.2939   20.7956 S   0  0  0  0  0  0  0  0  0  0  0  0
    8.4401   -2.4425   22.4093 C   0  0  0  0  0  0  0  0  0  0  0  0
    8.9026   -3.3680   22.7261 H   0  0  0  0  0  0  0  0  0  0  0  0
    8.2040   -1.3111   23.1161 C   0  0  0  0  0  0  0  0  0  0  0  0
    8.4566   -1.1788   24.1616 H   0  0  0  0  0  0  0  0  0  0  0  0
    7.5937   -0.2815   22.3188 C   0  0  0  0  0  0  0  0  0  0  0  0
    7.3068    1.0624   22.8069 C   0  0  0  0  0  0  0  0  0  0  0  0
    6.8853    1.3370   24.4701 S   0  0  0  0  0  0  0  0  0  0  0  0
    6.8233    3.0366   24.1905 C   0  0  0  0  0  0  0  0  0  0  0  0
    6.4410    4.1022   25.4747 Cl  0  0  0  0  0  0  0  0  0  0  0  0
    7.1117    3.3913   22.9076 C   0  0  0  0  0  0  0  0  0  0  0  0
    7.1137    4.4220   22.5568 H   0  0  0  0  0  0  0  0  0  0  0  0
    7.3998    2.2450   22.1171 C   0  0  0  0  0  0  0  0  0  0  0  0
    7.6590    2.2831   21.0645 H   0  0  0  0  0  0  0  0  0  0  0  0
    5.4274    0.6381   20.1523 C   0  0  0  0  0  0  0  0  0  0  0  0
    5.0092    0.6337   21.1602 H   0  0  0  0  0  0  0  0  0  0  0  0
    4.8004    1.3043   19.0972 C   0  0  0  0  0  0  0  0  0  0  0  0
    3.8722    1.8425   19.2508 H   0  0  0  0  0  0  0  0  0  0  0  0
  1  2  1  0
  2  3  2  0
  3  4  1  0
  4  5  1  0
  4  6  2  0
  6  7  1  0
  7  8  1  0
  8  9  1  0
  9 10  1  0
  9 11  2  0
 11 12  1  0
 11 13  1  0
 13 14  1  0
 14 15  1  0
 15 16  1  0
 16 17  1  0
 16 18  2  0
 18 19  1  0
 18 20  1  0
 20 21  1  0
  6 22  1  0
 22 23  1  0
 22 24  2  0
 24 25  1  0
 24  2  1  0
 13  7  2  0
 20 14  2  0
M  END
>  <cnnaffinity>  (1) 
-4.78445

>  <filename>  (1) 
Clc1ccc(-c2ccsc2-c2cccnc2)s1

$$$$
