
     RDKit          3D

 31 33  0  0  0  0  0  0  0  0999 V2000
    9.0934   -2.7169   23.7103 H   0  0  0  0  0  0  0  0  0  0  0  0
    8.6081   -2.1233   22.9340 C   0  0  0  0  0  0  0  0  0  0  0  0
    7.4978   -2.6205   22.4134 N   0  0  0  0  0  0  0  0  0  0  0  0
    6.9125   -1.8725   21.4693 C   0  0  0  0  0  0  0  0  0  0  0  0
    5.9844   -2.2624   21.0588 H   0  0  0  0  0  0  0  0  0  0  0  0
    7.4131   -0.6921   20.9608 C   0  0  0  0  0  0  0  0  0  0  0  0
    6.6970    0.0476   19.8390 C   0  0  0  0  0  0  0  0  0  0  0  0
    7.1693    0.1084   18.5028 C   0  0  0  0  0  0  0  0  0  0  0  0
    8.1080   -0.3817   18.2456 H   0  0  0  0  0  0  0  0  0  0  0  0
    6.5318    0.7165   17.4913 N   0  0  0  0  0  0  0  0  0  0  0  0
    5.3730    1.3309   17.7767 C   0  0  0  0  0  0  0  0  0  0  0  0
    4.8859    1.8470   16.9494 H   0  0  0  0  0  0  0  0  0  0  0  0
    4.7980    1.3292   19.0500 C   0  0  0  0  0  0  0  0  0  0  0  0
    3.8579    1.8482   19.2084 H   0  0  0  0  0  0  0  0  0  0  0  0
    5.4615    0.6649   20.0890 C   0  0  0  0  0  0  0  0  0  0  0  0
    5.0445    0.6286   21.0955 H   0  0  0  0  0  0  0  0  0  0  0  0
    8.5974   -0.2947   21.6321 C   0  0  0  0  0  0  0  0  0  0  0  0
    9.2121    0.8387   21.2120 N   0  0  0  0  0  0  0  0  0  0  0  0
    8.7109    1.2565   20.4517 H   0  0  0  0  0  0  0  0  0  0  0  0
   10.0920    1.6710   21.9325 C   0  0  0  0  0  0  0  0  0  0  0  0
   11.0671    2.3801   21.2196 C   0  0  0  0  0  0  0  0  0  0  0  0
   11.1357    2.2455   20.1461 H   0  0  0  0  0  0  0  0  0  0  0  0
   11.9595    3.2332   21.8798 C   0  0  0  0  0  0  0  0  0  0  0  0
   12.7245    3.7794   21.3343 H   0  0  0  0  0  0  0  0  0  0  0  0
   11.8545    3.3989   23.2620 C   0  0  0  0  0  0  0  0  0  0  0  0
   12.8326    4.5939   24.0650 Cl  0  0  0  0  0  0  0  0  0  0  0  0
   10.9277    2.6470   23.9869 C   0  0  0  0  0  0  0  0  0  0  0  0
   10.8972    2.6964   25.0621 H   0  0  0  0  0  0  0  0  0  0  0  0
   10.0355    1.8005   23.3274 C   0  0  0  0  0  0  0  0  0  0  0  0
    9.2888    1.2326   23.8746 H   0  0  0  0  0  0  0  0  0  0  0  0
    9.1731   -0.9686   22.6142 N   0  0  0  0  0  0  0  0  0  0  0  0
  1  2  1  0
  2  3  2  0
  3  4  1  0
  4  5  1  0
  4  6  2  0
  6  7  1  0
  7  8  2  0
  8  9  1  0
  8 10  1  0
 10 11  2  0
 11 12  1  0
 11 13  1  0
 13 14  1  0
 13 15  2  0
 15 16  1  0
  6 17  1  0
 17 18  1  0
 18 19  1  0
 18 20  1  0
 20 21  2  0
 21 22  1  0
 21 23  1  0
 23 24  1  0
 23 25  2  0
 25 26  1  0
 25 27  1  0
 27 28  1  0
 27 29  2  0
 29 30  1  0
 17 31  2  0
 31  2  1  0
 15  7  1  0
 29 20  1  0
M  END
>  <cnnaffinity>  (1) 
-5.62949

>  <filename>  (1) 
Clc1ccc(Nc2ncncc2-c2cccnc2)cc1

$$$$
