
     RDKit          3D

 35 37  0  0  0  0  0  0  0  0999 V2000
    7.3749   -2.3722   20.0273 H   0  0  0  0  0  0  0  0  0  0  0  0
    7.7814   -1.7971   20.8471 C   0  0  0  0  0  0  0  0  0  0  0  0
    7.3423   -0.5449   21.0433 C   0  0  0  0  0  0  0  0  0  0  0  0
    6.6278    0.1558   19.9516 C   0  0  0  0  0  0  0  0  0  0  0  0
    7.1417    0.1324   18.6360 C   0  0  0  0  0  0  0  0  0  0  0  0
    8.0793   -0.3906   18.4477 H   0  0  0  0  0  0  0  0  0  0  0  0
    6.5634    0.7125   17.5778 N   0  0  0  0  0  0  0  0  0  0  0  0
    5.3934    1.3357   17.7972 C   0  0  0  0  0  0  0  0  0  0  0  0
    4.9293    1.7977   16.9295 H   0  0  0  0  0  0  0  0  0  0  0  0
    4.7685    1.3923   19.0475 C   0  0  0  0  0  0  0  0  0  0  0  0
    3.8141    1.8952   19.1500 H   0  0  0  0  0  0  0  0  0  0  0  0
    5.3997    0.8045   20.1458 C   0  0  0  0  0  0  0  0  0  0  0  0
    4.9465    0.8262   21.1390 H   0  0  0  0  0  0  0  0  0  0  0  0
    7.4521    0.0815   22.4383 C   0  0  0  0  0  0  0  0  0  0  0  0
    7.5699    1.1671   22.3850 H   0  0  0  0  0  0  0  0  0  0  0  0
    6.5058   -0.1347   22.9584 H   0  0  0  0  0  0  0  0  0  0  0  0
    8.5902   -0.5560   23.2495 C   0  0  0  0  0  0  0  0  0  0  0  0
    8.5495   -0.2757   24.3071 H   0  0  0  0  0  0  0  0  0  0  0  0
    9.5923   -0.2758   22.8816 H   0  0  0  0  0  0  0  0  0  0  0  0
    8.4169   -2.0365   23.1853 N   0  0  0  0  0  0  0  0  0  0  0  0
    9.3950   -2.6189   23.9712 O   0  0  0  0  0  0  0  0  0  0  0  0
    8.8878   -3.1079   25.1855 C   0  0  0  0  0  0  0  0  0  0  0  0
    9.7865   -3.8760   25.9165 C   0  0  0  0  0  0  0  0  0  0  0  0
   10.7824   -4.0446   25.5241 H   0  0  0  0  0  0  0  0  0  0  0  0
    9.3834   -4.4018   27.1505 C   0  0  0  0  0  0  0  0  0  0  0  0
   10.0742   -5.0103   27.7365 H   0  0  0  0  0  0  0  0  0  0  0  0
    8.0997   -4.1393   27.6455 C   0  0  0  0  0  0  0  0  0  0  0  0
    7.7419   -4.5479   28.5817 H   0  0  0  0  0  0  0  0  0  0  0  0
    7.2304   -3.3503   26.8963 C   0  0  0  0  0  0  0  0  0  0  0  0
    5.6309   -3.0376   27.4944 Cl  0  0  0  0  0  0  0  0  0  0  0  0
    7.6068   -2.8213   25.6671 C   0  0  0  0  0  0  0  0  0  0  0  0
    6.9011   -2.2352   25.0968 H   0  0  0  0  0  0  0  0  0  0  0  0
    8.7067   -2.4979   21.8014 C   0  0  0  0  0  0  0  0  0  0  0  0
    9.7763   -2.3198   21.5746 H   0  0  0  0  0  0  0  0  0  0  0  0
    8.5420   -3.5762   21.7895 H   0  0  0  0  0  0  0  0  0  0  0  0
  1  2  1  0
  2  3  2  0
  3  4  1  0
  4  5  2  0
  5  6  1  0
  5  7  1  0
  7  8  2  0
  8  9  1  0
  8 10  1  0
 10 11  1  0
 10 12  2  0
 12 13  1  0
  3 14  1  0
 14 15  1  0
 14 16  1  0
 14 17  1  0
 17 18  1  0
 17 19  1  0
 17 20  1  0
 20 21  1  0
 21 22  1  0
 22 23  2  0
 23 24  1  0
 23 25  1  0
 25 26  1  0
 25 27  2  0
 27 28  1  0
 27 29  1  0
 29 30  1  0
 29 31  2  0
 31 32  1  0
 20 33  1  0
 33 34  1  0
 33 35  1  0
 33  2  1  0
 12  4  1  0
 31 22  1  0
M  END
>  <cnnaffinity>  (1) 
-4.97541

>  <filename>  (1) 
Clc1cccc(ON2CC=C(c3cccnc3)CC2)c1

$$$$
