
     RDKit          3D

 28 30  0  0  0  0  0  0  0  0999 V2000
    4.9446    1.8510   16.9229 H   0  0  0  0  0  0  0  0  0  0  0  0
    5.4121    1.3344   17.7569 C   0  0  0  0  0  0  0  0  0  0  0  0
    6.5612    0.7035   17.4724 N   0  0  0  0  0  0  0  0  0  0  0  0
    7.1694    0.0550   18.4684 C   0  0  0  0  0  0  0  0  0  0  0  0
    8.0902   -0.4622   18.2052 H   0  0  0  0  0  0  0  0  0  0  0  0
    6.6802    0.0058   19.7764 C   0  0  0  0  0  0  0  0  0  0  0  0
    7.4468   -0.7154   20.7989 C   0  0  0  0  0  0  0  0  0  0  0  0
    6.9375   -0.8622   22.0069 N   0  0  0  0  0  0  0  0  0  0  0  0
    7.8515   -1.5429   22.7225 N   0  0  0  0  0  0  0  0  0  0  0  0
    7.6171   -1.7252   24.1134 C   0  0  0  0  0  0  0  0  0  0  0  0
    7.1235   -0.6354   24.8518 C   0  0  0  0  0  0  0  0  0  0  0  0
    6.9314    0.2925   24.3221 H   0  0  0  0  0  0  0  0  0  0  0  0
    6.8413   -0.7557   26.2050 C   0  0  0  0  0  0  0  0  0  0  0  0
    6.4634    0.1011   26.7565 H   0  0  0  0  0  0  0  0  0  0  0  0
    7.0222   -1.9833   26.8395 C   0  0  0  0  0  0  0  0  0  0  0  0
    6.7407   -2.0865   27.8809 H   0  0  0  0  0  0  0  0  0  0  0  0
    7.5207   -3.0747   26.1365 C   0  0  0  0  0  0  0  0  0  0  0  0
    7.6804   -4.0217   26.6479 H   0  0  0  0  0  0  0  0  0  0  0  0
    7.8190   -2.9518   24.7737 C   0  0  0  0  0  0  0  0  0  0  0  0
    8.3775   -4.3615   23.9293 Cl  0  0  0  0  0  0  0  0  0  0  0  0
    8.9671   -1.8092   21.9774 C   0  0  0  0  0  0  0  0  0  0  0  0
    9.8226   -2.3266   22.3913 H   0  0  0  0  0  0  0  0  0  0  0  0
    8.7416   -1.2905   20.7307 C   0  0  0  0  0  0  0  0  0  0  0  0
    9.4202   -1.2773   19.8921 H   0  0  0  0  0  0  0  0  0  0  0  0
    5.4658    0.6587   20.0589 C   0  0  0  0  0  0  0  0  0  0  0  0
    5.0537    0.6264   21.0690 H   0  0  0  0  0  0  0  0  0  0  0  0
    4.8176    1.3314   19.0241 C   0  0  0  0  0  0  0  0  0  0  0  0
    3.8760    1.8528   19.1796 H   0  0  0  0  0  0  0  0  0  0  0  0
  1  2  1  0
  2  3  2  0
  3  4  1  0
  4  5  1  0
  4  6  2  0
  6  7  1  0
  7  8  2  0
  8  9  1  0
  9 10  1  0
 10 11  2  0
 11 12  1  0
 11 13  1  0
 13 14  1  0
 13 15  2  0
 15 16  1  0
 15 17  1  0
 17 18  1  0
 17 19  2  0
 19 20  1  0
  9 21  1  0
 21 22  1  0
 21 23  2  0
 23 24  1  0
  6 25  1  0
 25 26  1  0
 25 27  2  0
 27 28  1  0
 27  2  1  0
 23  7  1  0
 19 10  1  0
M  END
>  <cnnaffinity>  (1) 
-5.05487

>  <filename>  (1) 
Clc1ccccc1-n1ccc(-c2cccnc2)n1

$$$$
