
     RDKit          3D

 37 40  0  0  0  0  0  0  0  0999 V2000
    9.4270    2.3138   21.0054 Cl  0  0  0  0  0  0  0  0  0  0  0  0
    9.6336    2.2180   22.7174 C   0  0  0  0  0  0  0  0  0  0  0  0
   10.8622    2.6275   23.2408 C   0  0  0  0  0  0  0  0  0  0  0  0
   11.0760    2.4763   24.6070 C   0  0  0  0  0  0  0  0  0  0  0  0
   10.0656    1.9568   25.4230 C   0  0  0  0  0  0  0  0  0  0  0  0
    8.8278    1.5843   24.8882 C   0  0  0  0  0  0  0  0  0  0  0  0
    8.5962    1.7002   23.5111 C   0  0  0  0  0  0  0  0  0  0  0  0
    7.3351    1.1536   22.8571 C   0  0  0  0  0  0  0  0  0  0  0  0
    7.5974   -0.1876   22.2357 C   0  0  0  0  0  0  0  0  0  0  0  0
    8.1832   -1.1580   22.9034 N   0  0  0  0  0  0  0  0  0  0  0  0
    8.2292   -2.1733   22.0123 C   0  0  0  0  0  0  0  0  0  0  0  0
    8.8430   -3.4692   22.3692 C   0  0  0  0  0  0  0  0  0  0  0  0
    8.1716   -4.7839   22.0667 C   0  0  0  0  0  0  0  0  0  0  0  0
    8.3401   -4.3455   23.4930 C   0  0  0  0  0  0  0  0  0  0  0  0
    9.1180   -4.8315   24.0835 H   0  0  0  0  0  0  0  0  0  0  0  0
    7.4547   -4.0436   24.0527 H   0  0  0  0  0  0  0  0  0  0  0  0
    8.7663   -5.6170   21.7010 H   0  0  0  0  0  0  0  0  0  0  0  0
    7.1665   -4.7249   21.6489 H   0  0  0  0  0  0  0  0  0  0  0  0
    9.9265   -3.3785   22.3202 H   0  0  0  0  0  0  0  0  0  0  0  0
    7.7366   -1.8926   20.8186 N   0  0  0  0  0  0  0  0  0  0  0  0
    7.2895   -0.6181   20.9715 N   0  0  0  0  0  0  0  0  0  0  0  0
    6.6117    0.0351   19.8990 C   0  0  0  0  0  0  0  0  0  0  0  0
    5.4014    0.7021   20.1124 C   0  0  0  0  0  0  0  0  0  0  0  0
    4.8016    1.3409   19.0231 C   0  0  0  0  0  0  0  0  0  0  0  0
    5.4299    1.3055   17.7752 C   0  0  0  0  0  0  0  0  0  0  0  0
    6.5732    0.6333   17.5548 N   0  0  0  0  0  0  0  0  0  0  0  0
    7.1352   -0.0012   18.5907 C   0  0  0  0  0  0  0  0  0  0  0  0
    8.0473   -0.5528   18.3782 H   0  0  0  0  0  0  0  0  0  0  0  0
    4.9956    1.8299   16.9241 H   0  0  0  0  0  0  0  0  0  0  0  0
    3.8618    1.8654   19.1369 H   0  0  0  0  0  0  0  0  0  0  0  0
    4.9316    0.6977   21.0981 H   0  0  0  0  0  0  0  0  0  0  0  0
    6.9745    1.8640   22.1097 H   0  0  0  0  0  0  0  0  0  0  0  0
    6.5449    1.0171   23.6030 H   0  0  0  0  0  0  0  0  0  0  0  0
    8.0505    1.1802   25.5430 H   0  0  0  0  0  0  0  0  0  0  0  0
   10.2528    1.8177   26.4736 H   0  0  0  0  0  0  0  0  0  0  0  0
   12.0335    2.7618   25.0266 H   0  0  0  0  0  0  0  0  0  0  0  0
   11.6275    3.0357   22.5838 H   0  0  0  0  0  0  0  0  0  0  0  0
  1  2  1  0
  2  3  2  0
  3  4  1  0
  4  5  2  0
  5  6  1  0
  6  7  2  0
  7  8  1  0
  8  9  1  0
  9 10  2  0
 10 11  1  0
 11 12  1  0
 12 13  1  0
 13 14  1  0
 14 15  1  0
 14 16  1  0
 13 17  1  0
 13 18  1  0
 12 19  1  0
 11 20  2  0
 20 21  1  0
 21 22  1  0
 22 23  2  0
 23 24  1  0
 24 25  2  0
 25 26  1  0
 26 27  2  0
 27 28  1  0
 25 29  1  0
 24 30  1  0
 23 31  1  0
  8 32  1  0
  8 33  1  0
  6 34  1  0
  5 35  1  0
  4 36  1  0
  3 37  1  0
  7  2  1  0
 21  9  1  0
 27 22  1  0
 14 12  1  0
M  END
>  <cnnaffinity>  (1) 
-5.60027

>  <filename>  (1) 
Clc1ccccc1Cc1nc(C2CC2)nn1-c1cccnc1

$$$$
