
     RDKit          3D

 36 39  0  0  0  0  0  0  0  0999 V2000
    8.8486    4.9823   27.0546 Cl  0  0  0  0  0  0  0  0  0  0  0  0
    7.3910    4.1963   27.5990 C   0  0  0  0  0  0  0  0  0  0  0  0
    7.0862    4.2330   28.9661 C   0  0  0  0  0  0  0  0  0  0  0  0
    5.8175    3.8496   29.4108 C   0  0  0  0  0  0  0  0  0  0  0  0
    4.8642    3.3861   28.4983 C   0  0  0  0  0  0  0  0  0  0  0  0
    5.2134    3.2354   27.1525 C   0  0  0  0  0  0  0  0  0  0  0  0
    6.4962    3.5910   26.6937 C   0  0  0  0  0  0  0  0  0  0  0  0
    6.9867    3.1796   25.0376 S   0  0  0  0  0  0  0  0  0  0  0  0
    7.6274    1.5022   25.3809 C   0  0  0  0  0  0  0  0  0  0  0  0
    8.1525    0.9170   24.0859 C   0  0  0  0  0  0  0  0  0  0  0  0
    7.1190    0.8184   22.9462 C   0  0  0  0  0  0  0  0  0  0  0  0
    7.5480   -0.3160   22.1706 N   0  0  0  0  0  0  0  0  0  0  0  0
    8.3815   -1.2242   22.7454 C   0  0  0  0  0  0  0  0  0  0  0  0
    8.7589   -2.1371   21.8966 N   0  0  0  0  0  0  0  0  0  0  0  0
    8.1643   -1.7998   20.6964 N   0  0  0  0  0  0  0  0  0  0  0  0
    7.4366   -0.7247   20.8794 C   0  0  0  0  0  0  0  0  0  0  0  0
    6.6428   -0.0038   19.8805 C   0  0  0  0  0  0  0  0  0  0  0  0
    5.4263    0.6517   20.1401 C   0  0  0  0  0  0  0  0  0  0  0  0
    4.7963    1.3112   19.0855 C   0  0  0  0  0  0  0  0  0  0  0  0
    5.4044    1.2999   17.8262 C   0  0  0  0  0  0  0  0  0  0  0  0
    6.5595    0.6697   17.5661 N   0  0  0  0  0  0  0  0  0  0  0  0
    7.1547    0.0355   18.5781 C   0  0  0  0  0  0  0  0  0  0  0  0
    8.0962   -0.4654   18.3572 H   0  0  0  0  0  0  0  0  0  0  0  0
    4.9476    1.8187   16.9851 H   0  0  0  0  0  0  0  0  0  0  0  0
    3.8606    1.8431   19.2277 H   0  0  0  0  0  0  0  0  0  0  0  0
    4.9728    0.6415   21.1315 H   0  0  0  0  0  0  0  0  0  0  0  0
    8.7577   -0.8015   24.3985 S   0  0  0  0  0  0  0  0  0  0  0  0
    6.1136    0.6357   23.3497 H   0  0  0  0  0  0  0  0  0  0  0  0
    7.0864    1.7226   22.3251 H   0  0  0  0  0  0  0  0  0  0  0  0
    9.0129    1.4935   23.7310 H   0  0  0  0  0  0  0  0  0  0  0  0
    6.8472    0.8534   25.7991 H   0  0  0  0  0  0  0  0  0  0  0  0
    8.4307    1.5731   26.1194 H   0  0  0  0  0  0  0  0  0  0  0  0
    4.5106    2.8234   26.4340 H   0  0  0  0  0  0  0  0  0  0  0  0
    3.8551    3.1317   28.8193 H   0  0  0  0  0  0  0  0  0  0  0  0
    5.5615    3.9373   30.4653 H   0  0  0  0  0  0  0  0  0  0  0  0
    7.8428    4.5766   29.6653 H   0  0  0  0  0  0  0  0  0  0  0  0
  1  2  1  0
  2  3  2  0
  3  4  1  0
  4  5  2  0
  5  6  1  0
  6  7  2  0
  7  8  1  0
  8  9  1  0
  9 10  1  0
 10 11  1  0
 11 12  1  0
 12 13  1  0
 13 14  2  0
 14 15  1  0
 15 16  2  0
 16 17  1  0
 17 18  2  0
 18 19  1  0
 19 20  2  0
 20 21  1  0
 21 22  2  0
 22 23  1  0
 20 24  1  0
 19 25  1  0
 18 26  1  0
 13 27  1  0
 11 28  1  0
 11 29  1  0
 10 30  1  0
  9 31  1  0
  9 32  1  0
  6 33  1  0
  5 34  1  0
  4 35  1  0
  3 36  1  0
  7  2  1  0
 27 10  1  0
 16 12  1  0
 22 17  1  0
M  END
>  <cnnaffinity>  (1) 
-6.08677

>  <filename>  (1) 
Clc1ccccc1SCC1Cn2c(nnc2-c2cccnc2)S1

$$$$
