
     RDKit          3D

 38 41  0  0  0  0  0  0  0  0999 V2000
    4.9113    1.8303   16.9679 H   0  0  0  0  0  0  0  0  0  0  0  0
    5.3893    1.3149   17.7989 C   0  0  0  0  0  0  0  0  0  0  0  0
    6.5460    0.6973   17.5187 N   0  0  0  0  0  0  0  0  0  0  0  0
    7.1720    0.0817   18.5302 C   0  0  0  0  0  0  0  0  0  0  0  0
    8.1150   -0.4053   18.2777 H   0  0  0  0  0  0  0  0  0  0  0  0
    6.6982    0.0295   19.8545 C   0  0  0  0  0  0  0  0  0  0  0  0
    7.4623   -0.6893   20.9560 C   0  0  1  0  0  0  0  0  0  0  0  0
    8.3972   -1.0785   20.5300 H   0  0  0  0  0  0  0  0  0  0  0  0
    7.8496    0.2549   22.1572 C   0  0  0  0  0  0  0  0  0  0  0  0
    8.9368    0.3483   22.2411 H   0  0  0  0  0  0  0  0  0  0  0  0
    7.4725    1.2750   22.0441 H   0  0  0  0  0  0  0  0  0  0  0  0
    7.2379   -0.4225   23.3488 C   0  0  0  0  0  0  0  0  0  0  0  0
    7.1501   -0.1539   24.6398 N   0  0  0  0  0  0  0  0  0  0  0  0
    6.4598   -1.2214   25.1242 N   0  0  0  0  0  0  0  0  0  0  0  0
    6.4437   -1.3669   26.1228 H   0  0  0  0  0  0  0  0  0  0  0  0
    6.1267   -2.1452   24.1729 C   0  0  0  0  0  0  0  0  0  0  0  0
    5.4283   -3.4512   24.4420 C   0  0  0  0  0  0  0  0  0  0  0  0
    4.3960   -3.2833   24.7742 H   0  0  0  0  0  0  0  0  0  0  0  0
    5.3627   -3.9798   23.4856 H   0  0  0  0  0  0  0  0  0  0  0  0
    6.1727   -4.2912   25.4602 C   0  0  0  0  0  0  0  0  0  0  0  0
    5.7186   -4.3416   26.7848 C   0  0  0  0  0  0  0  0  0  0  0  0
    4.7908   -3.8329   27.0389 H   0  0  0  0  0  0  0  0  0  0  0  0
    6.4293   -5.0220   27.7762 C   0  0  0  0  0  0  0  0  0  0  0  0
    6.0552   -5.0399   28.7954 H   0  0  0  0  0  0  0  0  0  0  0  0
    7.6232   -5.6657   27.4439 C   0  0  0  0  0  0  0  0  0  0  0  0
    8.1851   -6.2010   28.2035 H   0  0  0  0  0  0  0  0  0  0  0  0
    8.1105   -5.6163   26.1354 C   0  0  0  0  0  0  0  0  0  0  0  0
    9.0510   -6.0850   25.8694 H   0  0  0  0  0  0  0  0  0  0  0  0
    7.3883   -4.9288   25.1566 C   0  0  0  0  0  0  0  0  0  0  0  0
    8.0552   -4.8698   23.5406 Cl  0  0  0  0  0  0  0  0  0  0  0  0
    6.6321   -1.6264   23.0084 C   0  0  0  0  0  0  0  0  0  0  0  0
    6.6602   -1.9053   21.5481 C   0  0  0  0  0  0  0  0  0  0  0  0
    7.1488   -2.8559   21.2938 H   0  0  0  0  0  0  0  0  0  0  0  0
    5.6367   -1.9556   21.1507 H   0  0  0  0  0  0  0  0  0  0  0  0
    5.4695    0.6636   20.1092 C   0  0  0  0  0  0  0  0  0  0  0  0
    5.0388    0.6540   21.1115 H   0  0  0  0  0  0  0  0  0  0  0  0
    4.8041    1.3186   19.0684 C   0  0  0  0  0  0  0  0  0  0  0  0
    3.8643    1.8409   19.2249 H   0  0  0  0  0  0  0  0  0  0  0  0
  1  2  1  0
  2  3  2  0
  3  4  1  0
  4  5  1  0
  4  6  2  0
  6  7  1  0
  7  8  1  6
  7  9  1  0
  9 10  1  0
  9 11  1  0
  9 12  1  0
 12 13  2  0
 13 14  1  0
 14 15  1  0
 14 16  1  0
 16 17  1  0
 17 18  1  0
 17 19  1  0
 17 20  1  0
 20 21  2  0
 21 22  1  0
 21 23  1  0
 23 24  1  0
 23 25  2  0
 25 26  1  0
 25 27  1  0
 27 28  1  0
 27 29  2  0
 29 30  1  0
 16 31  2  0
 31 32  1  0
 32 33  1  0
 32 34  1  0
  6 35  1  0
 35 36  1  0
 35 37  2  0
 37 38  1  0
 37  2  1  0
 32  7  1  0
 31 12  1  0
 29 20  1  0
M  END
>  <cnnaffinity>  (1) 
-5.64996

>  <filename>  (1) 
Clc1ccccc1Cc1[nH]nc2c1C[C@@H](c1cccnc1)C2

$$$$
