
     RDKit          3D

 25 27  0  0  0  0  0  0  0  0999 V2000
    4.9343    1.8058   16.9801 H   0  0  0  0  0  0  0  0  0  0  0  0
    5.3900    1.2894   17.8236 C   0  0  0  0  0  0  0  0  0  0  0  0
    6.5589    0.6772   17.5809 N   0  0  0  0  0  0  0  0  0  0  0  0
    7.1726    0.0655   18.5996 C   0  0  0  0  0  0  0  0  0  0  0  0
    8.1313   -0.3963   18.3653 H   0  0  0  0  0  0  0  0  0  0  0  0
    6.6512    0.0222   19.9098 C   0  0  0  0  0  0  0  0  0  0  0  0
    7.3385   -0.6660   20.9593 N   0  0  0  0  0  0  0  0  0  0  0  0
    7.6281   -1.9986   20.9390 C   0  0  0  0  0  0  0  0  0  0  0  0
    7.2925   -2.5970   20.1102 H   0  0  0  0  0  0  0  0  0  0  0  0
    8.1803   -2.4287   22.0439 N   0  0  0  0  0  0  0  0  0  0  0  0
    8.2227   -1.3394   22.8637 C   0  0  0  0  0  0  0  0  0  0  0  0
    8.6108   -1.4217   23.8791 H   0  0  0  0  0  0  0  0  0  0  0  0
    7.7073   -0.2275   22.2347 C   0  0  0  0  0  0  0  0  0  0  0  0
    7.5716    1.1101   22.7553 C   0  0  0  0  0  0  0  0  0  0  0  0
    7.6224    2.5418   21.7680 S   0  0  0  0  0  0  0  0  0  0  0  0
    7.5104    3.5423   23.1685 C   0  0  0  0  0  0  0  0  0  0  0  0
    7.4829    5.2527   23.0018 Cl  0  0  0  0  0  0  0  0  0  0  0  0
    7.4458    2.8321   24.3326 C   0  0  0  0  0  0  0  0  0  0  0  0
    7.3898    3.3022   25.3061 H   0  0  0  0  0  0  0  0  0  0  0  0
    7.4818    1.4324   24.0840 C   0  0  0  0  0  0  0  0  0  0  0  0
    7.4369    0.6533   24.8351 H   0  0  0  0  0  0  0  0  0  0  0  0
    5.4155    0.6305   20.1415 C   0  0  0  0  0  0  0  0  0  0  0  0
    4.9979    0.6193   21.1479 H   0  0  0  0  0  0  0  0  0  0  0  0
    4.7856    1.2899   19.0842 C   0  0  0  0  0  0  0  0  0  0  0  0
    3.8649    1.8394   19.2381 H   0  0  0  0  0  0  0  0  0  0  0  0
  1  2  1  0
  2  3  2  0
  3  4  1  0
  4  5  1  0
  4  6  2  0
  6  7  1  0
  7  8  1  0
  8  9  1  0
  8 10  2  0
 10 11  1  0
 11 12  1  0
 11 13  2  0
 13 14  1  0
 14 15  1  0
 15 16  1  0
 16 17  1  0
 16 18  2  0
 18 19  1  0
 18 20  1  0
 20 21  1  0
  6 22  1  0
 22 23  1  0
 22 24  2  0
 24 25  1  0
 24  2  1  0
 13  7  1  0
 20 14  2  0
M  END
>  <cnnaffinity>  (1) 
-5.0011

>  <filename>  (1) 
Clc1ccc(-c2cncn2-c2cccnc2)s1

$$$$
