
     RDKit          3D

 44 48  0  0  0  0  0  0  0  0999 V2000
    7.8782    5.8021   27.2679 Cl  0  0  0  0  0  0  0  0  0  0  0  0
    8.0306    4.6566   25.9664 C   0  0  0  0  0  0  0  0  0  0  0  0
    7.0189    4.5514   25.0017 C   0  0  0  0  0  0  0  0  0  0  0  0
    7.1770    3.6045   23.9907 C   0  0  0  0  0  0  0  0  0  0  0  0
    8.3403    2.8202   23.9721 C   0  0  0  0  0  0  0  0  0  0  0  0
    8.5246    1.8529   22.9458 N   0  0  0  0  0  0  0  0  0  0  0  0
    7.4937    1.0262   22.6060 N   0  0  0  0  0  0  0  0  0  0  0  0
    8.0249    0.2398   21.6946 C   0  0  0  0  0  0  0  0  0  0  0  0
    7.2681   -0.7820   20.8920 C   0  0  0  0  0  0  0  0  0  0  0  0
    6.5357   -0.1262   19.7271 C   0  0  0  0  0  0  0  0  0  0  0  0
    5.3553    0.5830   19.9826 C   0  0  0  0  0  0  0  0  0  0  0  0
    4.7644    1.3112   18.9500 C   0  0  0  0  0  0  0  0  0  0  0  0
    5.3787    1.3116   17.6949 C   0  0  0  0  0  0  0  0  0  0  0  0
    6.4989    0.6252   17.4213 N   0  0  0  0  0  0  0  0  0  0  0  0
    7.0551   -0.0697   18.4222 C   0  0  0  0  0  0  0  0  0  0  0  0
    7.9756   -0.6012   18.1734 H   0  0  0  0  0  0  0  0  0  0  0  0
    4.9558    1.8888   16.8741 H   0  0  0  0  0  0  0  0  0  0  0  0
    3.8643    1.8944   19.1098 H   0  0  0  0  0  0  0  0  0  0  0  0
    4.9345    0.5796   20.9900 H   0  0  0  0  0  0  0  0  0  0  0  0
    6.5587   -1.2993   21.5453 H   0  0  0  0  0  0  0  0  0  0  0  0
    7.9959   -1.5218   20.5444 H   0  0  0  0  0  0  0  0  0  0  0  0
    9.3255    0.4801   21.4221 N   0  0  0  0  0  0  0  0  0  0  0  0
    9.6243    1.5019   22.2077 C   0  0  0  0  0  0  0  0  0  0  0  0
   10.9768    2.0765   22.3468 C   0  0  0  0  0  0  0  0  0  0  0  0
   11.2497    3.4576   22.4091 C   0  0  0  0  0  0  0  0  0  0  0  0
   12.5636    3.9156   22.5414 C   0  0  0  0  0  0  0  0  0  0  0  0
   13.6274    3.0137   22.6677 C   0  0  0  0  0  0  0  0  0  0  0  0
   13.3461    1.6484   22.6858 C   0  0  0  0  0  0  0  0  0  0  0  0
   12.0494    1.1874   22.4681 C   0  0  0  0  0  0  0  0  0  0  0  0
   12.0571   -0.3228   22.4969 C   0  0  0  0  0  0  0  0  0  0  0  0
   13.3547   -0.6695   22.9270 O   0  0  0  0  0  0  0  0  0  0  0  0
   14.2259    0.4443   22.8637 C   0  0  0  0  0  0  0  0  0  0  0  0
   14.9072    0.3286   22.0135 H   0  0  0  0  0  0  0  0  0  0  0  0
   14.8085    0.4558   23.7858 H   0  0  0  0  0  0  0  0  0  0  0  0
   11.3009   -0.7293   23.1823 H   0  0  0  0  0  0  0  0  0  0  0  0
   11.8512   -0.7568   21.5113 H   0  0  0  0  0  0  0  0  0  0  0  0
   14.6466    3.3856   22.7097 H   0  0  0  0  0  0  0  0  0  0  0  0
   12.7624    4.9838   22.5708 H   0  0  0  0  0  0  0  0  0  0  0  0
   10.4357    4.1734   22.3389 H   0  0  0  0  0  0  0  0  0  0  0  0
    9.2684    2.9984   25.0111 C   0  0  0  0  0  0  0  0  0  0  0  0
    9.1198    3.9098   25.9802 N   0  0  0  0  0  0  0  0  0  0  0  0
   10.1702    2.3911   25.0578 H   0  0  0  0  0  0  0  0  0  0  0  0
    6.4110    3.4287   23.2361 H   0  0  0  0  0  0  0  0  0  0  0  0
    6.1368    5.1774   25.0654 H   0  0  0  0  0  0  0  0  0  0  0  0
  1  2  1  0
  2  3  2  0
  3  4  1  0
  4  5  2  0
  5  6  1  0
  6  7  1  0
  7  8  2  0
  8  9  1  0
  9 10  1  0
 10 11  2  0
 11 12  1  0
 12 13  2  0
 13 14  1  0
 14 15  2  0
 15 16  1  0
 13 17  1  0
 12 18  1  0
 11 19  1  0
  9 20  1  0
  9 21  1  0
  8 22  1  0
 22 23  2  0
 23 24  1  0
 24 25  2  0
 25 26  1  0
 26 27  2  0
 27 28  1  0
 28 29  2  0
 29 30  1  0
 30 31  1  0
 31 32  1  0
 32 33  1  0
 32 34  1  0
 30 35  1  0
 30 36  1  0
 27 37  1  0
 26 38  1  0
 25 39  1  0
  5 40  1  0
 40 41  2  0
 40 42  1  0
  4 43  1  0
  3 44  1  0
 41  2  1  0
 23  6  1  0
 29 24  1  0
 15 10  1  0
 32 28  1  0
M  END
>  <cnnaffinity>  (1) 
-6.31612

>  <filename>  (1) 
Clc1ccc(-n2nc(Cc3cccnc3)nc2-c2cccc3c2COC3)cn1

$$$$
