
     RDKit          3D

 29 31  0  0  0  0  0  0  0  0999 V2000
    5.0362    1.8354   16.9494 H   0  0  0  0  0  0  0  0  0  0  0  0
    5.4664    1.3185   17.8084 C   0  0  0  0  0  0  0  0  0  0  0  0
    6.6215    0.6716   17.5986 N   0  0  0  0  0  0  0  0  0  0  0  0
    7.1651    0.0271   18.6340 C   0  0  0  0  0  0  0  0  0  0  0  0
    8.0850   -0.5217   18.4447 H   0  0  0  0  0  0  0  0  0  0  0  0
    6.6149    0.0207   19.9274 C   0  0  0  0  0  0  0  0  0  0  0  0
    7.3292   -0.6875   20.9885 C   0  0  0  0  0  0  0  0  0  0  0  0
    7.8870   -1.9059   20.6970 N   0  0  0  0  0  0  0  0  0  0  0  0
    8.4650   -2.4804   21.6691 N   0  0  0  0  0  0  0  0  0  0  0  0
    8.3857   -1.5325   23.0682 S   0  0  0  0  0  0  0  0  0  0  0  0
    7.5430   -0.2684   22.2897 C   0  0  0  0  0  0  0  0  0  0  0  0
    7.2698    1.0450   22.9918 C   0  0  0  0  0  0  0  0  0  0  0  0
    6.7154    1.7043   22.3129 H   0  0  0  0  0  0  0  0  0  0  0  0
    6.6125    0.8602   23.8499 H   0  0  0  0  0  0  0  0  0  0  0  0
    8.5606    1.7301   23.4517 C   0  0  0  0  0  0  0  0  0  0  0  0
    9.0540    1.5902   24.7599 C   0  0  0  0  0  0  0  0  0  0  0  0
    8.4343    1.1088   25.5105 H   0  0  0  0  0  0  0  0  0  0  0  0
   10.3407    2.0285   25.0996 C   0  0  0  0  0  0  0  0  0  0  0  0
   10.7493    1.8174   26.0825 H   0  0  0  0  0  0  0  0  0  0  0  0
   11.1241    2.7036   24.1584 C   0  0  0  0  0  0  0  0  0  0  0  0
   12.1219    3.0399   24.4148 H   0  0  0  0  0  0  0  0  0  0  0  0
   10.6299    2.9363   22.8747 C   0  0  0  0  0  0  0  0  0  0  0  0
   11.1900    3.4880   22.1187 H   0  0  0  0  0  0  0  0  0  0  0  0
    9.3779    2.4157   22.5378 C   0  0  0  0  0  0  0  0  0  0  0  0
    8.8301    2.5978   20.9046 Cl  0  0  0  0  0  0  0  0  0  0  0  0
    5.3958    0.6754   20.1292 C   0  0  0  0  0  0  0  0  0  0  0  0
    4.9126    0.6630   21.1077 H   0  0  0  0  0  0  0  0  0  0  0  0
    4.8104    1.3312   19.0437 C   0  0  0  0  0  0  0  0  0  0  0  0
    3.8657    1.8451   19.1384 H   0  0  0  0  0  0  0  0  0  0  0  0
  1  2  1  0
  2  3  2  0
  3  4  1  0
  4  5  1  0
  4  6  2  0
  6  7  1  0
  7  8  1  0
  8  9  2  0
  9 10  1  0
 10 11  1  0
 11 12  1  0
 12 13  1  0
 12 14  1  0
 12 15  1  0
 15 16  2  0
 16 17  1  0
 16 18  1  0
 18 19  1  0
 18 20  2  0
 20 21  1  0
 20 22  1  0
 22 23  1  0
 22 24  2  0
 24 25  1  0
  6 26  1  0
 26 27  1  0
 26 28  2  0
 28 29  1  0
 28  2  1  0
 11  7  2  0
 24 15  1  0
M  END
>  <cnnaffinity>  (1) 
-4.9638

>  <filename>  (1) 
Clc1ccccc1Cc1snnc1-c1cccnc1

$$$$
