
     RDKit          3D

 35 37  0  0  0  0  0  0  0  0999 V2000
    5.0399    1.6875   16.9119 H   0  0  0  0  0  0  0  0  0  0  0  0
    5.4612    1.2565   17.8168 C   0  0  0  0  0  0  0  0  0  0  0  0
    6.6021    0.5701   17.6632 N   0  0  0  0  0  0  0  0  0  0  0  0
    7.1405    0.0281   18.7644 C   0  0  0  0  0  0  0  0  0  0  0  0
    8.0694   -0.5219   18.6030 H   0  0  0  0  0  0  0  0  0  0  0  0
    6.6121    0.1437   20.0621 C   0  0  0  0  0  0  0  0  0  0  0  0
    7.2801   -0.5619   21.2421 C   0  0  0  0  0  0  0  0  0  0  0  0
    6.5497   -1.7955   21.6777 N   0  0  0  0  0  0  0  0  0  0  0  0
    5.6784   -1.4512   22.0916 H   0  0  0  0  0  0  0  0  0  0  0  0
    6.2373   -2.6549   20.6013 N   0  0  0  0  0  0  0  0  0  0  0  0
    6.6541   -2.4074   19.7097 H   0  0  0  0  0  0  0  0  0  0  0  0
    6.0095   -3.9743   20.7036 C   0  0  0  0  0  0  0  0  0  0  0  0
    5.9014   -4.7190   19.4593 C   0  0  0  0  0  0  0  0  0  0  0  0
    6.0121   -4.1348   18.5436 H   0  0  0  0  0  0  0  0  0  0  0  0
    5.7136   -6.0388   19.5920 C   0  0  0  0  0  0  0  0  0  0  0  0
    5.6316   -6.8301   18.8444 H   0  0  0  0  0  0  0  0  0  0  0  0
    5.2345   -6.1251   21.8512 C   0  0  0  0  0  0  0  0  0  0  0  0
    3.3420   -6.4816   22.3081 Cl  0  0  0  0  0  0  0  0  0  0  0  0
    5.5403   -6.0703   21.6948 C   0  0  0  0  0  0  0  0  0  0  0  0
    5.6344   -7.2684   21.6009 H   0  0  0  0  0  0  0  0  0  0  0  0
    5.8325   -4.7566   21.9211 C   0  0  0  0  0  0  0  0  0  0  0  0
    6.4026   -4.4147   22.7881 H   0  0  0  0  0  0  0  0  0  0  0  0
    7.5360    0.3220   22.4837 C   0  0  0  0  0  0  0  0  0  0  0  0
    6.9803    0.0095   23.3748 H   0  0  0  0  0  0  0  0  0  0  0  0
    7.3323    1.3775   22.2926 H   0  0  0  0  0  0  0  0  0  0  0  0
    9.0449   -0.0367   22.4539 C   0  0  0  0  0  0  0  0  0  0  0  0
    9.3772   -0.6630   23.2883 H   0  0  0  0  0  0  0  0  0  0  0  0
    9.7273    0.8176   22.3851 H   0  0  0  0  0  0  0  0  0  0  0  0
    8.8147   -0.8018   21.1291 C   0  0  0  0  0  0  0  0  0  0  0  0
    9.0970   -1.8601   21.1246 H   0  0  0  0  0  0  0  0  0  0  0  0
    9.2647   -0.3016   20.2702 H   0  0  0  0  0  0  0  0  0  0  0  0
    5.4059    0.8552   20.1908 C   0  0  0  0  0  0  0  0  0  0  0  0
    4.9309    0.9768   21.1678 H   0  0  0  0  0  0  0  0  0  0  0  0
    4.8266    1.4194   19.0512 C   0  0  0  0  0  0  0  0  0  0  0  0
    3.9026    1.9843   19.1051 H   0  0  0  0  0  0  0  0  0  0  0  0
  1  2  1  0
  2  3  2  0
  3  4  1  0
  4  5  1  0
  4  6  2  0
  6  7  1  0
  7  8  1  0
  8  9  1  0
  8 10  1  0
 10 11  1  0
 10 12  1  0
 12 13  2  0
 13 14  1  0
 13 15  1  0
 15 16  1  0
 15 17  2  0
 17 18  1  0
 17 19  1  0
 19 20  1  0
 19 21  2  0
 21 22  1  0
  7 23  1  0
 23 24  1  0
 23 25  1  0
 23 26  1  0
 26 27  1  0
 26 28  1  0
 26 29  1  0
 29 30  1  0
 29 31  1  0
  6 32  1  0
 32 33  1  0
 32 34  2  0
 34 35  1  0
 34  2  1  0
 29  7  1  0
 21 12  1  0
M  END
>  <cnnaffinity>  (1) 
-5.1619

>  <filename>  (1) 
Clc1ccc(NNC2(c3cccnc3)CCC2)cc1

$$$$
