
     RDKit          3D

 28 30  0  0  0  0  0  0  0  0999 V2000
    4.9233    1.7775   16.9991 H   0  0  0  0  0  0  0  0  0  0  0  0
    5.4087    1.2885   17.8398 C   0  0  0  0  0  0  0  0  0  0  0  0
    6.5735    0.6709   17.5780 N   0  0  0  0  0  0  0  0  0  0  0  0
    7.1793    0.0546   18.5987 C   0  0  0  0  0  0  0  0  0  0  0  0
    8.1253   -0.4318   18.3779 H   0  0  0  0  0  0  0  0  0  0  0  0
    6.6600    0.0034   19.9035 C   0  0  0  0  0  0  0  0  0  0  0  0
    7.3742   -0.6998   20.9713 C   0  0  0  0  0  0  0  0  0  0  0  0
    8.5239   -1.4297   20.7506 N   0  0  0  0  0  0  0  0  0  0  0  0
    8.8748   -1.8887   21.9208 C   0  0  0  0  0  0  0  0  0  0  0  0
    9.7474   -2.4990   22.1257 H   0  0  0  0  0  0  0  0  0  0  0  0
    8.0131   -1.5005   22.9181 N   0  0  0  0  0  0  0  0  0  0  0  0
    8.0985   -1.7745   24.3069 C   0  0  0  0  0  0  0  0  0  0  0  0
    7.9816   -0.7031   25.2078 C   0  0  0  0  0  0  0  0  0  0  0  0
    7.8149    0.2942   24.8208 H   0  0  0  0  0  0  0  0  0  0  0  0
    8.0874   -0.9129   26.5752 C   0  0  0  0  0  0  0  0  0  0  0  0
    8.0029   -0.0864   27.2768 H   0  0  0  0  0  0  0  0  0  0  0  0
    8.3016   -2.2014   27.0467 C   0  0  0  0  0  0  0  0  0  0  0  0
    8.3818   -2.3800   28.0933 H   0  0  0  0  0  0  0  0  0  0  0  0
    8.4016   -3.2853   26.1808 C   0  0  0  0  0  0  0  0  0  0  0  0
    8.6619   -4.8525   26.8699 Cl  0  0  0  0  0  0  0  0  0  0  0  0
    8.2857   -3.0859   24.7986 C   0  0  0  0  0  0  0  0  0  0  0  0
    8.3454   -4.4384   23.7285 Cl  0  0  0  0  0  0  0  0  0  0  0  0
    7.0451   -0.7329   22.2981 C   0  0  0  0  0  0  0  0  0  0  0  0
    6.2336   -0.2673   22.8437 H   0  0  0  0  0  0  0  0  0  0  0  0
    5.4382    0.6527   20.1565 C   0  0  0  0  0  0  0  0  0  0  0  0
    4.9901    0.6421   21.1537 H   0  0  0  0  0  0  0  0  0  0  0  0
    4.8081    1.3075   19.1052 C   0  0  0  0  0  0  0  0  0  0  0  0
    3.8746    1.8417   19.2602 H   0  0  0  0  0  0  0  0  0  0  0  0
  1  2  1  0
  2  3  2  0
  3  4  1  0
  4  5  1  0
  4  6  2  0
  6  7  1  0
  7  8  1  0
  8  9  2  0
  9 10  1  0
  9 11  1  0
 11 12  1  0
 12 13  2  0
 13 14  1  0
 13 15  1  0
 15 16  1  0
 15 17  2  0
 17 18  1  0
 17 19  1  0
 19 20  1  0
 19 21  2  0
 21 22  1  0
 11 23  1  0
 23 24  1  0
  6 25  1  0
 25 26  1  0
 25 27  2  0
 27 28  1  0
 27  2  1  0
 23  7  2  0
 21 12  1  0
M  END
>  <cnnaffinity>  (1) 
-5.71648

>  <filename>  (1) 
Clc1cccc(-n2cnc(-c3cccnc3)c2)c1Cl

$$$$
