
     RDKit          3D

 31 33  0  0  0  0  0  0  0  0999 V2000
    4.9615    1.7761   16.8653 H   0  0  0  0  0  0  0  0  0  0  0  0
    5.3900    1.3514   17.7674 C   0  0  0  0  0  0  0  0  0  0  0  0
    6.5888    0.7637   17.6293 N   0  0  0  0  0  0  0  0  0  0  0  0
    7.1487    0.2460   18.7241 C   0  0  0  0  0  0  0  0  0  0  0  0
    8.1078   -0.2480   18.5808 H   0  0  0  0  0  0  0  0  0  0  0  0
    6.5693    0.2945   20.0103 C   0  0  0  0  0  0  0  0  0  0  0  0
    7.2766   -0.2776   21.1047 N   0  0  0  0  0  0  0  0  0  0  0  0
    7.0848   -0.0919   22.4573 C   0  0  0  0  0  0  0  0  0  0  0  0
    6.3970    0.6524   22.8426 H   0  0  0  0  0  0  0  0  0  0  0  0
    7.8248   -0.8895   23.1814 N   0  0  0  0  0  0  0  0  0  0  0  0
    8.5389   -1.6532   22.2852 C   0  0  0  0  0  0  0  0  0  0  0  0
    9.3368   -2.8452   22.7301 C   0  0  0  0  0  0  0  0  0  0  0  0
    9.7433   -2.6326   23.7199 H   0  0  0  0  0  0  0  0  0  0  0  0
   10.2034   -2.9880   22.0805 H   0  0  0  0  0  0  0  0  0  0  0  0
    8.4781   -4.1009   22.7962 C   0  0  0  0  0  0  0  0  0  0  0  0
    8.0445   -4.7776   21.6450 C   0  0  0  0  0  0  0  0  0  0  0  0
    8.3847   -4.4912   20.6562 H   0  0  0  0  0  0  0  0  0  0  0  0
    7.1279   -5.8231   21.7369 C   0  0  0  0  0  0  0  0  0  0  0  0
    6.8065   -6.3708   20.8569 H   0  0  0  0  0  0  0  0  0  0  0  0
    6.5902   -6.1844   22.9757 C   0  0  0  0  0  0  0  0  0  0  0  0
    5.4096   -7.4476   23.0150 Cl  0  0  0  0  0  0  0  0  0  0  0  0
    7.0248   -5.5282   24.1385 C   0  0  0  0  0  0  0  0  0  0  0  0
    6.4102   -5.9295   25.7100 Cl  0  0  0  0  0  0  0  0  0  0  0  0
    7.9786   -4.5101   24.0380 C   0  0  0  0  0  0  0  0  0  0  0  0
    8.3019   -4.0289   24.9580 H   0  0  0  0  0  0  0  0  0  0  0  0
    8.2563   -1.2597   21.0133 C   0  0  0  0  0  0  0  0  0  0  0  0
    8.6679   -1.5742   20.0668 H   0  0  0  0  0  0  0  0  0  0  0  0
    5.2882    0.8687   20.1333 C   0  0  0  0  0  0  0  0  0  0  0  0
    4.7358    0.8764   21.0758 H   0  0  0  0  0  0  0  0  0  0  0  0
    4.7010    1.4120   18.9830 C   0  0  0  0  0  0  0  0  0  0  0  0
    3.7229    1.8833   19.0172 H   0  0  0  0  0  0  0  0  0  0  0  0
  1  2  1  0
  2  3  2  0
  3  4  1  0
  4  5  1  0
  4  6  2  0
  6  7  1  0
  7  8  1  0
  8  9  1  0
  8 10  2  0
 10 11  1  0
 11 12  1  0
 12 13  1  0
 12 14  1  0
 12 15  1  0
 15 16  2  0
 16 17  1  0
 16 18  1  0
 18 19  1  0
 18 20  2  0
 20 21  1  0
 20 22  1  0
 22 23  1  0
 22 24  2  0
 24 25  1  0
 11 26  2  0
 26 27  1  0
  6 28  1  0
 28 29  1  0
 28 30  2  0
 30 31  1  0
 30  2  1  0
 26  7  1  0
 24 15  1  0
M  END
>  <cnnaffinity>  (1) 
-5.61115

>  <filename>  (1) 
Clc1ccc(Cc2cn(-c3cccnc3)cn2)cc1Cl

$$$$
