
     RDKit          3D

 31 33  0  0  0  0  0  0  0  0999 V2000
    7.6069   -0.3024   23.7650 Cl  0  0  0  0  0  0  0  0  0  0  0  0
    8.3930   -1.6229   24.5925 C   0  0  0  0  0  0  0  0  0  0  0  0
    8.5674   -1.5120   25.9170 N   0  0  0  0  0  0  0  0  0  0  0  0
    9.1759   -2.5189   26.5587 C   0  0  0  0  0  0  0  0  0  0  0  0
    9.5947   -3.7003   25.9264 C   0  0  0  0  0  0  0  0  0  0  0  0
   10.4852   -5.1050   26.8758 Br  0  0  0  0  0  0  0  0  0  0  0  0
    9.4072   -3.8263   24.5571 C   0  0  0  0  0  0  0  0  0  0  0  0
    8.8229   -2.7559   23.8738 C   0  0  0  0  0  0  0  0  0  0  0  0
    8.7137   -2.7952   22.3775 C   0  0  0  0  0  0  0  0  0  0  0  0
    9.3420   -1.5763   21.8668 N   0  0  0  0  0  0  0  0  0  0  0  0
   10.6696   -1.2127   21.8900 C   0  0  0  0  0  0  0  0  0  0  0  0
   10.8434   -0.1526   21.1419 N   0  0  0  0  0  0  0  0  0  0  0  0
    9.6159    0.2029   20.6249 N   0  0  0  0  0  0  0  0  0  0  0  0
    8.7356   -0.6460   21.0843 C   0  0  0  0  0  0  0  0  0  0  0  0
    7.3642   -0.6664   20.9104 N   0  0  0  0  0  0  0  0  0  0  0  0
    6.7166   -0.0038   19.8572 C   0  0  0  0  0  0  0  0  0  0  0  0
    5.4773    0.5622   20.1160 C   0  0  0  0  0  0  0  0  0  0  0  0
    4.8362    1.2479   19.0795 C   0  0  0  0  0  0  0  0  0  0  0  0
    5.4360    1.3256   17.8139 C   0  0  0  0  0  0  0  0  0  0  0  0
    6.6186    0.7435   17.5342 N   0  0  0  0  0  0  0  0  0  0  0  0
    7.2451    0.1001   18.5450 C   0  0  0  0  0  0  0  0  0  0  0  0
    8.2021   -0.3781   18.3518 H   0  0  0  0  0  0  0  0  0  0  0  0
    4.9278    1.8758   17.0296 H   0  0  0  0  0  0  0  0  0  0  0  0
    3.8859    1.7373   19.2509 H   0  0  0  0  0  0  0  0  0  0  0  0
    5.0548    0.4788   21.1149 H   0  0  0  0  0  0  0  0  0  0  0  0
    6.8386   -0.8616   21.7586 H   0  0  0  0  0  0  0  0  0  0  0  0
   11.4564   -1.7300   22.4324 H   0  0  0  0  0  0  0  0  0  0  0  0
    9.2169   -3.6746   21.9685 H   0  0  0  0  0  0  0  0  0  0  0  0
    7.6624   -2.8458   22.0644 H   0  0  0  0  0  0  0  0  0  0  0  0
    9.7686   -4.7247   24.0568 H   0  0  0  0  0  0  0  0  0  0  0  0
    9.3651   -2.3683   27.6053 H   0  0  0  0  0  0  0  0  0  0  0  0
  1  2  1  0
  2  3  2  0
  3  4  1  0
  4  5  2  0
  5  6  1  0
  5  7  1  0
  7  8  2  0
  8  9  1  0
  9 10  1  0
 10 11  1  0
 11 12  2  0
 12 13  1  0
 13 14  2  0
 14 15  1  0
 15 16  1  0
 16 17  2  0
 17 18  1  0
 18 19  2  0
 19 20  1  0
 20 21  2  0
 21 22  1  0
 19 23  1  0
 18 24  1  0
 17 25  1  0
 15 26  1  0
 11 27  1  0
  9 28  1  0
  9 29  1  0
  7 30  1  0
  4 31  1  0
  8  2  1  0
 14 10  1  0
 21 16  1  0
M  END
>  <cnnaffinity>  (1) 
-5.46047

>  <filename>  (1) 
Clc1ncc(Br)cc1Cn1cnnc1Nc1cccnc1

$$$$
