
     RDKit          3D

 32 35  0  0  0  0  0  0  0  0999 V2000
    4.9702    1.8386   16.9423 H   0  0  0  0  0  0  0  0  0  0  0  0
    5.3879    1.3053   17.7915 C   0  0  0  0  0  0  0  0  0  0  0  0
    6.5451    0.6564   17.5860 N   0  0  0  0  0  0  0  0  0  0  0  0
    7.0915    0.0282   18.6375 C   0  0  0  0  0  0  0  0  0  0  0  0
    8.0413   -0.4686   18.4291 H   0  0  0  0  0  0  0  0  0  0  0  0
    6.5118   -0.0211   19.9253 C   0  0  0  0  0  0  0  0  0  0  0  0
    7.2555   -0.6481   21.0427 C   0  0  0  0  0  0  0  0  0  0  0  0
    8.6091   -0.5983   21.2788 C   0  0  0  0  0  0  0  0  0  0  0  0
    8.8176   -1.1863   22.5215 C   0  0  0  0  0  0  0  0  0  0  0  0
    7.6997   -1.6474   23.0516 N   0  0  0  0  0  0  0  0  0  0  0  0
    6.7517   -1.2994   22.1393 N   0  0  0  0  0  0  0  0  0  0  0  0
    5.7837   -1.4819   22.3776 H   0  0  0  0  0  0  0  0  0  0  0  0
   10.2417   -1.0832   22.9754 C   0  0  0  0  0  0  0  0  0  0  0  0
   10.6836   -2.0675   23.1326 H   0  0  0  0  0  0  0  0  0  0  0  0
   10.3401   -0.5401   23.9212 H   0  0  0  0  0  0  0  0  0  0  0  0
   10.9430   -0.3205   21.7925 C   0  0  2  0  0  0  0  0  0  0  0  0
   11.6914   -0.9967   21.3666 H   0  0  0  0  0  0  0  0  0  0  0  0
   11.6518    0.9241   22.2473 C   0  0  0  0  0  0  0  0  0  0  0  0
   10.7416    2.2405   22.9174 S   0  0  0  0  0  0  0  0  0  0  0  0
   12.1757    3.1765   23.1653 C   0  0  0  0  0  0  0  0  0  0  0  0
   12.1163    4.7434   23.8713 Cl  0  0  0  0  0  0  0  0  0  0  0  0
   13.2909    2.5176   22.7501 C   0  0  0  0  0  0  0  0  0  0  0  0
   14.2859    2.9460   22.7695 H   0  0  0  0  0  0  0  0  0  0  0  0
   12.9861    1.2172   22.2449 C   0  0  0  0  0  0  0  0  0  0  0  0
   13.7373    0.5200   21.8912 H   0  0  0  0  0  0  0  0  0  0  0  0
    9.8614   -0.0565   20.6875 C   0  0  0  0  0  0  0  0  0  0  0  0
    9.7665    1.0011   20.4119 H   0  0  0  0  0  0  0  0  0  0  0  0
   10.1271   -0.5908   19.7741 H   0  0  0  0  0  0  0  0  0  0  0  0
    5.2930    0.6585   20.1043 C   0  0  0  0  0  0  0  0  0  0  0  0
    4.8280    0.7055   21.0896 H   0  0  0  0  0  0  0  0  0  0  0  0
    4.7274    1.3332   19.0239 C   0  0  0  0  0  0  0  0  0  0  0  0
    3.8113    1.9049   19.1358 H   0  0  0  0  0  0  0  0  0  0  0  0
  1  2  1  0
  2  3  2  0
  3  4  1  0
  4  5  1  0
  4  6  2  0
  6  7  1  0
  7  8  2  0
  8  9  1  0
  9 10  2  0
 10 11  1  0
 11 12  1  0
  9 13  1  0
 13 14  1  0
 13 15  1  0
 13 16  1  0
 16 17  1  6
 16 18  1  0
 18 19  1  0
 19 20  1  0
 20 21  1  0
 20 22  2  0
 22 23  1  0
 22 24  1  0
 24 25  1  0
 16 26  1  0
 26 27  1  0
 26 28  1  0
  6 29  1  0
 29 30  1  0
 29 31  2  0
 31 32  1  0
 31  2  1  0
 11  7  1  0
 24 18  2  0
 26  8  1  0
M  END
>  <cnnaffinity>  (1) 
-5.70581

>  <filename>  (1) 
Clc1ccc([C@H]2Cc3n[nH]c(-c4cccnc4)c3C2)s1

$$$$
