
     RDKit          3D

 31 33  0  0  0  0  0  0  0  0999 V2000
    8.4740   -1.9562   19.8906 H   0  0  0  0  0  0  0  0  0  0  0  0
    8.2246   -1.6435   20.8852 C   0  0  0  0  0  0  0  0  0  0  0  0
    8.7377   -2.3490   21.8838 N   0  0  0  0  0  0  0  0  0  0  0  0
    8.4998   -1.9192   23.1376 N   0  0  0  0  0  0  0  0  0  0  0  0
    7.8106   -0.7877   23.3201 C   0  0  0  0  0  0  0  0  0  0  0  0
    7.6869   -0.2894   24.7266 C   0  0  0  0  0  0  0  0  0  0  0  0
    7.7488    0.8002   24.7021 H   0  0  0  0  0  0  0  0  0  0  0  0
    8.5426   -0.6503   25.3017 H   0  0  0  0  0  0  0  0  0  0  0  0
    6.3810   -0.7587   25.3185 C   0  0  0  0  0  0  0  0  0  0  0  0
    6.3008   -1.9964   25.9662 C   0  0  0  0  0  0  0  0  0  0  0  0
    7.2000   -2.5970   26.0650 H   0  0  0  0  0  0  0  0  0  0  0  0
    5.0749   -2.4713   26.4310 C   0  0  0  0  0  0  0  0  0  0  0  0
    4.9896   -3.4260   26.9417 H   0  0  0  0  0  0  0  0  0  0  0  0
    3.9127   -1.7111   26.2529 C   0  0  0  0  0  0  0  0  0  0  0  0
    2.4082   -2.3518   26.8255 Cl  0  0  0  0  0  0  0  0  0  0  0  0
    3.9874   -0.4648   25.6065 C   0  0  0  0  0  0  0  0  0  0  0  0
    2.5963    0.5518   25.4254 Cl  0  0  0  0  0  0  0  0  0  0  0  0
    5.2155   -0.0177   25.1130 C   0  0  0  0  0  0  0  0  0  0  0  0
    5.2437    0.8719   24.4909 H   0  0  0  0  0  0  0  0  0  0  0  0
    7.1802   -0.0833   22.3525 N   0  0  0  0  0  0  0  0  0  0  0  0
    7.3672   -0.5301   21.1106 C   0  0  0  0  0  0  0  0  0  0  0  0
    6.6357    0.1228   20.0004 C   0  0  0  0  0  0  0  0  0  0  0  0
    7.1676    0.1052   18.6984 C   0  0  0  0  0  0  0  0  0  0  0  0
    8.1217   -0.3830   18.4927 H   0  0  0  0  0  0  0  0  0  0  0  0
    6.5848    0.6648   17.6413 N   0  0  0  0  0  0  0  0  0  0  0  0
    5.4121    1.2850   17.8447 C   0  0  0  0  0  0  0  0  0  0  0  0
    4.9780    1.7689   16.9761 H   0  0  0  0  0  0  0  0  0  0  0  0
    4.7696    1.3320   19.0856 C   0  0  0  0  0  0  0  0  0  0  0  0
    3.8180    1.8434   19.1790 H   0  0  0  0  0  0  0  0  0  0  0  0
    5.3853    0.7418   20.1858 C   0  0  0  0  0  0  0  0  0  0  0  0
    4.9221    0.7498   21.1754 H   0  0  0  0  0  0  0  0  0  0  0  0
  1  2  1  0
  2  3  2  0
  3  4  1  0
  4  5  2  0
  5  6  1  0
  6  7  1  0
  6  8  1  0
  6  9  1  0
  9 10  2  0
 10 11  1  0
 10 12  1  0
 12 13  1  0
 12 14  2  0
 14 15  1  0
 14 16  1  0
 16 17  1  0
 16 18  2  0
 18 19  1  0
  5 20  1  0
 20 21  2  0
 21 22  1  0
 22 23  2  0
 23 24  1  0
 23 25  1  0
 25 26  2  0
 26 27  1  0
 26 28  1  0
 28 29  1  0
 28 30  2  0
 30 31  1  0
 21  2  1  0
 30 22  1  0
 18  9  1  0
M  END
>  <cnnaffinity>  (1) 
-5.72695

>  <filename>  (1) 
Clc1ccc(Cc2nncc(-c3cccnc3)n2)cc1Cl

$$$$
