
     RDKit          3D

 23 24  0  0  0  0  0  0  0  0999 V2000
    4.9092    1.7744   17.0027 H   0  0  0  0  0  0  0  0  0  0  0  0
    5.4007    1.2924   17.8427 C   0  0  0  0  0  0  0  0  0  0  0  0
    6.5680    0.6817   17.5750 N   0  0  0  0  0  0  0  0  0  0  0  0
    7.1793    0.0636   18.5906 C   0  0  0  0  0  0  0  0  0  0  0  0
    8.1266   -0.4310   18.3741 H   0  0  0  0  0  0  0  0  0  0  0  0
    6.6583    0.0109   19.9005 C   0  0  0  0  0  0  0  0  0  0  0  0
    7.3520   -0.6785   20.9377 C   0  0  0  0  0  0  0  0  0  0  0  0
    7.9394   -1.2629   21.8159 C   0  0  0  0  0  0  0  0  0  0  0  0
    8.6142   -1.9453   22.8681 C   0  0  0  0  0  0  0  0  0  0  0  0
    9.8368   -2.5799   22.5859 C   0  0  0  0  0  0  0  0  0  0  0  0
   10.2467   -2.5398   21.5802 H   0  0  0  0  0  0  0  0  0  0  0  0
   10.5226   -3.2548   23.5905 C   0  0  0  0  0  0  0  0  0  0  0  0
   11.4691   -3.7367   23.3705 H   0  0  0  0  0  0  0  0  0  0  0  0
    9.9995   -3.3100   24.8832 C   0  0  0  0  0  0  0  0  0  0  0  0
   10.5360   -3.8387   25.6642 H   0  0  0  0  0  0  0  0  0  0  0  0
    8.7858   -2.6815   25.1815 C   0  0  0  0  0  0  0  0  0  0  0  0
    8.1850   -2.7756   26.8040 Cl  0  0  0  0  0  0  0  0  0  0  0  0
    8.0850   -1.9960   24.1770 C   0  0  0  0  0  0  0  0  0  0  0  0
    6.5799   -1.2148   24.5305 Cl  0  0  0  0  0  0  0  0  0  0  0  0
    5.4378    0.6545   20.1599 C   0  0  0  0  0  0  0  0  0  0  0  0
    5.0100    0.6283   21.1627 H   0  0  0  0  0  0  0  0  0  0  0  0
    4.8020    1.3132   19.1087 C   0  0  0  0  0  0  0  0  0  0  0  0
    3.8682    1.8476   19.2639 H   0  0  0  0  0  0  0  0  0  0  0  0
  1  2  1  0
  2  3  2  0
  3  4  1  0
  4  5  1  0
  4  6  2  0
  6  7  1  0
  7  8  3  0
  8  9  1  0
  9 10  2  0
 10 11  1  0
 10 12  1  0
 12 13  1  0
 12 14  2  0
 14 15  1  0
 14 16  1  0
 16 17  1  0
 16 18  2  0
 18 19  1  0
  6 20  1  0
 20 21  1  0
 20 22  2  0
 22 23  1  0
 22  2  1  0
 18  9  1  0
M  END
>  <cnnaffinity>  (1) 
-4.95785

>  <filename>  (1) 
Clc1cccc(C#Cc2cccnc2)c1Cl

$$$$
