
     RDKit          3D

 31 34  0  0  0  0  0  0  0  0999 V2000
   10.7790   -5.6027   25.7579 Cl  0  0  0  0  0  0  0  0  0  0  0  0
    9.4058   -4.7473   25.1287 C   0  0  0  0  0  0  0  0  0  0  0  0
    8.1335   -5.0960   25.5292 C   0  0  0  0  0  0  0  0  0  0  0  0
    7.0190   -4.3725   25.0333 C   0  0  0  0  0  0  0  0  0  0  0  0
    7.1857   -3.3399   24.1382 C   0  0  0  0  0  0  0  0  0  0  0  0
    8.4887   -3.0194   23.6437 C   0  0  0  0  0  0  0  0  0  0  0  0
    8.7460   -2.0324   22.6315 C   0  0  0  0  0  0  0  0  0  0  0  0
    7.6849   -1.2676   21.9933 C   0  0  0  0  0  0  0  0  0  0  0  0
    6.5587   -0.9036   22.5078 N   0  0  0  0  0  0  0  0  0  0  0  0
    5.9066   -0.1475   21.5652 N   0  0  0  0  0  0  0  0  0  0  0  0
    6.6649   -0.1200   20.5212 C   0  0  0  0  0  0  0  0  0  0  0  0
    6.3117    0.5440   19.2713 C   0  0  0  0  0  0  0  0  0  0  0  0
    5.1072    1.2689   19.1891 C   0  0  0  0  0  0  0  0  0  0  0  0
    4.7862    1.8848   17.9884 C   0  0  0  0  0  0  0  0  0  0  0  0
    5.6726    1.7690   16.9183 C   0  0  0  0  0  0  0  0  0  0  0  0
    6.8162    1.0733   16.9835 N   0  0  0  0  0  0  0  0  0  0  0  0
    7.1253    0.4725   18.1386 C   0  0  0  0  0  0  0  0  0  0  0  0
    8.0591   -0.0894   18.1533 H   0  0  0  0  0  0  0  0  0  0  0  0
    5.4428    2.2678   15.9793 H   0  0  0  0  0  0  0  0  0  0  0  0
    3.8759    2.4574   17.8607 H   0  0  0  0  0  0  0  0  0  0  0  0
    4.4562    1.3469   20.0602 H   0  0  0  0  0  0  0  0  0  0  0  0
    7.8296   -0.7980   20.7138 O   0  0  0  0  0  0  0  0  0  0  0  0
   10.0471   -1.7634   22.2741 C   0  0  0  0  0  0  0  0  0  0  0  0
   11.1190   -2.4072   22.7890 N   0  0  0  0  0  0  0  0  0  0  0  0
   10.9123   -3.3416   23.7000 C   0  0  0  0  0  0  0  0  0  0  0  0
    9.6243   -3.7122   24.1732 C   0  0  0  0  0  0  0  0  0  0  0  0
   11.7849   -3.8577   24.0970 H   0  0  0  0  0  0  0  0  0  0  0  0
   10.2831   -0.9951   21.5383 H   0  0  0  0  0  0  0  0  0  0  0  0
    6.3521   -2.7287   23.8101 H   0  0  0  0  0  0  0  0  0  0  0  0
    6.0181   -4.6425   25.3660 H   0  0  0  0  0  0  0  0  0  0  0  0
    7.9840   -5.9117   26.2289 H   0  0  0  0  0  0  0  0  0  0  0  0
  1  2  1  0
  2  3  2  0
  3  4  1  0
  4  5  2  0
  5  6  1  0
  6  7  2  0
  7  8  1  0
  8  9  2  0
  9 10  1  0
 10 11  2  0
 11 12  1  0
 12 13  2  0
 13 14  1  0
 14 15  2  0
 15 16  1  0
 16 17  2  0
 17 18  1  0
 15 19  1  0
 14 20  1  0
 13 21  1  0
 11 22  1  0
  7 23  1  0
 23 24  2  0
 24 25  1  0
 25 26  2  0
 25 27  1  0
 23 28  1  0
  5 29  1  0
  4 30  1  0
  3 31  1  0
 26  2  1  0
 26  6  1  0
 22  8  1  0
 17 12  1  0
M  END
>  <cnnaffinity>  (1) 
-5.64121

>  <filename>  (1) 
Clc1cccc2c(-c3nnc(-c4cccnc4)o3)cncc12

$$$$
