
     RDKit          3D

 33 36  0  0  0  0  0  0  0  0999 V2000
    4.9514    1.8418   16.9463 H   0  0  0  0  0  0  0  0  0  0  0  0
    5.4038    1.3061   17.7750 C   0  0  0  0  0  0  0  0  0  0  0  0
    6.5553    0.6703   17.5130 N   0  0  0  0  0  0  0  0  0  0  0  0
    7.1460    0.0128   18.5151 C   0  0  0  0  0  0  0  0  0  0  0  0
    8.0999   -0.4561   18.2782 H   0  0  0  0  0  0  0  0  0  0  0  0
    6.6178   -0.0507   19.8173 C   0  0  0  0  0  0  0  0  0  0  0  0
    7.3702   -0.6699   20.9202 C   0  0  0  0  0  0  0  0  0  0  0  0
    8.5003   -1.3731   20.7261 N   0  0  0  0  0  0  0  0  0  0  0  0
    8.8953   -1.6527   21.9929 N   0  0  0  0  0  0  0  0  0  0  0  0
   10.0740   -2.1276   22.5599 C   0  0  0  0  0  0  0  0  0  0  0  0
   10.8646   -2.4915   21.9235 H   0  0  0  0  0  0  0  0  0  0  0  0
    9.9709   -1.9028   23.8942 C   0  0  0  0  0  0  0  0  0  0  0  0
   10.6530   -1.9937   24.7293 H   0  0  0  0  0  0  0  0  0  0  0  0
    8.7093   -1.3777   24.1395 N   0  0  0  0  0  0  0  0  0  0  0  0
    8.4694   -0.6974   25.2994 O   0  0  0  0  0  0  0  0  0  0  0  0
    7.1250   -0.5941   25.6830 C   0  0  0  0  0  0  0  0  0  0  0  0
    6.8553    0.5427   26.4392 C   0  0  0  0  0  0  0  0  0  0  0  0
    7.6751    1.2381   26.6004 H   0  0  0  0  0  0  0  0  0  0  0  0
    5.5573    0.7499   26.9046 C   0  0  0  0  0  0  0  0  0  0  0  0
    5.3345    1.6383   27.4907 H   0  0  0  0  0  0  0  0  0  0  0  0
    4.5449   -0.1792   26.6132 C   0  0  0  0  0  0  0  0  0  0  0  0
    3.5306   -0.0413   26.9649 H   0  0  0  0  0  0  0  0  0  0  0  0
    4.8507   -1.3109   25.8502 C   0  0  0  0  0  0  0  0  0  0  0  0
    3.5894   -2.4520   25.4635 Cl  0  0  0  0  0  0  0  0  0  0  0  0
    6.1404   -1.5387   25.3686 C   0  0  0  0  0  0  0  0  0  0  0  0
    6.3664   -2.3892   24.7311 H   0  0  0  0  0  0  0  0  0  0  0  0
    8.0848   -1.1415   22.9368 C   0  0  0  0  0  0  0  0  0  0  0  0
    7.0344   -0.5098   22.2867 C   0  0  0  0  0  0  0  0  0  0  0  0
    6.2016    0.0063   22.7371 H   0  0  0  0  0  0  0  0  0  0  0  0
    5.4050    0.6176   20.0665 C   0  0  0  0  0  0  0  0  0  0  0  0
    4.9677    0.6394   21.0654 H   0  0  0  0  0  0  0  0  0  0  0  0
    4.7883    1.3048   19.0292 C   0  0  0  0  0  0  0  0  0  0  0  0
    3.8694    1.8582   19.1919 H   0  0  0  0  0  0  0  0  0  0  0  0
  1  2  1  0
  2  3  2  0
  3  4  1  0
  4  5  1  0
  4  6  2  0
  6  7  1  0
  7  8  2  0
  8  9  1  0
  9 10  1  0
 10 11  1  0
 10 12  2  0
 12 13  1  0
 12 14  1  0
 14 15  1  0
 15 16  1  0
 16 17  2  0
 17 18  1  0
 17 19  1  0
 19 20  1  0
 19 21  2  0
 21 22  1  0
 21 23  1  0
 23 24  1  0
 23 25  2  0
 25 26  1  0
 14 27  1  0
 27 28  2  0
 28 29  1  0
  6 30  1  0
 30 31  1  0
 30 32  2  0
 32 33  1  0
 32  2  1  0
 28  7  1  0
 27  9  1  0
 25 16  1  0
M  END
>  <cnnaffinity>  (1) 
-5.66575

>  <filename>  (1) 
Clc1cccc(On2ccn3nc(-c4cccnc4)cc23)c1

$$$$
