
     RDKit          3D

 29 31  0  0  0  0  0  0  0  0999 V2000
    4.7762    2.0287   16.7380 H   0  0  0  0  0  0  0  0  0  0  0  0
    5.3034    1.5062   17.5306 C   0  0  0  0  0  0  0  0  0  0  0  0
    6.4517    0.9082   17.1797 N   0  0  0  0  0  0  0  0  0  0  0  0
    7.1346    0.2759   18.1371 C   0  0  0  0  0  0  0  0  0  0  0  0
    8.0575   -0.2037   17.8152 H   0  0  0  0  0  0  0  0  0  0  0  0
    6.7156    0.1911   19.4722 C   0  0  0  0  0  0  0  0  0  0  0  0
    7.4317   -0.6187   20.4572 C   0  0  0  0  0  0  0  0  0  0  0  0
    6.8482   -0.7955   21.6970 N   0  0  0  0  0  0  0  0  0  0  0  0
    7.6350   -1.6289   22.2820 C   0  0  0  0  0  0  0  0  0  0  0  0
    7.3427   -2.0473   23.5219 N   0  0  0  0  0  0  0  0  0  0  0  0
    6.6041   -1.4344   23.8162 H   0  0  0  0  0  0  0  0  0  0  0  0
    8.1700   -2.6874   24.4476 C   0  0  0  0  0  0  0  0  0  0  0  0
    8.5089   -2.0410   25.6361 C   0  0  0  0  0  0  0  0  0  0  0  0
    8.2061   -1.0090   25.7827 H   0  0  0  0  0  0  0  0  0  0  0  0
    9.2621   -2.7066   26.6092 C   0  0  0  0  0  0  0  0  0  0  0  0
    9.5358   -2.1812   27.5160 H   0  0  0  0  0  0  0  0  0  0  0  0
    9.6419   -4.0382   26.3865 C   0  0  0  0  0  0  0  0  0  0  0  0
   10.4428   -4.9623   27.6353 Cl  0  0  0  0  0  0  0  0  0  0  0  0
    9.3447   -4.6734   25.1767 C   0  0  0  0  0  0  0  0  0  0  0  0
    9.7031   -5.6878   25.0233 H   0  0  0  0  0  0  0  0  0  0  0  0
    8.6142   -3.9844   24.1961 C   0  0  0  0  0  0  0  0  0  0  0  0
    8.3553   -4.4270   23.2407 H   0  0  0  0  0  0  0  0  0  0  0  0
    8.7008   -2.0336   21.5940 O   0  0  0  0  0  0  0  0  0  0  0  0
    8.5716   -1.3479   20.3938 C   0  0  0  0  0  0  0  0  0  0  0  0
    9.3656   -1.4607   19.6753 H   0  0  0  0  0  0  0  0  0  0  0  0
    5.5106    0.8255   19.8237 C   0  0  0  0  0  0  0  0  0  0  0  0
    5.1521    0.7714   20.8541 H   0  0  0  0  0  0  0  0  0  0  0  0
    4.7912    1.4828   18.8329 C   0  0  0  0  0  0  0  0  0  0  0  0
    3.8476    1.9678   19.0561 H   0  0  0  0  0  0  0  0  0  0  0  0
  1  2  1  0
  2  3  2  0
  3  4  1  0
  4  5  1  0
  4  6  2  0
  6  7  1  0
  7  8  1  0
  8  9  2  0
  9 10  1  0
 10 11  1  0
 10 12  1  0
 12 13  2  0
 13 14  1  0
 13 15  1  0
 15 16  1  0
 15 17  2  0
 17 18  1  0
 17 19  1  0
 19 20  1  0
 19 21  2  0
 21 22  1  0
  9 23  1  0
 23 24  1  0
 24 25  1  0
  6 26  1  0
 26 27  1  0
 26 28  2  0
 28 29  1  0
 28  2  1  0
 24  7  2  0
 21 12  1  0
M  END
>  <cnnaffinity>  (1) 
-4.39385

>  <filename>  (1) 
Clc1ccc(Nc2nc(-c3cccnc3)co2)cc1

$$$$
