
     RDKit          3D

 38 40  0  0  0  0  0  0  0  0999 V2000
    7.3637    4.8292   22.6053 Cl  0  0  0  0  0  0  0  0  0  0  0  0
    7.7536    4.0561   24.1234 C   0  0  0  0  0  0  0  0  0  0  0  0
    7.6922    4.8486   25.2741 C   0  0  0  0  0  0  0  0  0  0  0  0
    7.9660    4.2677   26.5159 C   0  0  0  0  0  0  0  0  0  0  0  0
    8.3058    2.9128   26.5988 C   0  0  0  0  0  0  0  0  0  0  0  0
    8.3455    2.1350   25.4400 C   0  0  0  0  0  0  0  0  0  0  0  0
    8.0843    2.6865   24.1724 C   0  0  0  0  0  0  0  0  0  0  0  0
    8.2094    1.8393   22.9229 C   0  0  0  0  0  0  0  0  0  0  0  0
    9.5606    2.0481   22.2207 C   0  0  0  0  0  0  0  0  0  0  0  0
    9.7222    1.2857   20.9083 C   0  0  0  0  0  0  0  0  0  0  0  0
    9.7329   -0.1745   21.0278 N   0  0  0  0  0  0  0  0  0  0  0  0
   10.7939   -1.0133   21.2859 C   0  0  0  0  0  0  0  0  0  0  0  0
   10.3931   -2.2185   21.5514 N   0  0  0  0  0  0  0  0  0  0  0  0
    9.0148   -2.2147   21.4812 N   0  0  0  0  0  0  0  0  0  0  0  0
    8.6542   -1.0076   21.1474 C   0  0  0  0  0  0  0  0  0  0  0  0
    7.3319   -0.6326   21.0358 N   0  0  0  0  0  0  0  0  0  0  0  0
    6.7329    0.0012   19.9036 C   0  0  0  0  0  0  0  0  0  0  0  0
    5.5156    0.6517   20.1286 C   0  0  0  0  0  0  0  0  0  0  0  0
    4.8721    1.2952   19.0649 C   0  0  0  0  0  0  0  0  0  0  0  0
    5.4665    1.2653   17.7980 C   0  0  0  0  0  0  0  0  0  0  0  0
    6.6302    0.6430   17.5511 N   0  0  0  0  0  0  0  0  0  0  0  0
    7.2463    0.0347   18.5822 C   0  0  0  0  0  0  0  0  0  0  0  0
    8.1828   -0.4685   18.3490 H   0  0  0  0  0  0  0  0  0  0  0  0
    4.9835    1.7482   16.9494 H   0  0  0  0  0  0  0  0  0  0  0  0
    3.9261    1.8066   19.2086 H   0  0  0  0  0  0  0  0  0  0  0  0
    5.1173    0.6338   21.1432 H   0  0  0  0  0  0  0  0  0  0  0  0
    6.8016   -1.4117   21.4080 H   0  0  0  0  0  0  0  0  0  0  0  0
   11.8273   -0.6962   21.2176 H   0  0  0  0  0  0  0  0  0  0  0  0
    8.8834    1.5407   20.2536 H   0  0  0  0  0  0  0  0  0  0  0  0
   10.6586    1.6036   20.4311 H   0  0  0  0  0  0  0  0  0  0  0  0
   10.3907    1.8121   22.8951 H   0  0  0  0  0  0  0  0  0  0  0  0
    9.6661    3.1100   21.9703 H   0  0  0  0  0  0  0  0  0  0  0  0
    8.0825    0.7807   23.1817 H   0  0  0  0  0  0  0  0  0  0  0  0
    7.4037    2.0949   22.2171 H   0  0  0  0  0  0  0  0  0  0  0  0
    8.5453    1.0662   25.5253 H   0  0  0  0  0  0  0  0  0  0  0  0
    8.5412    2.4436   27.5495 H   0  0  0  0  0  0  0  0  0  0  0  0
    7.8893    4.8706   27.4164 H   0  0  0  0  0  0  0  0  0  0  0  0
    7.4144    5.8950   25.1813 H   0  0  0  0  0  0  0  0  0  0  0  0
  1  2  1  0
  2  3  2  0
  3  4  1  0
  4  5  2  0
  5  6  1  0
  6  7  2  0
  7  8  1  0
  8  9  1  0
  9 10  1  0
 10 11  1  0
 11 12  1  0
 12 13  2  0
 13 14  1  0
 14 15  2  0
 15 16  1  0
 16 17  1  0
 17 18  2  0
 18 19  1  0
 19 20  2  0
 20 21  1  0
 21 22  2  0
 22 23  1  0
 20 24  1  0
 19 25  1  0
 18 26  1  0
 16 27  1  0
 12 28  1  0
 10 29  1  0
 10 30  1  0
  9 31  1  0
  9 32  1  0
  8 33  1  0
  8 34  1  0
  6 35  1  0
  5 36  1  0
  4 37  1  0
  3 38  1  0
  7  2  1  0
 15 11  1  0
 22 17  1  0
M  END
>  <cnnaffinity>  (1) 
-5.50064

>  <filename>  (1) 
Clc1ccccc1CCCn1cnnc1Nc1cccnc1

$$$$
