
     RDKit          3D

 31 33  0  0  0  0  0  0  0  0999 V2000
   10.1267   -0.8553   24.9761 Cl  0  0  0  0  0  0  0  0  0  0  0  0
    8.4652   -1.3500   24.8804 C   0  0  0  0  0  0  0  0  0  0  0  0
    7.6051   -0.9084   25.8896 C   0  0  0  0  0  0  0  0  0  0  0  0
    6.3173   -1.2567   25.9594 N   0  0  0  0  0  0  0  0  0  0  0  0
    5.8499   -2.0697   25.0098 C   0  0  0  0  0  0  0  0  0  0  0  0
    6.6443   -2.5577   23.9661 C   0  0  0  0  0  0  0  0  0  0  0  0
    5.8906   -3.6174   22.8121 Cl  0  0  0  0  0  0  0  0  0  0  0  0
    7.9939   -2.1883   23.8514 C   0  0  0  0  0  0  0  0  0  0  0  0
    8.8935   -2.6646   22.7316 C   0  0  0  0  0  0  0  0  0  0  0  0
    9.3891   -1.5719   21.9113 N   0  0  0  0  0  0  0  0  0  0  0  0
   10.7020   -1.2036   21.7497 C   0  0  0  0  0  0  0  0  0  0  0  0
   10.8126   -0.2063   20.9340 N   0  0  0  0  0  0  0  0  0  0  0  0
    9.5444    0.1145   20.4982 N   0  0  0  0  0  0  0  0  0  0  0  0
    8.7103   -0.6872   21.1057 C   0  0  0  0  0  0  0  0  0  0  0  0
    7.3515   -0.7095   20.9345 N   0  0  0  0  0  0  0  0  0  0  0  0
    6.6729   -0.0076   19.9063 C   0  0  0  0  0  0  0  0  0  0  0  0
    5.4504    0.6273   20.1649 C   0  0  0  0  0  0  0  0  0  0  0  0
    4.8148    1.3016   19.1132 C   0  0  0  0  0  0  0  0  0  0  0  0
    5.3923    1.2960   17.8396 C   0  0  0  0  0  0  0  0  0  0  0  0
    6.5531    0.6778   17.5673 N   0  0  0  0  0  0  0  0  0  0  0  0
    7.1754    0.0632   18.5789 C   0  0  0  0  0  0  0  0  0  0  0  0
    8.1306   -0.4158   18.3724 H   0  0  0  0  0  0  0  0  0  0  0  0
    4.9111    1.7880   16.9980 H   0  0  0  0  0  0  0  0  0  0  0  0
    3.8855    1.8341   19.2681 H   0  0  0  0  0  0  0  0  0  0  0  0
    5.0258    0.6175   21.1713 H   0  0  0  0  0  0  0  0  0  0  0  0
    6.8071   -1.0897   21.6973 H   0  0  0  0  0  0  0  0  0  0  0  0
   11.5196   -1.6941   22.2534 H   0  0  0  0  0  0  0  0  0  0  0  0
    9.7551   -3.1704   23.1753 H   0  0  0  0  0  0  0  0  0  0  0  0
    8.3659   -3.3880   22.1078 H   0  0  0  0  0  0  0  0  0  0  0  0
    4.8068   -2.3587   25.0666 H   0  0  0  0  0  0  0  0  0  0  0  0
    7.9830   -0.2576   26.6703 H   0  0  0  0  0  0  0  0  0  0  0  0
  1  2  1  0
  2  3  2  0
  3  4  1  0
  4  5  2  0
  5  6  1  0
  6  7  1  0
  6  8  2  0
  8  9  1  0
  9 10  1  0
 10 11  1  0
 11 12  2  0
 12 13  1  0
 13 14  2  0
 14 15  1  0
 15 16  1  0
 16 17  2  0
 17 18  1  0
 18 19  2  0
 19 20  1  0
 20 21  2  0
 21 22  1  0
 19 23  1  0
 18 24  1  0
 17 25  1  0
 15 26  1  0
 11 27  1  0
  9 28  1  0
  9 29  1  0
  5 30  1  0
  3 31  1  0
  8  2  1  0
 14 10  1  0
 21 16  1  0
M  END
>  <cnnaffinity>  (1) 
-5.89582

>  <filename>  (1) 
Clc1cncc(Cl)c1Cn1cnnc1Nc1cccnc1

$$$$
