
     RDKit          3D

 28 30  0  0  0  0  0  0  0  0999 V2000
    4.9247    1.7785   16.9962 H   0  0  0  0  0  0  0  0  0  0  0  0
    5.4049    1.2904   17.8377 C   0  0  0  0  0  0  0  0  0  0  0  0
    6.5684    0.6724   17.5784 N   0  0  0  0  0  0  0  0  0  0  0  0
    7.1739    0.0650   18.6017 C   0  0  0  0  0  0  0  0  0  0  0  0
    8.1227   -0.4217   18.3829 H   0  0  0  0  0  0  0  0  0  0  0  0
    6.6431    0.0133   19.9001 C   0  0  0  0  0  0  0  0  0  0  0  0
    7.3961   -0.6940   20.9209 C   0  0  0  0  0  0  0  0  0  0  0  0
    8.6591   -1.0439   20.8264 N   0  0  0  0  0  0  0  0  0  0  0  0
    8.9616   -1.6589   21.9977 C   0  0  0  0  0  0  0  0  0  0  0  0
    9.9423   -2.0352   22.2194 H   0  0  0  0  0  0  0  0  0  0  0  0
    7.8721   -1.7243   22.8228 C   0  0  0  0  0  0  0  0  0  0  0  0
    7.7028   -2.2643   24.1689 C   0  0  0  0  0  0  0  0  0  0  0  0
    7.0164   -1.5051   25.1334 C   0  0  0  0  0  0  0  0  0  0  0  0
    6.5942   -0.5503   24.8321 H   0  0  0  0  0  0  0  0  0  0  0  0
    6.8927   -1.9560   26.4402 C   0  0  0  0  0  0  0  0  0  0  0  0
    6.3543   -1.3592   27.1681 H   0  0  0  0  0  0  0  0  0  0  0  0
    7.4552   -3.1801   26.8015 C   0  0  0  0  0  0  0  0  0  0  0  0
    7.3701   -3.5713   27.8016 H   0  0  0  0  0  0  0  0  0  0  0  0
    8.1349   -3.9551   25.8635 C   0  0  0  0  0  0  0  0  0  0  0  0
    8.8021   -5.4674   26.3773 Cl  0  0  0  0  0  0  0  0  0  0  0  0
    8.2527   -3.5101   24.5420 C   0  0  0  0  0  0  0  0  0  0  0  0
    9.0314   -4.5278   23.3760 Cl  0  0  0  0  0  0  0  0  0  0  0  0
    6.8798   -1.0725   22.1197 N   0  0  0  0  0  0  0  0  0  0  0  0
    5.9204   -0.9732   22.3927 H   0  0  0  0  0  0  0  0  0  0  0  0
    5.4222    0.6569   20.1559 C   0  0  0  0  0  0  0  0  0  0  0  0
    4.9845    0.6563   21.1618 H   0  0  0  0  0  0  0  0  0  0  0  0
    4.8003    1.3135   19.1015 C   0  0  0  0  0  0  0  0  0  0  0  0
    3.8694    1.8457   19.2573 H   0  0  0  0  0  0  0  0  0  0  0  0
  1  2  1  0
  2  3  2  0
  3  4  1  0
  4  5  1  0
  4  6  2  0
  6  7  1  0
  7  8  2  0
  8  9  1  0
  9 10  1  0
  9 11  2  0
 11 12  1  0
 12 13  2  0
 13 14  1  0
 13 15  1  0
 15 16  1  0
 15 17  2  0
 17 18  1  0
 17 19  1  0
 19 20  1  0
 19 21  2  0
 21 22  1  0
 11 23  1  0
 23 24  1  0
  6 25  1  0
 25 26  1  0
 25 27  2  0
 27 28  1  0
 27  2  1  0
 23  7  1  0
 21 12  1  0
M  END
>  <cnnaffinity>  (1) 
-5.67211

>  <filename>  (1) 
Clc1cccc(-c2cnc(-c3cccnc3)[nH]2)c1Cl

$$$$
