
     RDKit          3D

 32 34  0  0  0  0  0  0  0  0999 V2000
    9.9484   -0.0880   25.5117 Cl  0  0  0  0  0  0  0  0  0  0  0  0
    9.9390   -0.8358   23.9400 C   0  0  0  0  0  0  0  0  0  0  0  0
   11.0577   -0.6838   23.1130 C   0  0  0  0  0  0  0  0  0  0  0  0
   11.0867   -1.2884   21.8538 C   0  0  0  0  0  0  0  0  0  0  0  0
   10.0062   -2.0611   21.4327 C   0  0  0  0  0  0  0  0  0  0  0  0
    8.8937   -2.2204   22.2565 C   0  0  0  0  0  0  0  0  0  0  0  0
    7.4387   -3.2987   21.6645 Br  0  0  0  0  0  0  0  0  0  0  0  0
    8.8296   -1.5720   23.4954 C   0  0  0  0  0  0  0  0  0  0  0  0
    7.5454   -1.6150   24.2860 C   0  0  0  0  0  0  0  0  0  0  0  0
    6.8535   -0.3341   24.0758 N   0  0  0  0  0  0  0  0  0  0  0  0
    6.4965    0.5946   25.0223 C   0  0  0  0  0  0  0  0  0  0  0  0
    5.8453    1.5796   24.4536 N   0  0  0  0  0  0  0  0  0  0  0  0
    5.7848    1.3045   23.1058 N   0  0  0  0  0  0  0  0  0  0  0  0
    6.3992    0.1724   22.8859 C   0  0  0  0  0  0  0  0  0  0  0  0
    6.6375   -0.4982   21.6873 N   0  0  0  0  0  0  0  0  0  0  0  0
    6.3460   -0.0072   20.3922 C   0  0  0  0  0  0  0  0  0  0  0  0
    5.3560    0.9557   20.2178 C   0  0  0  0  0  0  0  0  0  0  0  0
    5.0905    1.4376   18.9302 C   0  0  0  0  0  0  0  0  0  0  0  0
    5.8234    0.9506   17.8406 C   0  0  0  0  0  0  0  0  0  0  0  0
    6.7583   -0.0062   17.9765 N   0  0  0  0  0  0  0  0  0  0  0  0
    7.0059   -0.4733   19.2241 C   0  0  0  0  0  0  0  0  0  0  0  0
    7.7604   -1.2437   19.3441 H   0  0  0  0  0  0  0  0  0  0  0  0
    5.6291    1.3638   16.8546 H   0  0  0  0  0  0  0  0  0  0  0  0
    4.3306    2.1928   18.7660 H   0  0  0  0  0  0  0  0  0  0  0  0
    4.8003    1.3007   21.0865 H   0  0  0  0  0  0  0  0  0  0  0  0
    7.1591   -1.3625   21.7867 H   0  0  0  0  0  0  0  0  0  0  0  0
    6.7048    0.5096   26.0810 H   0  0  0  0  0  0  0  0  0  0  0  0
    6.9073   -2.4359   23.9358 H   0  0  0  0  0  0  0  0  0  0  0  0
    7.7490   -1.7981   25.3471 H   0  0  0  0  0  0  0  0  0  0  0  0
   10.0146   -2.5416   20.4610 H   0  0  0  0  0  0  0  0  0  0  0  0
   11.9503   -1.1869   21.2056 H   0  0  0  0  0  0  0  0  0  0  0  0
   11.8961   -0.0781   23.4450 H   0  0  0  0  0  0  0  0  0  0  0  0
  1  2  1  0
  2  3  2  0
  3  4  1  0
  4  5  2  0
  5  6  1  0
  6  7  1  0
  6  8  2  0
  8  9  1  0
  9 10  1  0
 10 11  1  0
 11 12  2  0
 12 13  1  0
 13 14  2  0
 14 15  1  0
 15 16  1  0
 16 17  2  0
 17 18  1  0
 18 19  2  0
 19 20  1  0
 20 21  2  0
 21 22  1  0
 19 23  1  0
 18 24  1  0
 17 25  1  0
 15 26  1  0
 11 27  1  0
  9 28  1  0
  9 29  1  0
  5 30  1  0
  4 31  1  0
  3 32  1  0
  8  2  1  0
 14 10  1  0
 21 16  1  0
M  END
>  <cnnaffinity>  (1) 
-5.7966

>  <filename>  (1) 
Clc1cccc(Br)c1Cn1cnnc1Nc1cccnc1

$$$$
