
     RDKit          3D

 30 32  0  0  0  0  0  0  0  0999 V2000
    8.7468   -3.2127   22.0853 H   0  0  0  0  0  0  0  0  0  0  0  0
    8.3238   -2.2346   21.9066 C   0  0  0  0  0  0  0  0  0  0  0  0
    8.2524   -1.2661   22.8583 N   0  0  0  0  0  0  0  0  0  0  0  0
    7.6591   -0.2756   22.2271 C   0  0  0  0  0  0  0  0  0  0  0  0
    7.3834    1.0606   22.8534 C   0  0  0  0  0  0  0  0  0  0  0  0
    6.5893    0.9369   23.5970 H   0  0  0  0  0  0  0  0  0  0  0  0
    7.0285    1.7592   22.0935 H   0  0  0  0  0  0  0  0  0  0  0  0
    8.6265    1.6522   23.4911 C   0  0  0  0  0  0  0  0  0  0  0  0
    8.8877    1.5546   24.8622 C   0  0  0  0  0  0  0  0  0  0  0  0
    8.1444    1.1399   25.5358 H   0  0  0  0  0  0  0  0  0  0  0  0
   10.1074    1.9846   25.3882 C   0  0  0  0  0  0  0  0  0  0  0  0
   10.3079    1.8676   26.4389 H   0  0  0  0  0  0  0  0  0  0  0  0
   11.0746    2.5430   24.5531 C   0  0  0  0  0  0  0  0  0  0  0  0
   12.0200    2.8697   24.9576 H   0  0  0  0  0  0  0  0  0  0  0  0
   10.8423    2.6649   23.1913 C   0  0  0  0  0  0  0  0  0  0  0  0
   11.6018    3.0702   22.5298 H   0  0  0  0  0  0  0  0  0  0  0  0
    9.6220    2.2228   22.6818 C   0  0  0  0  0  0  0  0  0  0  0  0
    9.3511    2.3805   20.9870 Cl  0  0  0  0  0  0  0  0  0  0  0  0
    7.3650   -0.6583   20.9388 N   0  0  0  0  0  0  0  0  0  0  0  0
    6.6549    0.0127   19.9005 C   0  0  0  0  0  0  0  0  0  0  0  0
    7.1633   -0.0014   18.5887 C   0  0  0  0  0  0  0  0  0  0  0  0
    8.0877   -0.5362   18.3740 H   0  0  0  0  0  0  0  0  0  0  0  0
    6.5746    0.6309   17.5688 N   0  0  0  0  0  0  0  0  0  0  0  0
    5.4261    1.2901   17.8125 C   0  0  0  0  0  0  0  0  0  0  0  0
    4.9922    1.8332   16.9743 H   0  0  0  0  0  0  0  0  0  0  0  0
    4.8089    1.3017   19.0655 C   0  0  0  0  0  0  0  0  0  0  0  0
    3.8765    1.8382   19.2043 H   0  0  0  0  0  0  0  0  0  0  0  0
    5.4333    0.6560   20.1384 C   0  0  0  0  0  0  0  0  0  0  0  0
    4.9840    0.6363   21.1318 H   0  0  0  0  0  0  0  0  0  0  0  0
    7.8237   -1.9155   20.7339 N   0  0  0  0  0  0  0  0  0  0  0  0
  1  2  1  0
  2  3  1  0
  3  4  2  0
  4  5  1  0
  5  6  1  0
  5  7  1  0
  5  8  1  0
  8  9  2  0
  9 10  1  0
  9 11  1  0
 11 12  1  0
 11 13  2  0
 13 14  1  0
 13 15  1  0
 15 16  1  0
 15 17  2  0
 17 18  1  0
  4 19  1  0
 19 20  1  0
 20 21  2  0
 21 22  1  0
 21 23  1  0
 23 24  2  0
 24 25  1  0
 24 26  1  0
 26 27  1  0
 26 28  2  0
 28 29  1  0
 19 30  1  0
 30  2  2  0
 17  8  1  0
 28 20  1  0
M  END
>  <cnnaffinity>  (1) 
-4.92385

>  <filename>  (1) 
Clc1ccccc1Cc1ncnn1-c1cccnc1

$$$$
