
     RDKit          3D

 33 36  0  0  0  0  0  0  0  0999 V2000
    4.9998    1.8053   16.9445 H   0  0  0  0  0  0  0  0  0  0  0  0
    5.4394    1.2822   17.7905 C   0  0  0  0  0  0  0  0  0  0  0  0
    6.5798    0.6166   17.5509 N   0  0  0  0  0  0  0  0  0  0  0  0
    7.1451   -0.0169   18.5818 C   0  0  0  0  0  0  0  0  0  0  0  0
    8.0599   -0.5651   18.3685 H   0  0  0  0  0  0  0  0  0  0  0  0
    6.6332   -0.0044   19.8904 C   0  0  0  0  0  0  0  0  0  0  0  0
    7.3846   -0.6399   20.9628 C   0  0  0  0  0  0  0  0  0  0  0  0
    8.1696   -1.7566   20.7792 N   0  0  0  0  0  0  0  0  0  0  0  0
    8.6145   -2.0243   21.9727 C   0  0  0  0  0  0  0  0  0  0  0  0
    8.2339   -1.1265   22.9168 N   0  0  0  0  0  0  0  0  0  0  0  0
    7.4348   -0.2233   22.2902 C   0  0  0  0  0  0  0  0  0  0  0  0
    6.9345    0.9590   22.9864 C   0  0  0  0  0  0  0  0  0  0  0  0
    6.0871    0.7913   24.0955 C   0  0  0  0  0  0  0  0  0  0  0  0
    5.8334   -0.2160   24.4172 H   0  0  0  0  0  0  0  0  0  0  0  0
    5.5696    1.8951   24.7638 C   0  0  0  0  0  0  0  0  0  0  0  0
    4.9017    1.7543   25.6061 H   0  0  0  0  0  0  0  0  0  0  0  0
    5.9163    3.1846   24.3543 C   0  0  0  0  0  0  0  0  0  0  0  0
    5.5309    4.0533   24.8787 H   0  0  0  0  0  0  0  0  0  0  0  0
    6.7885    3.3705   23.2767 C   0  0  0  0  0  0  0  0  0  0  0  0
    7.2350    4.9894   22.8452 Cl  0  0  0  0  0  0  0  0  0  0  0  0
    7.2982    2.2623   22.5825 C   0  0  0  0  0  0  0  0  0  0  0  0
    8.4041    2.4847   21.2637 Cl  0  0  0  0  0  0  0  0  0  0  0  0
    8.7526   -1.2717   24.2659 C   0  0  0  0  0  0  0  0  0  0  0  0
    8.9865   -0.2861   24.6809 H   0  0  0  0  0  0  0  0  0  0  0  0
    8.0222   -1.7727   24.9138 H   0  0  0  0  0  0  0  0  0  0  0  0
   10.0084   -2.1297   24.0753 C   0  0  0  0  0  0  0  0  0  0  0  0
   10.8609   -1.5138   23.7801 H   0  0  0  0  0  0  0  0  0  0  0  0
   10.2599   -2.6940   24.9732 H   0  0  0  0  0  0  0  0  0  0  0  0
    9.6320   -3.2605   22.6815 S   0  0  0  0  0  0  0  0  0  0  0  0
    5.4227    0.6771   20.1230 C   0  0  0  0  0  0  0  0  0  0  0  0
    4.9648    0.6957   21.1186 H   0  0  0  0  0  0  0  0  0  0  0  0
    4.8182    1.3210   19.0465 C   0  0  0  0  0  0  0  0  0  0  0  0
    3.8865    1.8626   19.1614 H   0  0  0  0  0  0  0  0  0  0  0  0
  1  2  1  0
  2  3  2  0
  3  4  1  0
  4  5  1  0
  4  6  2  0
  6  7  1  0
  7  8  1  0
  8  9  2  0
  9 10  1  0
 10 11  1  0
 11 12  1  0
 12 13  2  0
 13 14  1  0
 13 15  1  0
 15 16  1  0
 15 17  2  0
 17 18  1  0
 17 19  1  0
 19 20  1  0
 19 21  2  0
 21 22  1  0
 10 23  1  0
 23 24  1  0
 23 25  1  0
 23 26  1  0
 26 27  1  0
 26 28  1  0
 26 29  1  0
  6 30  1  0
 30 31  1  0
 30 32  2  0
 32 33  1  0
 32  2  1  0
 11  7  2  0
 21 12  1  0
 29  9  1  0
M  END
>  <cnnaffinity>  (1) 
-5.58306

>  <filename>  (1) 
Clc1cccc(-c2c(-c3cccnc3)nc3n2CCS3)c1Cl

$$$$
