
     RDKit          3D

 36 39  0  0  0  0  0  0  0  0999 V2000
    5.3233    1.8310   16.9997 H   0  0  0  0  0  0  0  0  0  0  0  0
    5.6761    1.3336   17.9008 C   0  0  0  0  0  0  0  0  0  0  0  0
    6.7438    0.5334   17.7538 N   0  0  0  0  0  0  0  0  0  0  0  0
    7.1670   -0.1227   18.8445 C   0  0  0  0  0  0  0  0  0  0  0  0
    8.0440   -0.7582   18.7147 H   0  0  0  0  0  0  0  0  0  0  0  0
    6.5555   -0.0380   20.1104 C   0  0  0  0  0  0  0  0  0  0  0  0
    6.9834   -0.8888   21.2807 C   0  0  0  0  0  0  0  0  0  0  0  0
    7.8025   -0.1925   22.3198 C   0  0  0  0  0  0  0  0  0  0  0  0
    7.3107    0.5643   23.2524 N   0  0  0  0  0  0  0  0  0  0  0  0
    8.2782    1.1211   24.0417 N   0  0  0  0  0  0  0  0  0  0  0  0
    9.4783    0.7697   23.6839 C   0  0  0  0  0  0  0  0  0  0  0  0
   10.7289    1.3190   24.3032 C   0  0  0  0  0  0  0  0  0  0  0  0
   10.6524    1.1800   25.3921 H   0  0  0  0  0  0  0  0  0  0  0  0
   11.5892    0.7362   23.9559 H   0  0  0  0  0  0  0  0  0  0  0  0
   10.8779    2.7888   23.9401 C   0  0  0  0  0  0  0  0  0  0  0  0
   10.2131    3.7632   24.7014 C   0  0  0  0  0  0  0  0  0  0  0  0
    9.6081    3.4350   25.5455 H   0  0  0  0  0  0  0  0  0  0  0  0
   10.3337    5.1221   24.4198 C   0  0  0  0  0  0  0  0  0  0  0  0
    9.8152    5.8539   25.0375 H   0  0  0  0  0  0  0  0  0  0  0  0
   11.0705    5.5286   23.3042 C   0  0  0  0  0  0  0  0  0  0  0  0
   11.1531    6.5874   23.0776 H   0  0  0  0  0  0  0  0  0  0  0  0
   11.6820    4.5814   22.4781 C   0  0  0  0  0  0  0  0  0  0  0  0
   12.2348    4.8586   21.5845 H   0  0  0  0  0  0  0  0  0  0  0  0
   11.5846    3.2243   22.8054 C   0  0  0  0  0  0  0  0  0  0  0  0
   12.3189    2.0694   21.7320 Cl  0  0  0  0  0  0  0  0  0  0  0  0
    9.5259   -0.3334   22.3527 S   0  0  0  0  0  0  0  0  0  0  0  0
    7.2043   -2.3633   21.0319 C   0  0  0  0  0  0  0  0  0  0  0  0
    6.9894   -2.6932   20.0228 H   0  0  0  0  0  0  0  0  0  0  0  0
    8.0201   -2.8650   21.5443 H   0  0  0  0  0  0  0  0  0  0  0  0
    6.0196   -1.9294   21.8153 C   0  0  0  0  0  0  0  0  0  0  0  0
    5.0516   -1.9524   21.3366 H   0  0  0  0  0  0  0  0  0  0  0  0
    6.0017   -2.0977   22.8885 H   0  0  0  0  0  0  0  0  0  0  0  0
    5.4982    0.8696   20.2566 C   0  0  0  0  0  0  0  0  0  0  0  0
    5.0519    1.0257   21.2406 H   0  0  0  0  0  0  0  0  0  0  0  0
    5.0295    1.5429   19.1245 C   0  0  0  0  0  0  0  0  0  0  0  0
    4.1835    2.2189   19.1759 H   0  0  0  0  0  0  0  0  0  0  0  0
  1  2  1  0
  2  3  2  0
  3  4  1  0
  4  5  1  0
  4  6  2  0
  6  7  1  0
  7  8  1  0
  8  9  2  0
  9 10  1  0
 10 11  2  0
 11 12  1  0
 12 13  1  0
 12 14  1  0
 12 15  1  0
 15 16  2  0
 16 17  1  0
 16 18  1  0
 18 19  1  0
 18 20  2  0
 20 21  1  0
 20 22  1  0
 22 23  1  0
 22 24  2  0
 24 25  1  0
 11 26  1  0
  7 27  1  0
 27 28  1  0
 27 29  1  0
 27 30  1  0
 30 31  1  0
 30 32  1  0
  6 33  1  0
 33 34  1  0
 33 35  2  0
 35 36  1  0
 35  2  1  0
 30  7  1  0
 26  8  1  0
 24 15  1  0
M  END
>  <cnnaffinity>  (1) 
-5.73742

>  <filename>  (1) 
Clc1ccccc1Cc1nnc(C2(c3cccnc3)CC2)s1

$$$$
