
     RDKit          3D

 31 33  0  0  0  0  0  0  0  0999 V2000
    4.9186    1.7843   16.9920 H   0  0  0  0  0  0  0  0  0  0  0  0
    5.4008    1.2955   17.8352 C   0  0  0  0  0  0  0  0  0  0  0  0
    6.5605    0.6715   17.5709 N   0  0  0  0  0  0  0  0  0  0  0  0
    7.1631    0.0613   18.5984 C   0  0  0  0  0  0  0  0  0  0  0  0
    8.1112   -0.4261   18.3724 H   0  0  0  0  0  0  0  0  0  0  0  0
    6.6504    0.0031   19.9078 C   0  0  0  0  0  0  0  0  0  0  0  0
    7.3530   -0.7370   20.9747 C   0  0  0  0  0  0  0  0  0  0  0  0
    6.5507   -1.9156   21.9469 S   0  0  0  0  0  0  0  0  0  0  0  0
    7.9905   -2.2641   22.8116 C   0  0  0  0  0  0  0  0  0  0  0  0
    7.9837   -3.0015   23.5936 H   0  0  0  0  0  0  0  0  0  0  0  0
    9.0314   -1.4996   22.3993 C   0  0  0  0  0  0  0  0  0  0  0  0
   10.0386   -1.5475   22.8139 H   0  0  0  0  0  0  0  0  0  0  0  0
    8.6584   -0.5962   21.3576 C   0  0  0  0  0  0  0  0  0  0  0  0
    9.6568    0.3813   20.7962 C   0  0  0  0  0  0  0  0  0  0  0  0
   10.4282   -0.2590   20.3634 H   0  0  0  0  0  0  0  0  0  0  0  0
    9.2074    1.0036   20.0180 H   0  0  0  0  0  0  0  0  0  0  0  0
   10.2803    1.2703   21.8509 C   0  0  0  0  0  0  0  0  0  0  0  0
   11.5502    0.9800   22.3712 C   0  0  0  0  0  0  0  0  0  0  0  0
   12.1009    0.1372   21.9606 H   0  0  0  0  0  0  0  0  0  0  0  0
   12.1082    1.7378   23.4004 C   0  0  0  0  0  0  0  0  0  0  0  0
   13.0968    1.4955   23.7774 H   0  0  0  0  0  0  0  0  0  0  0  0
   11.3876    2.8103   23.9308 C   0  0  0  0  0  0  0  0  0  0  0  0
   11.8175    3.4176   24.7155 H   0  0  0  0  0  0  0  0  0  0  0  0
   10.1141    3.1170   23.4485 C   0  0  0  0  0  0  0  0  0  0  0  0
    9.5386    3.9472   23.8480 H   0  0  0  0  0  0  0  0  0  0  0  0
    9.5745    2.3442   22.4184 C   0  0  0  0  0  0  0  0  0  0  0  0
    7.9797    2.7442   21.8527 Cl  0  0  0  0  0  0  0  0  0  0  0  0
    5.4295    0.6483   20.1572 C   0  0  0  0  0  0  0  0  0  0  0  0
    5.0025    0.6311   21.1636 H   0  0  0  0  0  0  0  0  0  0  0  0
    4.8064    1.3128   19.1028 C   0  0  0  0  0  0  0  0  0  0  0  0
    3.8742    1.8450   19.2552 H   0  0  0  0  0  0  0  0  0  0  0  0
  1  2  1  0
  2  3  2  0
  3  4  1  0
  4  5  1  0
  4  6  2  0
  6  7  1  0
  7  8  1  0
  8  9  1  0
  9 10  1  0
  9 11  2  0
 11 12  1  0
 11 13  1  0
 13 14  1  0
 14 15  1  0
 14 16  1  0
 14 17  1  0
 17 18  2  0
 18 19  1  0
 18 20  1  0
 20 21  1  0
 20 22  2  0
 22 23  1  0
 22 24  1  0
 24 25  1  0
 24 26  2  0
 26 27  1  0
  6 28  1  0
 28 29  1  0
 28 30  2  0
 30 31  1  0
 30  2  1  0
 13  7  2  0
 26 17  1  0
M  END
>  <cnnaffinity>  (1) 
-5.49502

>  <filename>  (1) 
Clc1ccccc1Cc1ccsc1-c1cccnc1

$$$$
