
     RDKit          3D

 33 35  0  0  0  0  0  0  0  0999 V2000
    4.9151    1.7865   16.9953 H   0  0  0  0  0  0  0  0  0  0  0  0
    5.3970    1.2961   17.8387 C   0  0  0  0  0  0  0  0  0  0  0  0
    6.5608    0.6806   17.5738 N   0  0  0  0  0  0  0  0  0  0  0  0
    7.1727    0.0578   18.5921 C   0  0  0  0  0  0  0  0  0  0  0  0
    8.1213   -0.4292   18.3739 H   0  0  0  0  0  0  0  0  0  0  0  0
    6.6642   -0.0179   19.9145 C   0  0  0  0  0  0  0  0  0  0  0  0
    7.3252   -0.7144   20.9323 N   0  0  0  0  0  0  0  0  0  0  0  0
    6.7621   -1.1271   21.6713 H   0  0  0  0  0  0  0  0  0  0  0  0
    8.7097   -0.7104   21.1387 C   0  0  0  0  0  0  0  0  0  0  0  0
    9.6907    0.1914   20.6628 C   0  0  0  0  0  0  0  0  0  0  0  0
    9.5226    1.0229   20.0015 H   0  0  0  0  0  0  0  0  0  0  0  0
   10.9060   -0.0954   21.1153 N   0  0  0  0  0  0  0  0  0  0  0  0
   10.7082   -1.1891   21.8649 N   0  0  0  0  0  0  0  0  0  0  0  0
   11.4951   -1.5880   22.3508 H   0  0  0  0  0  0  0  0  0  0  0  0
    9.4180   -1.6097   21.9134 C   0  0  0  0  0  0  0  0  0  0  0  0
    8.9248   -2.7257   22.7701 C   0  0  0  0  0  0  0  0  0  0  0  0
    9.7605   -3.3851   23.0449 H   0  0  0  0  0  0  0  0  0  0  0  0
    8.2243   -3.3254   22.1818 H   0  0  0  0  0  0  0  0  0  0  0  0
    8.2549   -2.2030   24.0343 C   0  0  0  0  0  0  0  0  0  0  0  0
    9.0161   -1.4447   24.9421 C   0  0  0  0  0  0  0  0  0  0  0  0
   10.0640   -1.2579   24.7275 H   0  0  0  0  0  0  0  0  0  0  0  0
    8.4629   -0.9364   26.1162 C   0  0  0  0  0  0  0  0  0  0  0  0
    9.0792   -0.3592   26.7995 H   0  0  0  0  0  0  0  0  0  0  0  0
    7.1179   -1.1777   26.4075 C   0  0  0  0  0  0  0  0  0  0  0  0
    6.6789   -0.7876   27.3205 H   0  0  0  0  0  0  0  0  0  0  0  0
    6.3332   -1.9237   25.5272 C   0  0  0  0  0  0  0  0  0  0  0  0
    5.2874   -2.1312   25.7325 H   0  0  0  0  0  0  0  0  0  0  0  0
    6.9072   -2.4251   24.3544 C   0  0  0  0  0  0  0  0  0  0  0  0
    5.8777   -3.3539   23.2904 Cl  0  0  0  0  0  0  0  0  0  0  0  0
    5.4429    0.6281   20.1652 C   0  0  0  0  0  0  0  0  0  0  0  0
    5.0215    0.6202   21.1713 H   0  0  0  0  0  0  0  0  0  0  0  0
    4.8137    1.3034   19.1102 C   0  0  0  0  0  0  0  0  0  0  0  0
    3.8842    1.8358   19.2643 H   0  0  0  0  0  0  0  0  0  0  0  0
  1  2  1  0
  2  3  2  0
  3  4  1  0
  4  5  1  0
  4  6  2  0
  6  7  1  0
  7  8  1  0
  7  9  1  0
  9 10  1  0
 10 11  1  0
 10 12  2  0
 12 13  1  0
 13 14  1  0
 13 15  1  0
 15 16  1  0
 16 17  1  0
 16 18  1  0
 16 19  1  0
 19 20  2  0
 20 21  1  0
 20 22  1  0
 22 23  1  0
 22 24  2  0
 24 25  1  0
 24 26  1  0
 26 27  1  0
 26 28  2  0
 28 29  1  0
  6 30  1  0
 30 31  1  0
 30 32  2  0
 32 33  1  0
 32  2  1  0
 15  9  2  0
 28 19  1  0
M  END
>  <cnnaffinity>  (1) 
-5.66365

>  <filename>  (1) 
Clc1ccccc1Cc1[nH]ncc1Nc1cccnc1

$$$$
