
     RDKit          3D

 29 31  0  0  0  0  0  0  0  0999 V2000
    4.9347    1.8165   17.0149 H   0  0  0  0  0  0  0  0  0  0  0  0
    5.4089    1.2934   17.8447 C   0  0  0  0  0  0  0  0  0  0  0  0
    6.5747    0.6789   17.5729 N   0  0  0  0  0  0  0  0  0  0  0  0
    7.1843    0.0320   18.5730 C   0  0  0  0  0  0  0  0  0  0  0  0
    8.1461   -0.4358   18.3686 H   0  0  0  0  0  0  0  0  0  0  0  0
    6.6540   -0.0641   19.8728 C   0  0  0  0  0  0  0  0  0  0  0  0
    7.4606   -0.7110   20.8182 O   0  0  0  0  0  0  0  0  0  0  0  0
    6.9804   -1.5048   21.7862 C   0  0  0  0  0  0  0  0  0  0  0  0
    5.8891   -2.2247   21.7854 N   0  0  0  0  0  0  0  0  0  0  0  0
    5.8995   -2.8902   22.9723 N   0  0  0  0  0  0  0  0  0  0  0  0
    6.9406   -2.6170   23.6602 N   0  0  0  0  0  0  0  0  0  0  0  0
    7.6710   -1.7276   22.9461 N   0  0  0  0  0  0  0  0  0  0  0  0
    8.9282   -1.3786   23.4699 N   0  0  0  0  0  0  0  0  0  0  0  0
    9.4131   -2.1869   23.8369 H   0  0  0  0  0  0  0  0  0  0  0  0
    9.7130   -0.3519   22.9159 C   0  0  0  0  0  0  0  0  0  0  0  0
   11.0623   -0.5581   22.5865 C   0  0  0  0  0  0  0  0  0  0  0  0
   11.4854   -1.5555   22.6745 H   0  0  0  0  0  0  0  0  0  0  0  0
   11.8529    0.5039   22.1234 C   0  0  0  0  0  0  0  0  0  0  0  0
   12.9006    0.3554   21.8789 H   0  0  0  0  0  0  0  0  0  0  0  0
   11.2855    1.7715   21.9755 C   0  0  0  0  0  0  0  0  0  0  0  0
   12.2325    3.1005   21.3754 Cl  0  0  0  0  0  0  0  0  0  0  0  0
    9.9427    1.9865   22.2903 C   0  0  0  0  0  0  0  0  0  0  0  0
    9.5161    2.9737   22.1545 H   0  0  0  0  0  0  0  0  0  0  0  0
    9.1676    0.9264   22.7682 C   0  0  0  0  0  0  0  0  0  0  0  0
    8.1284    1.0606   23.0429 H   0  0  0  0  0  0  0  0  0  0  0  0
    5.4486    0.5796   20.1619 C   0  0  0  0  0  0  0  0  0  0  0  0
    5.0288    0.5539   21.1685 H   0  0  0  0  0  0  0  0  0  0  0  0
    4.8221    1.2771   19.1131 C   0  0  0  0  0  0  0  0  0  0  0  0
    3.8959    1.8226   19.2677 H   0  0  0  0  0  0  0  0  0  0  0  0
  1  2  1  0
  2  3  2  0
  3  4  1  0
  4  5  1  0
  4  6  2  0
  6  7  1  0
  7  8  1  0
  8  9  2  0
  9 10  1  0
 10 11  2  0
 11 12  1  0
 12 13  1  0
 13 14  1  0
 13 15  1  0
 15 16  2  0
 16 17  1  0
 16 18  1  0
 18 19  1  0
 18 20  2  0
 20 21  1  0
 20 22  1  0
 22 23  1  0
 22 24  2  0
 24 25  1  0
  6 26  1  0
 26 27  1  0
 26 28  2  0
 28 29  1  0
 28  2  1  0
 12  8  1  0
 24 15  1  0
M  END
>  <cnnaffinity>  (1) 
-5.20975

>  <filename>  (1) 
Clc1ccc(Nn2nnnc2Oc2cccnc2)cc1

$$$$
