
     RDKit          3D

 27 29  0  0  0  0  0  0  0  0999 V2000
    4.9213    1.7812   16.9961 H   0  0  0  0  0  0  0  0  0  0  0  0
    5.4034    1.2908   17.8398 C   0  0  0  0  0  0  0  0  0  0  0  0
    6.5710    0.6723   17.5859 N   0  0  0  0  0  0  0  0  0  0  0  0
    7.1789    0.0532   18.5993 C   0  0  0  0  0  0  0  0  0  0  0  0
    8.1248   -0.4356   18.3754 H   0  0  0  0  0  0  0  0  0  0  0  0
    6.6521    0.0216   19.9100 C   0  0  0  0  0  0  0  0  0  0  0  0
    7.3493   -0.6354   20.9736 N   0  0  0  0  0  0  0  0  0  0  0  0
    8.1025   -1.7435   20.7340 N   0  0  0  0  0  0  0  0  0  0  0  0
    8.5909   -2.1170   21.8503 N   0  0  0  0  0  0  0  0  0  0  0  0
    8.2138   -1.2991   22.8633 N   0  0  0  0  0  0  0  0  0  0  0  0
    7.4482   -0.3964   22.3051 C   0  0  0  0  0  0  0  0  0  0  0  0
    6.8088    0.6431   22.8587 O   0  0  0  0  0  0  0  0  0  0  0  0
    7.0741    1.0753   24.1562 C   0  0  0  0  0  0  0  0  0  0  0  0
    8.3503    1.0172   24.7257 C   0  0  0  0  0  0  0  0  0  0  0  0
    9.1606    0.5732   24.1580 H   0  0  0  0  0  0  0  0  0  0  0  0
    8.5554    1.4977   26.0220 C   0  0  0  0  0  0  0  0  0  0  0  0
    9.5423    1.4060   26.4642 H   0  0  0  0  0  0  0  0  0  0  0  0
    7.5111    2.0654   26.7524 C   0  0  0  0  0  0  0  0  0  0  0  0
    7.6855    2.4264   27.7651 H   0  0  0  0  0  0  0  0  0  0  0  0
    6.2456    2.1692   26.1705 C   0  0  0  0  0  0  0  0  0  0  0  0
    5.4253    2.6240   26.7190 H   0  0  0  0  0  0  0  0  0  0  0  0
    6.0283    1.6848   24.8730 C   0  0  0  0  0  0  0  0  0  0  0  0
    4.4452    1.8593   24.1851 Cl  0  0  0  0  0  0  0  0  0  0  0  0
    5.4337    0.6515   20.1723 C   0  0  0  0  0  0  0  0  0  0  0  0
    5.0086    0.6418   21.1794 H   0  0  0  0  0  0  0  0  0  0  0  0
    4.8067    1.3021   19.1064 C   0  0  0  0  0  0  0  0  0  0  0  0
    3.8774    1.8387   19.2593 H   0  0  0  0  0  0  0  0  0  0  0  0
  1  2  1  0
  2  3  2  0
  3  4  1  0
  4  5  1  0
  4  6  2  0
  6  7  1  0
  7  8  1  0
  8  9  2  0
  9 10  1  0
 10 11  2  0
 11 12  1  0
 12 13  1  0
 13 14  2  0
 14 15  1  0
 14 16  1  0
 16 17  1  0
 16 18  2  0
 18 19  1  0
 18 20  1  0
 20 21  1  0
 20 22  2  0
 22 23  1  0
  6 24  1  0
 24 25  1  0
 24 26  2  0
 26 27  1  0
 26  2  1  0
 11  7  1  0
 22 13  1  0
M  END
>  <cnnaffinity>  (1) 
-5.0411

>  <filename>  (1) 
Clc1ccccc1Oc1nnnn1-c1cccnc1

$$$$
