
     RDKit          3D

 40 42  0  0  0  0  0  0  0  0999 V2000
    5.2834    1.5305   17.4152 H   0  0  0  0  0  0  0  0  0  0  0  0
    5.6713    0.9992   18.2855 C   0  0  0  0  0  0  0  0  0  0  0  0
    6.8376    0.3678   18.1144 N   0  0  0  0  0  0  0  0  0  0  0  0
    7.3500   -0.2643   19.1786 C   0  0  0  0  0  0  0  0  0  0  0  0
    8.3343   -0.7018   19.0120 H   0  0  0  0  0  0  0  0  0  0  0  0
    6.7547   -0.3412   20.4579 C   0  0  0  0  0  0  0  0  0  0  0  0
    7.5746   -0.9563   21.6210 C   0  0  0  0  0  0  0  0  0  0  0  0
    8.7358    0.0504   21.9874 C   0  0  0  0  0  0  0  0  0  0  0  0
    9.3248    0.2313   21.0813 H   0  0  0  0  0  0  0  0  0  0  0  0
    9.4017   -0.4939   22.6663 H   0  0  0  0  0  0  0  0  0  0  0  0
    8.4085    1.3741   22.6516 C   0  0  0  0  0  0  0  0  0  0  0  0
    8.4123    2.6006   21.9721 C   0  0  0  0  0  0  0  0  0  0  0  0
    8.5808    2.6157   20.8979 H   0  0  0  0  0  0  0  0  0  0  0  0
    8.1955    3.8046   22.6488 C   0  0  0  0  0  0  0  0  0  0  0  0
    8.2020    4.7528   22.1151 H   0  0  0  0  0  0  0  0  0  0  0  0
    7.9823    3.7992   24.0308 C   0  0  0  0  0  0  0  0  0  0  0  0
    7.7198    5.2993   24.8500 Cl  0  0  0  0  0  0  0  0  0  0  0  0
    7.9656    2.5831   24.7283 C   0  0  0  0  0  0  0  0  0  0  0  0
    7.6987    2.5142   26.4393 Cl  0  0  0  0  0  0  0  0  0  0  0  0
    8.1717    1.3925   24.0323 C   0  0  0  0  0  0  0  0  0  0  0  0
    8.1397    0.4607   24.5861 H   0  0  0  0  0  0  0  0  0  0  0  0
    8.2997   -2.2852   21.2013 C   0  0  0  0  0  0  0  0  0  0  0  0
    9.0384   -2.5173   21.9846 H   0  0  0  0  0  0  0  0  0  0  0  0
    8.8817   -2.1120   20.2957 H   0  0  0  0  0  0  0  0  0  0  0  0
    7.4067   -3.5297   21.0808 C   0  0  0  0  0  0  0  0  0  0  0  0
    6.6211   -3.3666   20.3271 H   0  0  0  0  0  0  0  0  0  0  0  0
    7.9905   -4.4015   20.7607 H   0  0  0  0  0  0  0  0  0  0  0  0
    6.7696   -3.8099   22.4377 C   0  0  0  0  0  0  0  0  0  0  0  0
    7.5736   -3.9474   23.1813 H   0  0  0  0  0  0  0  0  0  0  0  0
    6.1729   -4.7322   22.4260 H   0  0  0  0  0  0  0  0  0  0  0  0
    5.9163   -2.6028   22.8179 C   0  0  0  0  0  0  0  0  0  0  0  0
    5.4027   -2.7770   23.7704 H   0  0  0  0  0  0  0  0  0  0  0  0
    5.1308   -2.4868   22.0571 H   0  0  0  0  0  0  0  0  0  0  0  0
    6.7456   -1.3044   22.8955 C   0  0  0  0  0  0  0  0  0  0  0  0
    6.1184   -0.4464   23.1605 H   0  0  0  0  0  0  0  0  0  0  0  0
    7.4474   -1.4299   23.7340 H   0  0  0  0  0  0  0  0  0  0  0  0
    5.5262    0.3343   20.5953 C   0  0  0  0  0  0  0  0  0  0  0  0
    5.0068    0.3663   21.5516 H   0  0  0  0  0  0  0  0  0  0  0  0
    4.9760    1.0082   19.4948 C   0  0  0  0  0  0  0  0  0  0  0  0
    4.0454    1.5620   19.5690 H   0  0  0  0  0  0  0  0  0  0  0  0
  1  2  1  0
  2  3  2  0
  3  4  1  0
  4  5  1  0
  4  6  2  0
  6  7  1  0
  7  8  1  0
  8  9  1  0
  8 10  1  0
  8 11  1  0
 11 12  2  0
 12 13  1  0
 12 14  1  0
 14 15  1  0
 14 16  2  0
 16 17  1  0
 16 18  1  0
 18 19  1  0
 18 20  2  0
 20 21  1  0
  7 22  1  0
 22 23  1  0
 22 24  1  0
 22 25  1  0
 25 26  1  0
 25 27  1  0
 25 28  1  0
 28 29  1  0
 28 30  1  0
 28 31  1  0
 31 32  1  0
 31 33  1  0
 31 34  1  0
 34 35  1  0
 34 36  1  0
  6 37  1  0
 37 38  1  0
 37 39  2  0
 39 40  1  0
 39  2  1  0
 34  7  1  0
 20 11  1  0
M  END
>  <cnnaffinity>  (1) 
-5.83269

>  <filename>  (1) 
Clc1ccc(CC2(c3cccnc3)CCCCC2)cc1Cl

$$$$
