
     RDKit          3D

 32 34  0  0  0  0  0  0  0  0999 V2000
    3.1480   -6.0723   22.0814 Cl  0  0  0  0  0  0  0  0  0  0  0  0
    4.4715   -4.9629   22.3131 C   0  0  0  0  0  0  0  0  0  0  0  0
    5.4510   -4.7804   21.3278 C   0  0  0  0  0  0  0  0  0  0  0  0
    6.5504   -3.9450   21.5769 C   0  0  0  0  0  0  0  0  0  0  0  0
    6.7000   -3.3332   22.8337 C   0  0  0  0  0  0  0  0  0  0  0  0
    7.9602   -2.5826   23.1952 C   0  0  0  0  0  0  0  0  0  0  0  0
    7.6662   -1.1447   23.2785 N   0  0  0  0  0  0  0  0  0  0  0  0
    7.5171   -0.3948   24.4236 C   0  0  0  0  0  0  0  0  0  0  0  0
    7.0622    0.7962   24.1201 N   0  0  0  0  0  0  0  0  0  0  0  0
    6.9092    0.8382   22.7532 N   0  0  0  0  0  0  0  0  0  0  0  0
    7.2801   -0.3171   22.2576 C   0  0  0  0  0  0  0  0  0  0  0  0
    7.3597   -0.6962   20.9159 N   0  0  0  0  0  0  0  0  0  0  0  0
    6.7129   -0.0240   19.8534 C   0  0  0  0  0  0  0  0  0  0  0  0
    5.5260    0.6629   20.1215 C   0  0  0  0  0  0  0  0  0  0  0  0
    4.8735    1.3269   19.0798 C   0  0  0  0  0  0  0  0  0  0  0  0
    5.4328    1.3100   17.7983 C   0  0  0  0  0  0  0  0  0  0  0  0
    6.5665    0.6451   17.5066 N   0  0  0  0  0  0  0  0  0  0  0  0
    7.1852   -0.0158   18.5108 C   0  0  0  0  0  0  0  0  0  0  0  0
    8.0995   -0.5500   18.2603 H   0  0  0  0  0  0  0  0  0  0  0  0
    4.9317    1.8528   17.0057 H   0  0  0  0  0  0  0  0  0  0  0  0
    3.9523    1.8728   19.2555 H   0  0  0  0  0  0  0  0  0  0  0  0
    5.1360    0.6671   21.1378 H   0  0  0  0  0  0  0  0  0  0  0  0
    7.9136   -1.5256   20.7241 H   0  0  0  0  0  0  0  0  0  0  0  0
    7.7467   -0.7348   25.4278 H   0  0  0  0  0  0  0  0  0  0  0  0
    8.3102   -2.9524   24.1679 H   0  0  0  0  0  0  0  0  0  0  0  0
    8.7642   -2.7797   22.4759 H   0  0  0  0  0  0  0  0  0  0  0  0
    5.6878   -3.4762   23.7915 C   0  0  0  0  0  0  0  0  0  0  0  0
    5.8520   -2.5818   25.4728 Br  0  0  0  0  0  0  0  0  0  0  0  0
    4.5790   -4.2807   23.5257 C   0  0  0  0  0  0  0  0  0  0  0  0
    3.8251   -4.4003   24.2958 H   0  0  0  0  0  0  0  0  0  0  0  0
    7.2960   -3.7982   20.8013 H   0  0  0  0  0  0  0  0  0  0  0  0
    5.3760   -5.3136   20.3840 H   0  0  0  0  0  0  0  0  0  0  0  0
  1  2  1  0
  2  3  2  0
  3  4  1  0
  4  5  2  0
  5  6  1  0
  6  7  1  0
  7  8  1  0
  8  9  2  0
  9 10  1  0
 10 11  2  0
 11 12  1  0
 12 13  1  0
 13 14  2  0
 14 15  1  0
 15 16  2  0
 16 17  1  0
 17 18  2  0
 18 19  1  0
 16 20  1  0
 15 21  1  0
 14 22  1  0
 12 23  1  0
  8 24  1  0
  6 25  1  0
  6 26  1  0
  5 27  1  0
 27 28  1  0
 27 29  2  0
 29 30  1  0
  4 31  1  0
  3 32  1  0
 29  2  1  0
 11  7  1  0
 18 13  1  0
M  END
>  <cnnaffinity>  (1) 
-5.85537

>  <filename>  (1) 
Clc1ccc(Cn2cnnc2Nc2cccnc2)c(Br)c1

$$$$
