
     RDKit          3D

 27 29  0  0  0  0  0  0  0  0999 V2000
    4.9126    1.7834   16.9970 H   0  0  0  0  0  0  0  0  0  0  0  0
    5.3976    1.2960   17.8397 C   0  0  0  0  0  0  0  0  0  0  0  0
    6.5619    0.6820   17.5747 N   0  0  0  0  0  0  0  0  0  0  0  0
    7.1753    0.0596   18.5916 C   0  0  0  0  0  0  0  0  0  0  0  0
    8.1212   -0.4306   18.3708 H   0  0  0  0  0  0  0  0  0  0  0  0
    6.6674   -0.0119   19.9141 C   0  0  0  0  0  0  0  0  0  0  0  0
    7.3186   -0.7159   20.9337 N   0  0  0  0  0  0  0  0  0  0  0  0
    6.7535   -1.0426   21.7094 H   0  0  0  0  0  0  0  0  0  0  0  0
    8.7055   -0.7943   21.0898 C   0  0  0  0  0  0  0  0  0  0  0  0
    9.6934    0.1307   20.6812 C   0  0  0  0  0  0  0  0  0  0  0  0
    9.5259    1.0391   20.1257 H   0  0  0  0  0  0  0  0  0  0  0  0
   10.9086   -0.2251   21.0712 N   0  0  0  0  0  0  0  0  0  0  0  0
   10.7165   -1.3786   21.7144 N   0  0  0  0  0  0  0  0  0  0  0  0
   11.5165   -1.8511   22.1019 H   0  0  0  0  0  0  0  0  0  0  0  0
    9.4147   -1.7889   21.7584 C   0  0  0  0  0  0  0  0  0  0  0  0
    8.9890   -3.0115   22.3923 C   0  0  0  0  0  0  0  0  0  0  0  0
    7.4257   -3.6769   22.0472 S   0  0  0  0  0  0  0  0  0  0  0  0
    7.7326   -5.0007   23.1093 C   0  0  0  0  0  0  0  0  0  0  0  0
    6.5622   -6.2336   23.3213 Cl  0  0  0  0  0  0  0  0  0  0  0  0
    8.9517   -4.9368   23.7140 C   0  0  0  0  0  0  0  0  0  0  0  0
    9.3361   -5.6740   24.4137 H   0  0  0  0  0  0  0  0  0  0  0  0
    9.6669   -3.7805   23.3021 C   0  0  0  0  0  0  0  0  0  0  0  0
   10.6623   -3.5329   23.6563 H   0  0  0  0  0  0  0  0  0  0  0  0
    5.4459    0.6339   20.1649 C   0  0  0  0  0  0  0  0  0  0  0  0
    5.0209    0.6216   21.1691 H   0  0  0  0  0  0  0  0  0  0  0  0
    4.8126    1.3056   19.1112 C   0  0  0  0  0  0  0  0  0  0  0  0
    3.8809    1.8381   19.2652 H   0  0  0  0  0  0  0  0  0  0  0  0
  1  2  1  0
  2  3  2  0
  3  4  1  0
  4  5  1  0
  4  6  2  0
  6  7  1  0
  7  8  1  0
  7  9  1  0
  9 10  1  0
 10 11  1  0
 10 12  2  0
 12 13  1  0
 13 14  1  0
 13 15  1  0
 15 16  1  0
 16 17  1  0
 17 18  1  0
 18 19  1  0
 18 20  2  0
 20 21  1  0
 20 22  1  0
 22 23  1  0
  6 24  1  0
 24 25  1  0
 24 26  2  0
 26 27  1  0
 26  2  1  0
 15  9  2  0
 22 16  2  0
M  END
>  <cnnaffinity>  (1) 
-5.75869

>  <filename>  (1) 
Clc1ccc(-c2[nH]ncc2Nc2cccnc2)s1

$$$$
