
     RDKit          3D

 35 38  0  0  0  0  0  0  0  0999 V2000
    5.0695    1.6865   16.8689 H   0  0  0  0  0  0  0  0  0  0  0  0
    5.4238    1.2120   17.7789 C   0  0  0  0  0  0  0  0  0  0  0  0
    6.5955    0.5614   17.6813 N   0  0  0  0  0  0  0  0  0  0  0  0
    7.0752    0.0205   18.8038 C   0  0  0  0  0  0  0  0  0  0  0  0
    8.0079   -0.5375   18.7077 H   0  0  0  0  0  0  0  0  0  0  0  0
    6.4417    0.0856   20.0598 C   0  0  0  0  0  0  0  0  0  0  0  0
    7.1912   -0.4298   21.2138 C   0  0  0  0  0  0  0  0  0  0  0  0
    8.5542   -0.4200   21.4078 C   0  0  0  0  0  0  0  0  0  0  0  0
    8.7701   -1.0606   22.6206 C   0  0  0  0  0  0  0  0  0  0  0  0
    7.6529   -1.4709   23.1921 N   0  0  0  0  0  0  0  0  0  0  0  0
    6.6936   -1.0519   22.3201 N   0  0  0  0  0  0  0  0  0  0  0  0
    5.7290   -1.3115   22.4829 H   0  0  0  0  0  0  0  0  0  0  0  0
   10.2268   -1.1236   22.9735 C   0  0  0  0  0  0  0  0  0  0  0  0
   10.6105   -2.1440   22.8517 H   0  0  0  0  0  0  0  0  0  0  0  0
   10.4236   -0.8230   24.0054 H   0  0  0  0  0  0  0  0  0  0  0  0
   10.8796   -0.1348   21.9455 C   0  0  2  0  0  0  0  0  0  0  0  0
   11.8182   -0.5572   21.5612 H   0  0  0  0  0  0  0  0  0  0  0  0
   11.1818    1.2219   22.5669 C   0  0  0  0  0  0  0  0  0  0  0  0
   10.1670    1.9642   23.2025 C   0  0  0  0  0  0  0  0  0  0  0  0
    9.1814    1.5385   23.3801 H   0  0  0  0  0  0  0  0  0  0  0  0
   10.4193    3.2789   23.5869 C   0  0  0  0  0  0  0  0  0  0  0  0
    9.1667    4.2270   24.3257 Cl  0  0  0  0  0  0  0  0  0  0  0  0
   11.6621    3.8790   23.3653 C   0  0  0  0  0  0  0  0  0  0  0  0
   11.8276    4.9173   23.6210 H   0  0  0  0  0  0  0  0  0  0  0  0
   12.6754    3.1150   22.7823 C   0  0  0  0  0  0  0  0  0  0  0  0
   14.2342    3.8454   22.5094 Cl  0  0  0  0  0  0  0  0  0  0  0  0
   12.4563    1.7902   22.4037 C   0  0  0  0  0  0  0  0  0  0  0  0
   13.2677    1.2044   21.9756 H   0  0  0  0  0  0  0  0  0  0  0  0
    9.8404    0.0083   20.7776 C   0  0  0  0  0  0  0  0  0  0  0  0
    9.8086    1.0214   20.3541 H   0  0  0  0  0  0  0  0  0  0  0  0
   10.0963   -0.6808   19.9643 H   0  0  0  0  0  0  0  0  0  0  0  0
    5.1793    0.7008   20.1220 C   0  0  0  0  0  0  0  0  0  0  0  0
    4.6200    0.7339   21.0596 H   0  0  0  0  0  0  0  0  0  0  0  0
    4.6730    1.2849   18.9602 C   0  0  0  0  0  0  0  0  0  0  0  0
    3.7226    1.8120   18.9584 H   0  0  0  0  0  0  0  0  0  0  0  0
  1  2  1  0
  2  3  2  0
  3  4  1  0
  4  5  1  0
  4  6  2  0
  6  7  1  0
  7  8  2  0
  8  9  1  0
  9 10  2  0
 10 11  1  0
 11 12  1  0
  9 13  1  0
 13 14  1  0
 13 15  1  0
 13 16  1  0
 16 17  1  6
 16 18  1  0
 18 19  2  0
 19 20  1  0
 19 21  1  0
 21 22  1  0
 21 23  2  0
 23 24  1  0
 23 25  1  0
 25 26  1  0
 25 27  2  0
 27 28  1  0
 16 29  1  0
 29 30  1  0
 29 31  1  0
  6 32  1  0
 32 33  1  0
 32 34  2  0
 34 35  1  0
 34  2  1  0
 11  7  1  0
 27 18  1  0
 29  8  1  0
M  END
>  <cnnaffinity>  (1) 
-5.61761

>  <filename>  (1) 
Clc1cc(Cl)cc([C@H]2Cc3n[nH]c(-c4cccnc4)c3C2)c1

$$$$
