
     RDKit          3D

 26 28  0  0  0  0  0  0  0  0999 V2000
    4.9231    1.7796   16.9967 H   0  0  0  0  0  0  0  0  0  0  0  0
    5.4065    1.2939   17.8386 C   0  0  0  0  0  0  0  0  0  0  0  0
    6.5707    0.6783   17.5776 N   0  0  0  0  0  0  0  0  0  0  0  0
    7.1699    0.0577   18.5950 C   0  0  0  0  0  0  0  0  0  0  0  0
    8.1177   -0.4351   18.3801 H   0  0  0  0  0  0  0  0  0  0  0  0
    6.6483    0.0211   19.8978 C   0  0  0  0  0  0  0  0  0  0  0  0
    7.3897   -0.7031   20.9251 C   0  0  0  0  0  0  0  0  0  0  0  0
    8.0513   -1.8258   20.7536 N   0  0  0  0  0  0  0  0  0  0  0  0
    8.5065   -2.1878   21.9695 N   0  0  0  0  0  0  0  0  0  0  0  0
    8.1747   -1.3342   22.8667 N   0  0  0  0  0  0  0  0  0  0  0  0
    7.4645   -0.3654   22.2411 N   0  0  0  0  0  0  0  0  0  0  0  0
    7.0142    0.8105   22.9198 C   0  0  0  0  0  0  0  0  0  0  0  0
    6.1181    0.6780   23.9873 C   0  0  0  0  0  0  0  0  0  0  0  0
    5.8315   -0.3199   24.2957 H   0  0  0  0  0  0  0  0  0  0  0  0
    5.6113    1.7946   24.6500 C   0  0  0  0  0  0  0  0  0  0  0  0
    4.9272    1.6881   25.4856 H   0  0  0  0  0  0  0  0  0  0  0  0
    6.0109    3.0672   24.2351 C   0  0  0  0  0  0  0  0  0  0  0  0
    5.3919    4.4643   25.0571 Cl  0  0  0  0  0  0  0  0  0  0  0  0
    6.9059    3.2381   23.1820 C   0  0  0  0  0  0  0  0  0  0  0  0
    7.2122    4.2343   22.8736 H   0  0  0  0  0  0  0  0  0  0  0  0
    7.4147    2.1072   22.5334 C   0  0  0  0  0  0  0  0  0  0  0  0
    8.5509    2.3481   21.2515 Cl  0  0  0  0  0  0  0  0  0  0  0  0
    5.4269    0.6620   20.1591 C   0  0  0  0  0  0  0  0  0  0  0  0
    4.9896    0.6406   21.1643 H   0  0  0  0  0  0  0  0  0  0  0  0
    4.8009    1.3133   19.1030 C   0  0  0  0  0  0  0  0  0  0  0  0
    3.8688    1.8469   19.2550 H   0  0  0  0  0  0  0  0  0  0  0  0
  1  2  1  0
  2  3  2  0
  3  4  1  0
  4  5  1  0
  4  6  2  0
  6  7  1  0
  7  8  2  0
  8  9  1  0
  9 10  2  0
 10 11  1  0
 11 12  1  0
 12 13  2  0
 13 14  1  0
 13 15  1  0
 15 16  1  0
 15 17  2  0
 17 18  1  0
 17 19  1  0
 19 20  1  0
 19 21  2  0
 21 22  1  0
  6 23  1  0
 23 24  1  0
 23 25  2  0
 25 26  1  0
 25  2  1  0
 11  7  1  0
 21 12  1  0
M  END
>  <cnnaffinity>  (1) 
-4.95766

>  <filename>  (1) 
Clc1ccc(-n2nnnc2-c2cccnc2)c(Cl)c1

$$$$
