
     RDKit          3D

 29 31  0  0  0  0  0  0  0  0999 V2000
    4.9846    2.1470   16.5930 H   0  0  0  0  0  0  0  0  0  0  0  0
    5.2265    1.5290   17.4552 C   0  0  0  0  0  0  0  0  0  0  0  0
    6.2998    0.7331   17.3228 N   0  0  0  0  0  0  0  0  0  0  0  0
    6.6491    0.0151   18.3937 C   0  0  0  0  0  0  0  0  0  0  0  0
    7.5274   -0.6233   18.2870 H   0  0  0  0  0  0  0  0  0  0  0  0
    5.9673    0.0272   19.6263 C   0  0  0  0  0  0  0  0  0  0  0  0
    6.5918   -0.6639   20.7845 C   0  0  0  0  0  0  0  0  0  0  0  0
    5.9796   -1.6266   21.6124 C   0  0  0  0  0  0  0  0  0  0  0  0
    4.9592   -1.9427   21.4477 H   0  0  0  0  0  0  0  0  0  0  0  0
    6.6205   -2.2352   22.6186 N   0  0  0  0  0  0  0  0  0  0  0  0
    7.9137   -1.9720   22.8517 N   0  0  0  0  0  0  0  0  0  0  0  0
    8.5609   -1.0771   22.0873 C   0  0  0  0  0  0  0  0  0  0  0  0
   10.0173   -0.8941   22.2893 C   0  0  0  0  0  0  0  0  0  0  0  0
   10.8619   -2.0127   22.2131 C   0  0  0  0  0  0  0  0  0  0  0  0
   10.4023   -2.9904   22.1278 H   0  0  0  0  0  0  0  0  0  0  0  0
   12.2456   -1.8744   22.2544 C   0  0  0  0  0  0  0  0  0  0  0  0
   12.9134   -2.7224   22.2047 H   0  0  0  0  0  0  0  0  0  0  0  0
   12.7891   -0.5987   22.3918 C   0  0  0  0  0  0  0  0  0  0  0  0
   14.5037   -0.4234   22.4721 Cl  0  0  0  0  0  0  0  0  0  0  0  0
   11.9870    0.5330   22.4728 C   0  0  0  0  0  0  0  0  0  0  0  0
   12.4333    1.5168   22.5572 H   0  0  0  0  0  0  0  0  0  0  0  0
   10.6021    0.3761   22.4417 C   0  0  0  0  0  0  0  0  0  0  0  0
    9.6352    1.8022   22.6451 Cl  0  0  0  0  0  0  0  0  0  0  0  0
    7.9238   -0.3946   21.0496 C   0  0  0  0  0  0  0  0  0  0  0  0
    8.5021    0.3021   20.4525 H   0  0  0  0  0  0  0  0  0  0  0  0
    4.8004    0.7928   19.7101 C   0  0  0  0  0  0  0  0  0  0  0  0
    4.2090    0.7929   20.6244 H   0  0  0  0  0  0  0  0  0  0  0  0
    4.4407    1.5786   18.6092 C   0  0  0  0  0  0  0  0  0  0  0  0
    3.5945    2.2530   18.6417 H   0  0  0  0  0  0  0  0  0  0  0  0
  1  2  1  0
  2  3  2  0
  3  4  1  0
  4  5  1  0
  4  6  2  0
  6  7  1  0
  7  8  2  0
  8  9  1  0
  8 10  1  0
 10 11  2  0
 11 12  1  0
 12 13  1  0
 13 14  2  0
 14 15  1  0
 14 16  1  0
 16 17  1  0
 16 18  2  0
 18 19  1  0
 18 20  1  0
 20 21  1  0
 20 22  2  0
 22 23  1  0
 12 24  2  0
 24 25  1  0
  6 26  1  0
 26 27  1  0
 26 28  2  0
 28 29  1  0
 28  2  1  0
 24  7  1  0
 22 13  1  0
M  END
>  <cnnaffinity>  (1) 
-5.46544

>  <filename>  (1) 
Clc1ccc(-c2cc(-c3cccnc3)cnn2)c(Cl)c1

$$$$
