
     RDKit          3D

 27 29  0  0  0  0  0  0  0  0999 V2000
    4.9111    1.7906   16.9867 H   0  0  0  0  0  0  0  0  0  0  0  0
    5.3929    1.3011   17.8271 C   0  0  0  0  0  0  0  0  0  0  0  0
    6.5586    0.6893   17.5564 N   0  0  0  0  0  0  0  0  0  0  0  0
    7.1622    0.0647   18.5732 C   0  0  0  0  0  0  0  0  0  0  0  0
    8.1189   -0.4076   18.3474 H   0  0  0  0  0  0  0  0  0  0  0  0
    6.6497    0.0133   19.8877 C   0  0  0  0  0  0  0  0  0  0  0  0
    7.3574   -0.6572   20.9789 C   0  0  0  0  0  0  0  0  0  0  0  0
    7.5045   -0.3274   22.3197 C   0  0  0  0  0  0  0  0  0  0  0  0
    7.0370    0.8401   22.9340 N   0  0  0  0  0  0  0  0  0  0  0  0
    6.9787    1.6474   22.3278 H   0  0  0  0  0  0  0  0  0  0  0  0
    6.6914    1.0301   24.2559 C   0  0  0  0  0  0  0  0  0  0  0  0
    6.3963   -0.3077   25.3259 S   0  0  0  0  0  0  0  0  0  0  0  0
    6.0415    0.7882   26.6206 C   0  0  0  0  0  0  0  0  0  0  0  0
    5.5837    0.2071   28.1674 Cl  0  0  0  0  0  0  0  0  0  0  0  0
    6.1513    2.0940   26.2575 C   0  0  0  0  0  0  0  0  0  0  0  0
    5.9533    2.9166   26.9400 H   0  0  0  0  0  0  0  0  0  0  0  0
    6.5301    2.2311   24.8906 C   0  0  0  0  0  0  0  0  0  0  0  0
    6.6764    3.1864   24.4003 H   0  0  0  0  0  0  0  0  0  0  0  0
    8.2899   -1.3741   22.8575 C   0  0  0  0  0  0  0  0  0  0  0  0
    8.6224   -1.4514   23.8783 H   0  0  0  0  0  0  0  0  0  0  0  0
    8.6056   -2.2828   21.9456 N   0  0  0  0  0  0  0  0  0  0  0  0
    8.0434   -1.8200   20.8213 N   0  0  0  0  0  0  0  0  0  0  0  0
    8.1316   -2.3543   19.9713 H   0  0  0  0  0  0  0  0  0  0  0  0
    5.4317    0.6614   20.1457 C   0  0  0  0  0  0  0  0  0  0  0  0
    5.0128    0.6235   21.1547 H   0  0  0  0  0  0  0  0  0  0  0  0
    4.7955    1.3173   19.0930 C   0  0  0  0  0  0  0  0  0  0  0  0
    3.8657    1.8480   19.2522 H   0  0  0  0  0  0  0  0  0  0  0  0
  1  2  1  0
  2  3  2  0
  3  4  1  0
  4  5  1  0
  4  6  2  0
  6  7  1  0
  7  8  2  0
  8  9  1  0
  9 10  1  0
  9 11  1  0
 11 12  1  0
 12 13  1  0
 13 14  1  0
 13 15  2  0
 15 16  1  0
 15 17  1  0
 17 18  1  0
  8 19  1  0
 19 20  1  0
 19 21  2  0
 21 22  1  0
 22 23  1  0
  6 24  1  0
 24 25  1  0
 24 26  2  0
 26 27  1  0
 26  2  1  0
 22  7  1  0
 17 11  2  0
M  END
>  <cnnaffinity>  (1) 
-5.34404

>  <filename>  (1) 
Clc1ccc(Nc2cn[nH]c2-c2cccnc2)s1

$$$$
