
     RDKit          3D

 28 30  0  0  0  0  0  0  0  0999 V2000
    4.9271    1.7813   16.9955 H   0  0  0  0  0  0  0  0  0  0  0  0
    5.4055    1.2889   17.8405 C   0  0  0  0  0  0  0  0  0  0  0  0
    6.5734    0.6704   17.5921 N   0  0  0  0  0  0  0  0  0  0  0  0
    7.1803    0.0525   18.6078 C   0  0  0  0  0  0  0  0  0  0  0  0
    8.1241   -0.4363   18.3773 H   0  0  0  0  0  0  0  0  0  0  0  0
    6.6541    0.0203   19.9151 C   0  0  0  0  0  0  0  0  0  0  0  0
    7.3579   -0.6273   20.9726 N   0  0  0  0  0  0  0  0  0  0  0  0
    8.0711   -1.7578   20.7156 N   0  0  0  0  0  0  0  0  0  0  0  0
    8.5840   -2.1775   21.8199 N   0  0  0  0  0  0  0  0  0  0  0  0
    8.2300   -1.3358   22.8264 C   0  0  0  0  0  0  0  0  0  0  0  0
    8.5325   -1.4844   23.8508 H   0  0  0  0  0  0  0  0  0  0  0  0
    7.4558   -0.3363   22.2984 C   0  0  0  0  0  0  0  0  0  0  0  0
    6.8307    0.7341   22.8358 O   0  0  0  0  0  0  0  0  0  0  0  0
    7.2316    1.2662   24.0602 C   0  0  0  0  0  0  0  0  0  0  0  0
    8.5712    1.3291   24.4619 C   0  0  0  0  0  0  0  0  0  0  0  0
    9.3471    0.9196   23.8244 H   0  0  0  0  0  0  0  0  0  0  0  0
    8.8849    1.9112   25.6938 C   0  0  0  0  0  0  0  0  0  0  0  0
    9.9189    1.9276   26.0215 H   0  0  0  0  0  0  0  0  0  0  0  0
    7.8972    2.4557   26.5134 C   0  0  0  0  0  0  0  0  0  0  0  0
    8.1380    2.9051   27.4741 H   0  0  0  0  0  0  0  0  0  0  0  0
    6.5740    2.4127   26.0661 C   0  0  0  0  0  0  0  0  0  0  0  0
    5.3383    3.1093   27.0631 Cl  0  0  0  0  0  0  0  0  0  0  0  0
    6.2223    1.8304   24.8458 C   0  0  0  0  0  0  0  0  0  0  0  0
    5.1895    1.8262   24.5157 H   0  0  0  0  0  0  0  0  0  0  0  0
    5.4315    0.6466   20.1692 C   0  0  0  0  0  0  0  0  0  0  0  0
    5.0063    0.6415   21.1735 H   0  0  0  0  0  0  0  0  0  0  0  0
    4.8063    1.2988   19.1043 C   0  0  0  0  0  0  0  0  0  0  0  0
    3.8788    1.8368   19.2577 H   0  0  0  0  0  0  0  0  0  0  0  0
  1  2  1  0
  2  3  2  0
  3  4  1  0
  4  5  1  0
  4  6  2  0
  6  7  1  0
  7  8  1  0
  8  9  2  0
  9 10  1  0
 10 11  1  0
 10 12  2  0
 12 13  1  0
 13 14  1  0
 14 15  2  0
 15 16  1  0
 15 17  1  0
 17 18  1  0
 17 19  2  0
 19 20  1  0
 19 21  1  0
 21 22  1  0
 21 23  2  0
 23 24  1  0
  6 25  1  0
 25 26  1  0
 25 27  2  0
 27 28  1  0
 27  2  1  0
 12  7  1  0
 23 14  1  0
M  END
>  <cnnaffinity>  (1) 
-5.27798

>  <filename>  (1) 
Clc1cccc(Oc2cnnn2-c2cccnc2)c1

$$$$
