
     RDKit          3D

 30 32  0  0  0  0  0  0  0  0999 V2000
    4.9712    2.0879   16.7277 H   0  0  0  0  0  0  0  0  0  0  0  0
    5.2548    1.4665   17.5718 C   0  0  0  0  0  0  0  0  0  0  0  0
    6.3393    0.6936   17.3852 N   0  0  0  0  0  0  0  0  0  0  0  0
    6.7361   -0.0384   18.4309 C   0  0  0  0  0  0  0  0  0  0  0  0
    7.6227   -0.6584   18.2870 H   0  0  0  0  0  0  0  0  0  0  0  0
    6.0894   -0.0680   19.6852 C   0  0  0  0  0  0  0  0  0  0  0  0
    6.7417   -0.7914   20.8164 C   0  0  0  0  0  0  0  0  0  0  0  0
    6.1188   -1.7436   21.6412 C   0  0  0  0  0  0  0  0  0  0  0  0
    5.0948   -2.0326   21.4475 H   0  0  0  0  0  0  0  0  0  0  0  0
    6.7247   -2.3791   22.6584 N   0  0  0  0  0  0  0  0  0  0  0  0
    8.0042   -2.0755   22.9059 C   0  0  0  0  0  0  0  0  0  0  0  0
    8.4639   -2.5588   23.7691 H   0  0  0  0  0  0  0  0  0  0  0  0
    8.7398   -1.1664   22.1270 C   0  0  0  0  0  0  0  0  0  0  0  0
   10.1801   -0.9051   22.3079 C   0  0  0  0  0  0  0  0  0  0  0  0
   11.0997   -1.9597   22.1714 C   0  0  0  0  0  0  0  0  0  0  0  0
   10.7171   -2.9600   22.0023 H   0  0  0  0  0  0  0  0  0  0  0  0
   12.4750   -1.7421   22.2241 C   0  0  0  0  0  0  0  0  0  0  0  0
   13.1828   -2.5534   22.1197 H   0  0  0  0  0  0  0  0  0  0  0  0
   12.9319   -0.4462   22.4623 C   0  0  0  0  0  0  0  0  0  0  0  0
   14.6184   -0.1122   22.5431 Cl  0  0  0  0  0  0  0  0  0  0  0  0
   12.0586    0.6229   22.6259 C   0  0  0  0  0  0  0  0  0  0  0  0
   12.4441    1.6203   22.8004 H   0  0  0  0  0  0  0  0  0  0  0  0
   10.6909    0.3892   22.5327 C   0  0  0  0  0  0  0  0  0  0  0  0
    9.6431    1.7660   22.6961 Cl  0  0  0  0  0  0  0  0  0  0  0  0
    8.0834   -0.5288   21.0752 C   0  0  0  0  0  0  0  0  0  0  0  0
    8.6345    0.1807   20.4645 H   0  0  0  0  0  0  0  0  0  0  0  0
    4.9155    0.6892   19.8276 C   0  0  0  0  0  0  0  0  0  0  0  0
    4.3616    0.6764   20.7678 H   0  0  0  0  0  0  0  0  0  0  0  0
    4.5093    1.4908   18.7545 C   0  0  0  0  0  0  0  0  0  0  0  0
    3.6519    2.1551   18.8270 H   0  0  0  0  0  0  0  0  0  0  0  0
  1  2  1  0
  2  3  2  0
  3  4  1  0
  4  5  1  0
  4  6  2  0
  6  7  1  0
  7  8  2  0
  8  9  1  0
  8 10  1  0
 10 11  2  0
 11 12  1  0
 11 13  1  0
 13 14  1  0
 14 15  2  0
 15 16  1  0
 15 17  1  0
 17 18  1  0
 17 19  2  0
 19 20  1  0
 19 21  1  0
 21 22  1  0
 21 23  2  0
 23 24  1  0
 13 25  2  0
 25 26  1  0
  6 27  1  0
 27 28  1  0
 27 29  2  0
 29 30  1  0
 29  2  1  0
 25  7  1  0
 23 14  1  0
M  END
>  <cnnaffinity>  (1) 
-5.38324

>  <filename>  (1) 
Clc1ccc(-c2cncc(-c3cccnc3)c2)c(Cl)c1

$$$$
