
     RDKit          3D

 35 38  0  0  0  0  0  0  0  0999 V2000
    5.0301    1.8653   17.0143 H   0  0  0  0  0  0  0  0  0  0  0  0
    5.5376    1.3215   17.8103 C   0  0  0  0  0  0  0  0  0  0  0  0
    6.6835    0.7095   17.4734 N   0  0  0  0  0  0  0  0  0  0  0  0
    7.3454    0.0402   18.4273 C   0  0  0  0  0  0  0  0  0  0  0  0
    8.2881   -0.4138   18.1220 H   0  0  0  0  0  0  0  0  0  0  0  0
    6.8661   -0.0966   19.7461 C   0  0  0  0  0  0  0  0  0  0  0  0
    7.5246   -0.9117   20.6965 N   0  0  0  0  0  0  0  0  0  0  0  0
    8.8664   -0.8555   21.0728 C   0  0  0  0  0  0  0  0  0  0  0  0
    9.5126   -0.1308   20.5983 H   0  0  0  0  0  0  0  0  0  0  0  0
    9.0803   -1.7356   22.0908 C   0  0  0  0  0  0  0  0  0  0  0  0
    9.9328   -2.0226   22.6782 H   0  0  0  0  0  0  0  0  0  0  0  0
    7.8538   -2.3245   22.3556 N   0  0  0  0  0  0  0  0  0  0  0  0
    7.3799   -3.2145   23.2696 N   0  0  0  0  0  0  0  0  0  0  0  0
    6.0678   -3.2362   23.0032 C   0  0  0  0  0  0  0  0  0  0  0  0
    5.0614   -4.1165   23.7210 C   0  0  0  0  0  0  0  0  0  0  0  0
    5.3691   -5.1625   23.5921 H   0  0  0  0  0  0  0  0  0  0  0  0
    4.1155   -4.0217   23.1760 H   0  0  0  0  0  0  0  0  0  0  0  0
    4.8085   -3.8488   25.2015 C   0  0  0  0  0  0  0  0  0  0  0  0
    5.6479   -4.4487   26.1558 C   0  0  0  0  0  0  0  0  0  0  0  0
    6.4074   -5.1484   25.8071 H   0  0  0  0  0  0  0  0  0  0  0  0
    5.5056   -4.2046   27.5255 C   0  0  0  0  0  0  0  0  0  0  0  0
    6.1549   -4.7069   28.2358 H   0  0  0  0  0  0  0  0  0  0  0  0
    4.4945   -3.3507   27.9806 C   0  0  0  0  0  0  0  0  0  0  0  0
    4.3813   -3.1328   29.0414 H   0  0  0  0  0  0  0  0  0  0  0  0
    3.6060   -2.7860   27.0666 C   0  0  0  0  0  0  0  0  0  0  0  0
    2.7772   -2.1611   27.3944 H   0  0  0  0  0  0  0  0  0  0  0  0
    3.7554   -3.0508   25.7008 C   0  0  0  0  0  0  0  0  0  0  0  0
    2.5204   -2.3766   24.6690 Cl  0  0  0  0  0  0  0  0  0  0  0  0
    5.7200   -2.4172   21.9106 C   0  0  0  0  0  0  0  0  0  0  0  0
    4.7289   -2.2230   21.5853 H   0  0  0  0  0  0  0  0  0  0  0  0
    6.9147   -1.8372   21.5250 C   0  0  0  0  0  0  0  0  0  0  0  0
    5.6805    0.5664   20.0960 C   0  0  0  0  0  0  0  0  0  0  0  0
    5.3197    0.5111   21.1260 H   0  0  0  0  0  0  0  0  0  0  0  0
    5.0095    1.2892   19.1072 C   0  0  0  0  0  0  0  0  0  0  0  0
    4.0934    1.8226   19.3300 H   0  0  0  0  0  0  0  0  0  0  0  0
  1  2  1  0
  2  3  2  0
  3  4  1  0
  4  5  1  0
  4  6  2  0
  6  7  1  0
  7  8  1  0
  8  9  1  0
  8 10  2  0
 10 11  1  0
 10 12  1  0
 12 13  1  0
 13 14  2  0
 14 15  1  0
 15 16  1  0
 15 17  1  0
 15 18  1  0
 18 19  2  0
 19 20  1  0
 19 21  1  0
 21 22  1  0
 21 23  2  0
 23 24  1  0
 23 25  1  0
 25 26  1  0
 25 27  2  0
 27 28  1  0
 14 29  1  0
 29 30  1  0
 29 31  2  0
  6 32  1  0
 32 33  1  0
 32 34  2  0
 34 35  1  0
 34  2  1  0
 31  7  1  0
 31 12  1  0
 27 18  1  0
M  END
>  <cnnaffinity>  (1) 
-5.77418

>  <filename>  (1) 
Clc1ccccc1Cc1cc2n(-c3cccnc3)ccn2n1

$$$$
