
     RDKit          3D

 36 39  0  0  0  0  0  0  0  0999 V2000
    4.9870    1.8574   17.0050 H   0  0  0  0  0  0  0  0  0  0  0  0
    5.4464    1.2783   17.8031 C   0  0  0  0  0  0  0  0  0  0  0  0
    6.5803    0.6296   17.4848 N   0  0  0  0  0  0  0  0  0  0  0  0
    7.1853   -0.0573   18.4655 C   0  0  0  0  0  0  0  0  0  0  0  0
    8.1179   -0.5562   18.1880 H   0  0  0  0  0  0  0  0  0  0  0  0
    6.6921   -0.1839   19.7851 C   0  0  0  0  0  0  0  0  0  0  0  0
    7.4147   -0.9361   20.8267 C   0  0  0  0  0  0  0  0  0  0  0  0
    8.6793   -0.7466   21.3753 C   0  0  0  0  0  0  0  0  0  0  0  0
    9.7689    0.0812   20.7639 C   0  0  0  0  0  0  0  0  0  0  0  0
    9.3060    0.9411   20.2680 H   0  0  0  0  0  0  0  0  0  0  0  0
   10.2208   -0.5375   19.9803 H   0  0  0  0  0  0  0  0  0  0  0  0
   10.8449    0.5551   21.7204 C   0  0  0  0  0  0  0  0  0  0  0  0
   10.6789    1.7656   22.4107 C   0  0  0  0  0  0  0  0  0  0  0  0
    9.7952    2.3625   22.2080 H   0  0  0  0  0  0  0  0  0  0  0  0
   11.6167    2.2252   23.3402 C   0  0  0  0  0  0  0  0  0  0  0  0
   11.4586    3.1712   23.8533 H   0  0  0  0  0  0  0  0  0  0  0  0
   12.7551    1.4583   23.5991 C   0  0  0  0  0  0  0  0  0  0  0  0
   13.4889    1.7963   24.3208 H   0  0  0  0  0  0  0  0  0  0  0  0
   12.9608    0.2531   22.9275 C   0  0  0  0  0  0  0  0  0  0  0  0
   13.8370   -0.3611   23.1149 H   0  0  0  0  0  0  0  0  0  0  0  0
   12.0137   -0.1813   21.9930 C   0  0  0  0  0  0  0  0  0  0  0  0
   12.3588   -1.6674   21.1524 Cl  0  0  0  0  0  0  0  0  0  0  0  0
    8.8915   -1.5809   22.4461 N   0  0  0  0  0  0  0  0  0  0  0  0
    7.8016   -2.2760   22.5166 C   0  0  0  0  0  0  0  0  0  0  0  0
    6.8452   -1.9306   21.6029 N   0  0  0  0  0  0  0  0  0  0  0  0
    6.0019   -3.0304   21.1724 C   0  0  0  0  0  0  0  0  0  0  0  0
    6.4542   -3.5279   20.3054 H   0  0  0  0  0  0  0  0  0  0  0  0
    5.0360   -2.6566   20.8778 H   0  0  0  0  0  0  0  0  0  0  0  0
    5.8823   -3.9445   22.4024 C   0  0  0  0  0  0  0  0  0  0  0  0
    5.7885   -4.9979   22.1319 H   0  0  0  0  0  0  0  0  0  0  0  0
    5.0130   -3.6526   22.9943 H   0  0  0  0  0  0  0  0  0  0  0  0
    7.4038   -3.7255   23.4083 S   0  0  0  0  0  0  0  0  0  0  0  0
    5.4897    0.4888   20.0763 C   0  0  0  0  0  0  0  0  0  0  0  0
    5.0693    0.4281   21.0827 H   0  0  0  0  0  0  0  0  0  0  0  0
    4.8673    1.2400   19.0777 C   0  0  0  0  0  0  0  0  0  0  0  0
    3.9690    1.8187   19.2747 H   0  0  0  0  0  0  0  0  0  0  0  0
  1  2  1  0
  2  3  2  0
  3  4  1  0
  4  5  1  0
  4  6  2  0
  6  7  1  0
  7  8  2  0
  8  9  1  0
  9 10  1  0
  9 11  1  0
  9 12  1  0
 12 13  2  0
 13 14  1  0
 13 15  1  0
 15 16  1  0
 15 17  2  0
 17 18  1  0
 17 19  1  0
 19 20  1  0
 19 21  2  0
 21 22  1  0
  8 23  1  0
 23 24  2  0
 24 25  1  0
 25 26  1  0
 26 27  1  0
 26 28  1  0
 26 29  1  0
 29 30  1  0
 29 31  1  0
 29 32  1  0
  6 33  1  0
 33 34  1  0
 33 35  2  0
 35 36  1  0
 35  2  1  0
 25  7  1  0
 21 12  1  0
 32 24  1  0
M  END
>  <cnnaffinity>  (1) 
-5.87149

>  <filename>  (1) 
Clc1ccccc1Cc1nc2n(c1-c1cccnc1)CCS2

$$$$
