
     RDKit          3D

 33 36  0  0  0  0  0  0  0  0999 V2000
    5.1097    1.8770   16.8802 H   0  0  0  0  0  0  0  0  0  0  0  0
    5.4529    1.3339   17.7602 C   0  0  0  0  0  0  0  0  0  0  0  0
    6.5851    0.6304   17.6150 N   0  0  0  0  0  0  0  0  0  0  0  0
    7.0319   -0.0453   18.6804 C   0  0  0  0  0  0  0  0  0  0  0  0
    7.9647   -0.5879   18.5512 H   0  0  0  0  0  0  0  0  0  0  0  0
    6.3666   -0.0960   19.9232 C   0  0  0  0  0  0  0  0  0  0  0  0
    6.8608   -0.9402   21.0306 C   0  0  0  0  0  0  0  0  0  0  0  0
    6.1650   -1.8487   21.7439 C   0  0  0  0  0  0  0  0  0  0  0  0
    5.1281   -2.1081   21.5970 H   0  0  0  0  0  0  0  0  0  0  0  0
    7.1059   -2.6301   22.9873 S   0  0  0  0  0  0  0  0  0  0  0  0
    8.4847   -1.6823   22.5182 C   0  0  0  0  0  0  0  0  0  0  0  0
    9.7543   -1.5619   22.8511 N   0  0  0  0  0  0  0  0  0  0  0  0
   10.2001   -0.6856   21.9093 C   0  0  0  0  0  0  0  0  0  0  0  0
   11.6495   -0.3311   21.7834 C   0  0  0  0  0  0  0  0  0  0  0  0
   11.9105   -0.6180   20.7577 H   0  0  0  0  0  0  0  0  0  0  0  0
   12.1946   -1.0161   22.4352 H   0  0  0  0  0  0  0  0  0  0  0  0
   12.0451    1.1296   22.0045 C   0  0  0  0  0  0  0  0  0  0  0  0
   11.6708    2.0764   21.0346 C   0  0  0  0  0  0  0  0  0  0  0  0
   10.9675    1.7798   20.2717 H   0  0  0  0  0  0  0  0  0  0  0  0
   12.1459    3.3868   21.0582 C   0  0  0  0  0  0  0  0  0  0  0  0
   11.9564    4.0539   20.2226 H   0  0  0  0  0  0  0  0  0  0  0  0
   12.9310    3.8162   22.1295 C   0  0  0  0  0  0  0  0  0  0  0  0
   13.2432    4.8548   22.1948 H   0  0  0  0  0  0  0  0  0  0  0  0
   13.2909    2.9165   23.1294 C   0  0  0  0  0  0  0  0  0  0  0  0
   13.9389    3.2267   23.9389 H   0  0  0  0  0  0  0  0  0  0  0  0
   12.8277    1.5957   23.0786 C   0  0  0  0  0  0  0  0  0  0  0  0
   13.2381    0.5479   24.4102 Cl  0  0  0  0  0  0  0  0  0  0  0  0
    9.2985   -0.2587   21.0345 N   0  0  0  0  0  0  0  0  0  0  0  0
    8.1836   -0.8999   21.4650 N   0  0  0  0  0  0  0  0  0  0  0  0
    5.1918    0.6605   20.0567 C   0  0  0  0  0  0  0  0  0  0  0  0
    4.6647    0.6923   21.0120 H   0  0  0  0  0  0  0  0  0  0  0  0
    4.7338    1.3909   18.9585 C   0  0  0  0  0  0  0  0  0  0  0  0
    3.8461    2.0084   19.0160 H   0  0  0  0  0  0  0  0  0  0  0  0
  1  2  1  0
  2  3  2  0
  3  4  1  0
  4  5  1  0
  4  6  2  0
  6  7  1  0
  7  8  2  0
  8  9  1  0
  8 10  1  0
 10 11  1  0
 11 12  2  0
 12 13  1  0
 13 14  1  0
 14 15  1  0
 14 16  1  0
 14 17  1  0
 17 18  2  0
 18 19  1  0
 18 20  1  0
 20 21  1  0
 20 22  2  0
 22 23  1  0
 22 24  1  0
 24 25  1  0
 24 26  2  0
 26 27  1  0
 13 28  2  0
 28 29  1  0
  6 30  1  0
 30 31  1  0
 30 32  2  0
 32 33  1  0
 32  2  1  0
 29  7  1  0
 29 11  1  0
 26 17  1  0
M  END
>  <cnnaffinity>  (1) 
-5.85732

>  <filename>  (1) 
Clc1ccccc1Cc1nc2scc(-c3cccnc3)n2n1

$$$$
