
     RDKit          3D

 33 35  0  0  0  0  0  0  0  0999 V2000
    4.9218    1.7823   16.9918 H   0  0  0  0  0  0  0  0  0  0  0  0
    5.4032    1.2915   17.8338 C   0  0  0  0  0  0  0  0  0  0  0  0
    6.5652    0.6751   17.5754 N   0  0  0  0  0  0  0  0  0  0  0  0
    7.1656    0.0557   18.6023 C   0  0  0  0  0  0  0  0  0  0  0  0
    8.1140   -0.4306   18.3768 H   0  0  0  0  0  0  0  0  0  0  0  0
    6.6438    0.0053   19.8961 C   0  0  0  0  0  0  0  0  0  0  0  0
    7.4586   -0.6431   20.9958 C   0  0  0  0  0  0  0  0  0  0  0  0
    8.6055    0.2519   21.5021 C   0  0  0  0  0  0  0  0  0  0  0  0
    9.2584    0.4534   20.6411 H   0  0  0  0  0  0  0  0  0  0  0  0
    9.1707   -0.3526   22.2147 H   0  0  0  0  0  0  0  0  0  0  0  0
    8.1311    1.5424   22.1358 C   0  0  0  0  0  0  0  0  0  0  0  0
    7.9373    2.6557   21.3150 C   0  0  0  0  0  0  0  0  0  0  0  0
    8.1795    2.4888   20.2693 H   0  0  0  0  0  0  0  0  0  0  0  0
    7.4269    3.8603   21.8130 C   0  0  0  0  0  0  0  0  0  0  0  0
    7.2771    4.7335   21.1809 H   0  0  0  0  0  0  0  0  0  0  0  0
    7.1005    3.9543   23.1652 C   0  0  0  0  0  0  0  0  0  0  0  0
    6.7177    4.8897   23.5622 H   0  0  0  0  0  0  0  0  0  0  0  0
    7.2697    2.8553   24.0074 C   0  0  0  0  0  0  0  0  0  0  0  0
    7.0314    2.9106   25.0627 H   0  0  0  0  0  0  0  0  0  0  0  0
    7.7742    1.6625   23.4868 C   0  0  0  0  0  0  0  0  0  0  0  0
    7.9699    0.3141   24.5694 Cl  0  0  0  0  0  0  0  0  0  0  0  0
    6.5792   -0.9877   22.0487 O   0  0  0  0  0  0  0  0  0  0  0  0
    6.6029   -2.3839   22.2692 C   0  0  0  0  0  0  0  0  0  0  0  0
    5.5733   -2.7342   22.3902 H   0  0  0  0  0  0  0  0  0  0  0  0
    7.1803   -2.6123   23.1741 H   0  0  0  0  0  0  0  0  0  0  0  0
    7.2576   -2.9330   21.0082 C   0  0  0  0  0  0  0  0  0  0  0  0
    6.5157   -3.2406   20.2542 H   0  0  0  0  0  0  0  0  0  0  0  0
    7.9303   -3.7676   21.2179 H   0  0  0  0  0  0  0  0  0  0  0  0
    8.0576   -1.8485   20.5628 O   0  0  0  0  0  0  0  0  0  0  0  0
    5.4188    0.6463   20.1493 C   0  0  0  0  0  0  0  0  0  0  0  0
    4.9994    0.6319   21.1606 H   0  0  0  0  0  0  0  0  0  0  0  0
    4.7963    1.3101   19.0965 C   0  0  0  0  0  0  0  0  0  0  0  0
    3.8667    1.8479   19.2509 H   0  0  0  0  0  0  0  0  0  0  0  0
  1  2  1  0
  2  3  2  0
  3  4  1  0
  4  5  1  0
  4  6  2  0
  6  7  1  0
  7  8  1  0
  8  9  1  0
  8 10  1  0
  8 11  1  0
 11 12  2  0
 12 13  1  0
 12 14  1  0
 14 15  1  0
 14 16  2  0
 16 17  1  0
 16 18  1  0
 18 19  1  0
 18 20  2  0
 20 21  1  0
  7 22  1  0
 22 23  1  0
 23 24  1  0
 23 25  1  0
 23 26  1  0
 26 27  1  0
 26 28  1  0
 26 29  1  0
  6 30  1  0
 30 31  1  0
 30 32  2  0
 32 33  1  0
 32  2  1  0
 29  7  1  0
 20 11  1  0
M  END
>  <cnnaffinity>  (1) 
-4.03452

>  <filename>  (1) 
Clc1ccccc1CC1(c2cccnc2)OCCO1

$$$$
