
     RDKit          3D

 28 30  0  0  0  0  0  0  0  0999 V2000
    4.9554    1.7784   16.9574 H   0  0  0  0  0  0  0  0  0  0  0  0
    5.4151    1.3156   17.8330 C   0  0  0  0  0  0  0  0  0  0  0  0
    6.5813    0.6791   17.6311 N   0  0  0  0  0  0  0  0  0  0  0  0
    7.1466    0.0793   18.6858 C   0  0  0  0  0  0  0  0  0  0  0  0
    8.0942   -0.4267   18.4949 H   0  0  0  0  0  0  0  0  0  0  0  0
    6.6131    0.0829   19.9887 C   0  0  0  0  0  0  0  0  0  0  0  0
    7.2762   -0.6454   21.0919 C   0  0  0  0  0  0  0  0  0  0  0  0
    7.5844   -0.1157   22.3290 C   0  0  0  0  0  0  0  0  0  0  0  0
    7.1913    1.1947   22.8962 C   0  0  0  0  0  0  0  0  0  0  0  0
    6.2881    1.2494   23.9760 C   0  0  0  0  0  0  0  0  0  0  0  0
    5.9261    0.3195   24.4103 H   0  0  0  0  0  0  0  0  0  0  0  0
    5.8373    2.4719   24.4659 C   0  0  0  0  0  0  0  0  0  0  0  0
    5.1145    2.4979   25.2764 H   0  0  0  0  0  0  0  0  0  0  0  0
    6.2865    3.6654   23.8964 C   0  0  0  0  0  0  0  0  0  0  0  0
    5.9160    4.6254   24.2452 H   0  0  0  0  0  0  0  0  0  0  0  0
    7.2035    3.6343   22.8434 C   0  0  0  0  0  0  0  0  0  0  0  0
    7.6984    5.1415   22.1433 Cl  0  0  0  0  0  0  0  0  0  0  0  0
    7.6713    2.4036   22.3494 C   0  0  0  0  0  0  0  0  0  0  0  0
    8.8346    2.3839   21.0691 Cl  0  0  0  0  0  0  0  0  0  0  0  0
    8.5300   -1.2179   23.2582 S   0  0  0  0  0  0  0  0  0  0  0  0
    8.4012   -2.4416   22.0545 C   0  0  0  0  0  0  0  0  0  0  0  0
    8.9035   -3.3907   22.1851 H   0  0  0  0  0  0  0  0  0  0  0  0
    7.6762   -2.0143   20.9920 C   0  0  0  0  0  0  0  0  0  0  0  0
    7.3197   -2.6341   20.1830 H   0  0  0  0  0  0  0  0  0  0  0  0
    5.4153    0.7810   20.1837 C   0  0  0  0  0  0  0  0  0  0  0  0
    4.9814    0.8301   21.1821 H   0  0  0  0  0  0  0  0  0  0  0  0
    4.7945    1.3799   19.0843 C   0  0  0  0  0  0  0  0  0  0  0  0
    3.8381    1.8807   19.1753 H   0  0  0  0  0  0  0  0  0  0  0  0
  1  2  1  0
  2  3  2  0
  3  4  1  0
  4  5  1  0
  4  6  2  0
  6  7  1  0
  7  8  2  0
  8  9  1  0
  9 10  2  0
 10 11  1  0
 10 12  1  0
 12 13  1  0
 12 14  2  0
 14 15  1  0
 14 16  1  0
 16 17  1  0
 16 18  2  0
 18 19  1  0
  8 20  1  0
 20 21  1  0
 21 22  1  0
 21 23  2  0
 23 24  1  0
  6 25  1  0
 25 26  1  0
 25 27  2  0
 27 28  1  0
 27  2  1  0
 23  7  1  0
 18  9  1  0
M  END
>  <cnnaffinity>  (1) 
-5.23475

>  <filename>  (1) 
Clc1cccc(-c2sccc2-c2cccnc2)c1Cl

$$$$
