
     RDKit          3D

 30 32  0  0  0  0  0  0  0  0999 V2000
    5.3911    1.7869   16.4372 H   0  0  0  0  0  0  0  0  0  0  0  0
    5.6782    1.2411   17.3345 C   0  0  0  0  0  0  0  0  0  0  0  0
    6.8677    0.6243   17.2941 N   0  0  0  0  0  0  0  0  0  0  0  0
    7.2789   -0.0431   18.3765 C   0  0  0  0  0  0  0  0  0  0  0  0
    8.2246   -0.5790   18.3114 H   0  0  0  0  0  0  0  0  0  0  0  0
    6.5258   -0.0861   19.5611 C   0  0  0  0  0  0  0  0  0  0  0  0
    7.0587   -0.6888   20.7402 N   0  0  0  0  0  0  0  0  0  0  0  0
    7.7113   -1.8674   20.7108 N   0  0  0  0  0  0  0  0  0  0  0  0
    8.0136   -2.1524   21.9210 N   0  0  0  0  0  0  0  0  0  0  0  0
    7.5915   -1.1932   22.7768 N   0  0  0  0  0  0  0  0  0  0  0  0
    7.0212   -0.2717   22.0320 C   0  0  0  0  0  0  0  0  0  0  0  0
    6.5222    1.3423   22.5580 S   0  0  0  0  0  0  0  0  0  0  0  0
    7.9674    2.2877   21.9008 C   0  0  0  0  0  0  0  0  0  0  0  0
    7.7880    3.3170   22.2315 H   0  0  0  0  0  0  0  0  0  0  0  0
    7.9512    2.2561   20.8084 H   0  0  0  0  0  0  0  0  0  0  0  0
    9.2988    1.7966   22.4224 C   0  0  0  0  0  0  0  0  0  0  0  0
   10.4039    1.5529   21.5958 C   0  0  0  0  0  0  0  0  0  0  0  0
   10.3175    1.6943   20.5209 H   0  0  0  0  0  0  0  0  0  0  0  0
   11.6193    1.1190   22.1460 C   0  0  0  0  0  0  0  0  0  0  0  0
   12.4903    0.9267   21.5305 H   0  0  0  0  0  0  0  0  0  0  0  0
   11.7466    0.9284   23.5285 C   0  0  0  0  0  0  0  0  0  0  0  0
   13.2878    0.4977   24.1968 Cl  0  0  0  0  0  0  0  0  0  0  0  0
   10.6292    1.1237   24.3531 C   0  0  0  0  0  0  0  0  0  0  0  0
   10.6586    0.8213   26.0566 Cl  0  0  0  0  0  0  0  0  0  0  0  0
    9.4346    1.5741   23.8009 C   0  0  0  0  0  0  0  0  0  0  0  0
    8.5954    1.7172   24.4723 H   0  0  0  0  0  0  0  0  0  0  0  0
    5.2517    0.4854   19.5813 C   0  0  0  0  0  0  0  0  0  0  0  0
    4.6077    0.3683   20.4535 H   0  0  0  0  0  0  0  0  0  0  0  0
    4.8294    1.1820   18.4443 C   0  0  0  0  0  0  0  0  0  0  0  0
    3.8672    1.6821   18.4152 H   0  0  0  0  0  0  0  0  0  0  0  0
  1  2  1  0
  2  3  2  0
  3  4  1  0
  4  5  1  0
  4  6  2  0
  6  7  1  0
  7  8  1  0
  8  9  2  0
  9 10  1  0
 10 11  2  0
 11 12  1  0
 12 13  1  0
 13 14  1  0
 13 15  1  0
 13 16  1  0
 16 17  2  0
 17 18  1  0
 17 19  1  0
 19 20  1  0
 19 21  2  0
 21 22  1  0
 21 23  1  0
 23 24  1  0
 23 25  2  0
 25 26  1  0
  6 27  1  0
 27 28  1  0
 27 29  2  0
 29 30  1  0
 29  2  1  0
 11  7  1  0
 25 16  1  0
M  END
>  <cnnaffinity>  (1) 
-5.43653

>  <filename>  (1) 
Clc1ccc(CSc2nnnn2-c2cccnc2)cc1Cl

$$$$
