
     RDKit          3D

 30 32  0  0  0  0  0  0  0  0999 V2000
    4.8962    1.6346   17.0032 H   0  0  0  0  0  0  0  0  0  0  0  0
    5.3864    1.2809   17.9096 C   0  0  0  0  0  0  0  0  0  0  0  0
    6.5605    0.6602   17.7218 N   0  0  0  0  0  0  0  0  0  0  0  0
    7.1832    0.1977   18.8088 C   0  0  0  0  0  0  0  0  0  0  0  0
    8.1409   -0.2930   18.6339 H   0  0  0  0  0  0  0  0  0  0  0  0
    6.6911    0.3067   20.1295 C   0  0  0  0  0  0  0  0  0  0  0  0
    7.4051   -0.4402   21.1851 C   0  0  0  0  0  0  0  0  0  0  0  0
    8.1505   -1.5944   21.0671 C   0  0  0  0  0  0  0  0  0  0  0  0
    8.3870   -2.0543   20.1257 H   0  0  0  0  0  0  0  0  0  0  0  0
    8.5133   -2.0533   22.3506 C   0  0  0  0  0  0  0  0  0  0  0  0
    9.0985   -2.9377   22.5709 H   0  0  0  0  0  0  0  0  0  0  0  0
    7.9928   -1.1638   23.2652 C   0  0  0  0  0  0  0  0  0  0  0  0
    8.0358   -1.1111   24.3472 H   0  0  0  0  0  0  0  0  0  0  0  0
    7.3714   -0.1709   22.5377 N   0  0  0  0  0  0  0  0  0  0  0  0
    6.6664    0.8647   23.0684 O   0  0  0  0  0  0  0  0  0  0  0  0
    7.3332    1.6272   24.0350 C   0  0  0  0  0  0  0  0  0  0  0  0
    8.7162    1.6831   24.2163 C   0  0  0  0  0  0  0  0  0  0  0  0
    9.3820    1.1359   23.5556 H   0  0  0  0  0  0  0  0  0  0  0  0
    9.2097    2.4249   25.2947 C   0  0  0  0  0  0  0  0  0  0  0  0
   10.2783    2.4332   25.4795 H   0  0  0  0  0  0  0  0  0  0  0  0
    8.3432    3.1324   26.1378 C   0  0  0  0  0  0  0  0  0  0  0  0
    8.6972    3.7072   26.9830 H   0  0  0  0  0  0  0  0  0  0  0  0
    6.9692    3.0904   25.8767 C   0  0  0  0  0  0  0  0  0  0  0  0
    5.8734    3.9794   26.8854 Cl  0  0  0  0  0  0  0  0  0  0  0  0
    6.4501    2.3538   24.8149 C   0  0  0  0  0  0  0  0  0  0  0  0
    5.3874    2.2981   24.6099 H   0  0  0  0  0  0  0  0  0  0  0  0
    5.4982    1.0416   20.3105 C   0  0  0  0  0  0  0  0  0  0  0  0
    5.1306    1.2631   21.3142 H   0  0  0  0  0  0  0  0  0  0  0  0
    4.8182    1.4913   19.1702 C   0  0  0  0  0  0  0  0  0  0  0  0
    3.8684    2.0149   19.2390 H   0  0  0  0  0  0  0  0  0  0  0  0
  1  2  1  0
  2  3  2  0
  3  4  1  0
  4  5  1  0
  4  6  2  0
  6  7  1  0
  7  8  2  0
  8  9  1  0
  8 10  1  0
 10 11  1  0
 10 12  2  0
 12 13  1  0
 12 14  1  0
 14 15  1  0
 15 16  1  0
 16 17  2  0
 17 18  1  0
 17 19  1  0
 19 20  1  0
 19 21  2  0
 21 22  1  0
 21 23  1  0
 23 24  1  0
 23 25  2  0
 25 26  1  0
  6 27  1  0
 27 28  1  0
 27 29  2  0
 29 30  1  0
 29  2  1  0
 14  7  1  0
 25 16  1  0
M  END
>  <cnnaffinity>  (1) 
-4.91056

>  <filename>  (1) 
Clc1cccc(On2cccc2-c2cccnc2)c1

$$$$
