
     RDKit          3D

 37 39  0  0  0  0  0  0  0  0999 V2000
    5.2220    1.2706   24.1790 Cl  0  0  0  0  0  0  0  0  0  0  0  0
    6.3082    1.3383   25.5514 C   0  0  0  0  0  0  0  0  0  0  0  0
    7.0089    2.5279   25.7841 C   0  0  0  0  0  0  0  0  0  0  0  0
    7.8447    2.6299   26.9031 C   0  0  0  0  0  0  0  0  0  0  0  0
    7.9506    1.5529   27.7913 C   0  0  0  0  0  0  0  0  0  0  0  0
    7.3073    0.3522   27.4942 C   0  0  0  0  0  0  0  0  0  0  0  0
    6.4534    0.2257   26.3920 C   0  0  0  0  0  0  0  0  0  0  0  0
    5.7616   -1.1019   26.1542 C   0  0  0  0  0  0  0  0  0  0  0  0
    6.5671   -1.9748   25.2643 C   0  0  0  0  0  0  0  0  0  0  0  0
    7.4459   -2.8470   25.5999 N   0  0  0  0  0  0  0  0  0  0  0  0
    7.9782   -3.3535   24.4071 N   0  0  0  0  0  0  0  0  0  0  0  0
    7.3477   -2.7303   23.4652 C   0  0  0  0  0  0  0  0  0  0  0  0
    7.4836   -2.9486   22.1468 N   0  0  0  0  0  0  0  0  0  0  0  0
    6.8368   -2.1731   21.1116 C   0  0  0  0  0  0  0  0  0  0  0  0
    7.3752   -0.7345   21.0032 C   0  0  0  0  0  0  0  0  0  0  0  0
    6.6770    0.0425   19.9049 C   0  0  0  0  0  0  0  0  0  0  0  0
    5.4477    0.6738   20.1433 C   0  0  0  0  0  0  0  0  0  0  0  0
    4.7955    1.3201   19.0884 C   0  0  0  0  0  0  0  0  0  0  0  0
    5.3848    1.3000   17.8203 C   0  0  0  0  0  0  0  0  0  0  0  0
    6.5469    0.6833   17.5597 N   0  0  0  0  0  0  0  0  0  0  0  0
    7.1663    0.0809   18.5847 C   0  0  0  0  0  0  0  0  0  0  0  0
    8.1147   -0.3982   18.3368 H   0  0  0  0  0  0  0  0  0  0  0  0
    4.9124    1.8031   16.9766 H   0  0  0  0  0  0  0  0  0  0  0  0
    3.8594    1.8476   19.2332 H   0  0  0  0  0  0  0  0  0  0  0  0
    5.0217    0.6587   21.1516 H   0  0  0  0  0  0  0  0  0  0  0  0
    8.4563   -0.7733   20.8195 H   0  0  0  0  0  0  0  0  0  0  0  0
    7.2392   -0.2423   21.9742 H   0  0  0  0  0  0  0  0  0  0  0  0
    5.7487   -2.1386   21.2778 H   0  0  0  0  0  0  0  0  0  0  0  0
    6.9955   -2.6896   20.1613 H   0  0  0  0  0  0  0  0  0  0  0  0
    8.2337   -3.5981   21.9921 H   0  0  0  0  0  0  0  0  0  0  0  0
    6.4532   -1.8266   23.9096 O   0  0  0  0  0  0  0  0  0  0  0  0
    4.7565   -0.9610   25.7472 H   0  0  0  0  0  0  0  0  0  0  0  0
    5.6717   -1.6487   27.0944 H   0  0  0  0  0  0  0  0  0  0  0  0
    7.4680   -0.5140   28.1290 H   0  0  0  0  0  0  0  0  0  0  0  0
    8.4941    1.6329   28.7305 H   0  0  0  0  0  0  0  0  0  0  0  0
    8.4082    3.5451   27.0757 H   0  0  0  0  0  0  0  0  0  0  0  0
    6.8627    3.3596   25.1011 H   0  0  0  0  0  0  0  0  0  0  0  0
  1  2  1  0
  2  3  2  0
  3  4  1  0
  4  5  2  0
  5  6  1  0
  6  7  2  0
  7  8  1  0
  8  9  1  0
  9 10  2  0
 10 11  1  0
 11 12  2  0
 12 13  1  0
 13 14  1  0
 14 15  1  0
 15 16  1  0
 16 17  2  0
 17 18  1  0
 18 19  2  0
 19 20  1  0
 20 21  2  0
 21 22  1  0
 19 23  1  0
 18 24  1  0
 17 25  1  0
 15 26  1  0
 15 27  1  0
 14 28  1  0
 14 29  1  0
 13 30  1  0
 12 31  1  0
  8 32  1  0
  8 33  1  0
  6 34  1  0
  5 35  1  0
  4 36  1  0
  3 37  1  0
  7  2  1  0
 31  9  1  0
 21 16  1  0
M  END
>  <cnnaffinity>  (1) 
-5.23399

>  <filename>  (1) 
Clc1ccccc1Cc1nnc(NCCc2cccnc2)o1

$$$$
