
     RDKit          3D

 27 29  0  0  0  0  0  0  0  0999 V2000
    4.9269    1.9357   16.7530 H   0  0  0  0  0  0  0  0  0  0  0  0
    5.3892    1.4128   17.5867 C   0  0  0  0  0  0  0  0  0  0  0  0
    6.5504    0.7924   17.3223 N   0  0  0  0  0  0  0  0  0  0  0  0
    7.1417    0.1487   18.3322 C   0  0  0  0  0  0  0  0  0  0  0  0
    8.0907   -0.3291   18.0918 H   0  0  0  0  0  0  0  0  0  0  0  0
    6.6186    0.0773   19.6275 C   0  0  0  0  0  0  0  0  0  0  0  0
    7.3184   -0.6546   20.6845 C   0  0  0  0  0  0  0  0  0  0  0  0
    7.0664   -0.5638   21.9669 N   0  0  0  0  0  0  0  0  0  0  0  0
    7.9455   -1.4292   22.5528 C   0  0  0  0  0  0  0  0  0  0  0  0
    7.9085   -1.6445   24.0219 C   0  0  0  0  0  0  0  0  0  0  0  0
    6.9134   -0.9460   24.7379 C   0  0  0  0  0  0  0  0  0  0  0  0
    6.2905   -0.2388   24.2019 H   0  0  0  0  0  0  0  0  0  0  0  0
    6.7001   -1.1836   26.0845 C   0  0  0  0  0  0  0  0  0  0  0  0
    5.9079   -0.6624   26.6096 H   0  0  0  0  0  0  0  0  0  0  0  0
    7.4795   -2.1156   26.7545 C   0  0  0  0  0  0  0  0  0  0  0  0
    7.2565   -2.3498   27.7798 H   0  0  0  0  0  0  0  0  0  0  0  0
    8.5175   -2.7757   26.0954 C   0  0  0  0  0  0  0  0  0  0  0  0
    9.4610   -3.9057   27.0059 Cl  0  0  0  0  0  0  0  0  0  0  0  0
    8.7551   -2.5352   24.7280 C   0  0  0  0  0  0  0  0  0  0  0  0
   10.0680   -3.3584   23.9599 Cl  0  0  0  0  0  0  0  0  0  0  0  0
    8.7227   -2.0596   21.6869 N   0  0  0  0  0  0  0  0  0  0  0  0
    8.3159   -1.5406   20.5086 N   0  0  0  0  0  0  0  0  0  0  0  0
    8.6992   -1.8780   19.6375 H   0  0  0  0  0  0  0  0  0  0  0  0
    5.4059    0.7339   19.8916 C   0  0  0  0  0  0  0  0  0  0  0  0
    4.9768    0.7085   20.8955 H   0  0  0  0  0  0  0  0  0  0  0  0
    4.7803    1.4093   18.8475 C   0  0  0  0  0  0  0  0  0  0  0  0
    3.8424    1.9333   18.9955 H   0  0  0  0  0  0  0  0  0  0  0  0
  1  2  1  0
  2  3  2  0
  3  4  1  0
  4  5  1  0
  4  6  2  0
  6  7  1  0
  7  8  2  0
  8  9  1  0
  9 10  1  0
 10 11  2  0
 11 12  1  0
 11 13  1  0
 13 14  1  0
 13 15  2  0
 15 16  1  0
 15 17  1  0
 17 18  1  0
 17 19  2  0
 19 20  1  0
  9 21  2  0
 21 22  1  0
 22 23  1  0
  6 24  1  0
 24 25  1  0
 24 26  2  0
 26 27  1  0
 26  2  1  0
 22  7  1  0
 19 10  1  0
M  END
>  <cnnaffinity>  (1) 
-5.52501

>  <filename>  (1) 
Clc1cccc(-c2n[nH]c(-c3cccnc3)n2)c1Cl

$$$$
