
     RDKit          3D

 27 29  0  0  0  0  0  0  0  0999 V2000
    4.9803    1.8022   17.0011 H   0  0  0  0  0  0  0  0  0  0  0  0
    5.4318    1.2872   17.8495 C   0  0  0  0  0  0  0  0  0  0  0  0
    6.5987    0.6637   17.6152 N   0  0  0  0  0  0  0  0  0  0  0  0
    7.1857    0.0223   18.6343 C   0  0  0  0  0  0  0  0  0  0  0  0
    8.1414   -0.4606   18.4413 H   0  0  0  0  0  0  0  0  0  0  0  0
    6.6255   -0.0409   19.9246 C   0  0  0  0  0  0  0  0  0  0  0  0
    7.3735   -0.6113   20.9530 O   0  0  0  0  0  0  0  0  0  0  0  0
    6.8673   -1.5187   21.7995 C   0  0  0  0  0  0  0  0  0  0  0  0
    5.8044   -2.2670   21.6876 N   0  0  0  0  0  0  0  0  0  0  0  0
    5.8355   -3.0728   22.7858 N   0  0  0  0  0  0  0  0  0  0  0  0
    6.8546   -2.8455   23.5218 N   0  0  0  0  0  0  0  0  0  0  0  0
    7.5508   -1.8406   22.9179 N   0  0  0  0  0  0  0  0  0  0  0  0
    8.8663   -1.4183   23.2796 C   0  0  0  0  0  0  0  0  0  0  0  0
    9.1010   -0.7638   24.4996 C   0  0  0  0  0  0  0  0  0  0  0  0
    8.3178   -0.6675   25.2521 H   0  0  0  0  0  0  0  0  0  0  0  0
   10.3737   -0.2351   24.7385 C   0  0  0  0  0  0  0  0  0  0  0  0
   10.5607    0.3042   25.6614 H   0  0  0  0  0  0  0  0  0  0  0  0
   11.4052   -0.3666   23.8049 C   0  0  0  0  0  0  0  0  0  0  0  0
   12.3865    0.0599   24.0083 H   0  0  0  0  0  0  0  0  0  0  0  0
   11.1910   -1.0825   22.6209 C   0  0  0  0  0  0  0  0  0  0  0  0
   12.5023   -1.3168   21.5085 Cl  0  0  0  0  0  0  0  0  0  0  0  0
    9.9179   -1.6105   22.3506 C   0  0  0  0  0  0  0  0  0  0  0  0
    9.6552   -2.5128   20.9036 Cl  0  0  0  0  0  0  0  0  0  0  0  0
    5.4045    0.5836   20.1655 C   0  0  0  0  0  0  0  0  0  0  0  0
    4.9582    0.5404   21.1579 H   0  0  0  0  0  0  0  0  0  0  0  0
    4.8072    1.2733   19.1001 C   0  0  0  0  0  0  0  0  0  0  0  0
    3.8768    1.8107   19.2335 H   0  0  0  0  0  0  0  0  0  0  0  0
  1  2  1  0
  2  3  2  0
  3  4  1  0
  4  5  1  0
  4  6  2  0
  6  7  1  0
  7  8  1  0
  8  9  2  0
  9 10  1  0
 10 11  2  0
 11 12  1  0
 12 13  1  0
 13 14  2  0
 14 15  1  0
 14 16  1  0
 16 17  1  0
 16 18  2  0
 18 19  1  0
 18 20  1  0
 20 21  1  0
 20 22  2  0
 22 23  1  0
  6 24  1  0
 24 25  1  0
 24 26  2  0
 26 27  1  0
 26  2  1  0
 12  8  1  0
 22 13  1  0
M  END
>  <cnnaffinity>  (1) 
-5.78357

>  <filename>  (1) 
Clc1cccc(-n2nnnc2Oc2cccnc2)c1Cl

$$$$
