
     RDKit          3D

 35 37  0  0  0  0  0  0  0  0999 V2000
    1.9308   -0.7780   26.3063 Cl  0  0  0  0  0  0  0  0  0  0  0  0
    2.9492   -2.1705   26.5393 C   0  0  0  0  0  0  0  0  0  0  0  0
    2.3320   -3.4218   26.6332 C   0  0  0  0  0  0  0  0  0  0  0  0
    3.1024   -4.5673   26.8258 C   0  0  0  0  0  0  0  0  0  0  0  0
    4.4888   -4.4577   26.9339 C   0  0  0  0  0  0  0  0  0  0  0  0
    5.1046   -3.2116   26.8454 C   0  0  0  0  0  0  0  0  0  0  0  0
    4.3519   -2.0488   26.6250 C   0  0  0  0  0  0  0  0  0  0  0  0
    5.0068   -0.8140   26.5352 N   0  0  0  0  0  0  0  0  0  0  0  0
    6.1015   -0.5084   25.7814 C   0  0  0  0  0  0  0  0  0  0  0  0
    6.7083    0.6327   25.8986 N   0  0  0  0  0  0  0  0  0  0  0  0
    7.7860    0.7267   25.0629 N   0  0  0  0  0  0  0  0  0  0  0  0
    7.9568   -0.3179   24.3265 C   0  0  0  0  0  0  0  0  0  0  0  0
    9.2384   -0.4562   23.1178 S   0  0  0  0  0  0  0  0  0  0  0  0
    8.3444    0.2878   21.6988 C   0  0  0  0  0  0  0  0  0  0  0  0
    7.4008   -0.6952   20.9912 C   0  0  0  0  0  0  0  0  0  0  0  0
    6.6403   -0.0111   19.8850 C   0  0  0  0  0  0  0  0  0  0  0  0
    5.4296    0.6481   20.1414 C   0  0  0  0  0  0  0  0  0  0  0  0
    4.7985    1.3167   19.0913 C   0  0  0  0  0  0  0  0  0  0  0  0
    5.3915    1.3034   17.8248 C   0  0  0  0  0  0  0  0  0  0  0  0
    6.5553    0.6913   17.5601 N   0  0  0  0  0  0  0  0  0  0  0  0
    7.1555    0.0624   18.5795 C   0  0  0  0  0  0  0  0  0  0  0  0
    8.1087   -0.4154   18.3525 H   0  0  0  0  0  0  0  0  0  0  0  0
    4.9157    1.7969   16.9812 H   0  0  0  0  0  0  0  0  0  0  0  0
    3.8707    1.8477   19.2456 H   0  0  0  0  0  0  0  0  0  0  0  0
    5.0107    0.6377   21.1523 H   0  0  0  0  0  0  0  0  0  0  0  0
    7.9909   -1.5378   20.6053 H   0  0  0  0  0  0  0  0  0  0  0  0
    6.7039   -1.1116   21.7294 H   0  0  0  0  0  0  0  0  0  0  0  0
    7.7930    1.1564   22.0770 H   0  0  0  0  0  0  0  0  0  0  0  0
    9.0949    0.6717   20.9972 H   0  0  0  0  0  0  0  0  0  0  0  0
    6.7705   -1.5721   24.5880 S   0  0  0  0  0  0  0  0  0  0  0  0
    4.6092    0.0111   26.9562 H   0  0  0  0  0  0  0  0  0  0  0  0
    6.1797   -3.1015   26.9427 H   0  0  0  0  0  0  0  0  0  0  0  0
    5.1018   -5.3386   27.0839 H   0  0  0  0  0  0  0  0  0  0  0  0
    2.6254   -5.5407   26.8994 H   0  0  0  0  0  0  0  0  0  0  0  0
    1.2502   -3.4794   26.5613 H   0  0  0  0  0  0  0  0  0  0  0  0
  1  2  1  0
  2  3  2  0
  3  4  1  0
  4  5  2  0
  5  6  1  0
  6  7  2  0
  7  8  1  0
  8  9  1  0
  9 10  2  0
 10 11  1  0
 11 12  2  0
 12 13  1  0
 13 14  1  0
 14 15  1  0
 15 16  1  0
 16 17  2  0
 17 18  1  0
 18 19  2  0
 19 20  1  0
 20 21  2  0
 21 22  1  0
 19 23  1  0
 18 24  1  0
 17 25  1  0
 15 26  1  0
 15 27  1  0
 14 28  1  0
 14 29  1  0
 12 30  1  0
  8 31  1  0
  6 32  1  0
  5 33  1  0
  4 34  1  0
  3 35  1  0
  7  2  1  0
 30  9  1  0
 21 16  1  0
M  END
>  <cnnaffinity>  (1) 
-5.25129

>  <filename>  (1) 
Clc1ccccc1Nc1nnc(SCCc2cccnc2)s1

$$$$
