
     RDKit          3D

 35 38  0  0  0  0  0  0  0  0999 V2000
    2.4259   -0.2228   30.1679 Cl  0  0  0  0  0  0  0  0  0  0  0  0
    3.7104   -0.6971   29.0976 C   0  0  0  0  0  0  0  0  0  0  0  0
    4.1882    0.2152   28.1522 C   0  0  0  0  0  0  0  0  0  0  0  0
    5.2181   -0.1772   27.2960 C   0  0  0  0  0  0  0  0  0  0  0  0
    5.7835   -1.4626   27.3691 C   0  0  0  0  0  0  0  0  0  0  0  0
    6.8724   -1.8627   26.4327 C   0  0  0  0  0  0  0  0  0  0  0  0
    7.9787   -2.6265   26.8494 C   0  0  0  0  0  0  0  0  0  0  0  0
    8.9869   -3.0006   26.0549 N   0  0  0  0  0  0  0  0  0  0  0  0
    8.9389   -2.6342   24.7715 C   0  0  0  0  0  0  0  0  0  0  0  0
    7.8876   -1.8761   24.2375 C   0  0  0  0  0  0  0  0  0  0  0  0
    7.8643   -1.4830   22.8304 C   0  0  0  0  0  0  0  0  0  0  0  0
    6.9434   -0.7811   22.2431 N   0  0  0  0  0  0  0  0  0  0  0  0
    7.4004   -0.7069   20.9535 C   0  0  0  0  0  0  0  0  0  0  0  0
    6.6592    0.0077   19.9101 C   0  0  0  0  0  0  0  0  0  0  0  0
    5.4374    0.6508   20.1699 C   0  0  0  0  0  0  0  0  0  0  0  0
    4.8093    1.3058   19.1132 C   0  0  0  0  0  0  0  0  0  0  0  0
    5.4073    1.2860   17.8477 C   0  0  0  0  0  0  0  0  0  0  0  0
    6.5700    0.6699   17.5926 N   0  0  0  0  0  0  0  0  0  0  0  0
    7.1799    0.0542   18.6085 C   0  0  0  0  0  0  0  0  0  0  0  0
    8.1248   -0.4283   18.3719 H   0  0  0  0  0  0  0  0  0  0  0  0
    4.9266    1.7749   17.0028 H   0  0  0  0  0  0  0  0  0  0  0  0
    3.8781    1.8402   19.2585 H   0  0  0  0  0  0  0  0  0  0  0  0
    5.0035    0.6332   21.1733 H   0  0  0  0  0  0  0  0  0  0  0  0
    8.5337   -1.3257   20.7516 N   0  0  0  0  0  0  0  0  0  0  0  0
    8.8469   -1.8459   22.0038 O   0  0  0  0  0  0  0  0  0  0  0  0
    6.8453   -1.4861   25.0874 C   0  0  0  0  0  0  0  0  0  0  0  0
    6.0057   -0.9078   24.6933 H   0  0  0  0  0  0  0  0  0  0  0  0
    9.7747   -2.9664   24.1621 H   0  0  0  0  0  0  0  0  0  0  0  0
    8.0632   -2.9406   27.8841 H   0  0  0  0  0  0  0  0  0  0  0  0
    5.2795   -2.3550   28.3287 C   0  0  0  0  0  0  0  0  0  0  0  0
    4.2483   -1.9833   29.1946 C   0  0  0  0  0  0  0  0  0  0  0  0
    3.8704   -2.6753   29.9408 H   0  0  0  0  0  0  0  0  0  0  0  0
    5.6869   -3.3600   28.3878 H   0  0  0  0  0  0  0  0  0  0  0  0
    5.6047    0.5253   26.5625 H   0  0  0  0  0  0  0  0  0  0  0  0
    3.7541    1.2081   28.0860 H   0  0  0  0  0  0  0  0  0  0  0  0
  1  2  1  0
  2  3  2  0
  3  4  1  0
  4  5  2  0
  5  6  1  0
  6  7  2  0
  7  8  1  0
  8  9  2  0
  9 10  1  0
 10 11  1  0
 11 12  2  0
 12 13  1  0
 13 14  1  0
 14 15  2  0
 15 16  1  0
 16 17  2  0
 17 18  1  0
 18 19  2  0
 19 20  1  0
 17 21  1  0
 16 22  1  0
 15 23  1  0
 13 24  2  0
 24 25  1  0
 10 26  2  0
 26 27  1  0
  9 28  1  0
  7 29  1  0
  5 30  1  0
 30 31  2  0
 31 32  1  0
 30 33  1  0
  4 34  1  0
  3 35  1  0
 31  2  1  0
 26  6  1  0
 25 11  1  0
 19 14  1  0
M  END
>  <cnnaffinity>  (1) 
-5.44522

>  <filename>  (1) 
Clc1ccc(-c2cncc(-c3nc(-c4cccnc4)no3)c2)cc1

$$$$
