
     RDKit          3D

 31 33  0  0  0  0  0  0  0  0999 V2000
    4.9307    1.7829   16.9927 H   0  0  0  0  0  0  0  0  0  0  0  0
    5.4031    1.2907   17.8366 C   0  0  0  0  0  0  0  0  0  0  0  0
    6.5652    0.6715   17.5827 N   0  0  0  0  0  0  0  0  0  0  0  0
    7.1681    0.0595   18.6028 C   0  0  0  0  0  0  0  0  0  0  0  0
    8.1159   -0.4247   18.3818 H   0  0  0  0  0  0  0  0  0  0  0  0
    6.6447    0.0130   19.9070 C   0  0  0  0  0  0  0  0  0  0  0  0
    7.4108   -0.7096   20.9147 C   0  0  0  0  0  0  0  0  0  0  0  0
    8.5571   -1.3156   20.7049 N   0  0  0  0  0  0  0  0  0  0  0  0
    8.9204   -1.8412   21.9065 C   0  0  0  0  0  0  0  0  0  0  0  0
    9.8180   -2.4262   22.0353 H   0  0  0  0  0  0  0  0  0  0  0  0
    7.9960   -1.5585   22.8796 C   0  0  0  0  0  0  0  0  0  0  0  0
    7.8868   -1.9715   24.3096 C   0  0  0  0  0  0  0  0  0  0  0  0
    7.6253   -1.1096   24.9409 H   0  0  0  0  0  0  0  0  0  0  0  0
    8.8736   -2.3163   24.6365 H   0  0  0  0  0  0  0  0  0  0  0  0
    6.8551   -3.0694   24.4925 C   0  0  0  0  0  0  0  0  0  0  0  0
    5.5358   -2.7414   24.8292 C   0  0  0  0  0  0  0  0  0  0  0  0
    5.2980   -1.6943   24.9872 H   0  0  0  0  0  0  0  0  0  0  0  0
    4.5417   -3.7115   24.9562 C   0  0  0  0  0  0  0  0  0  0  0  0
    3.5352   -3.4233   25.2398 H   0  0  0  0  0  0  0  0  0  0  0  0
    4.8614   -5.0505   24.7294 C   0  0  0  0  0  0  0  0  0  0  0  0
    4.1133   -5.8289   24.8404 H   0  0  0  0  0  0  0  0  0  0  0  0
    6.1574   -5.4001   24.3522 C   0  0  0  0  0  0  0  0  0  0  0  0
    6.4191   -6.4222   24.1377 H   0  0  0  0  0  0  0  0  0  0  0  0
    7.1396   -4.4167   24.2311 C   0  0  0  0  0  0  0  0  0  0  0  0
    8.7346   -4.9209   23.7425 Cl  0  0  0  0  0  0  0  0  0  0  0  0
    7.0299   -0.8343   22.2173 N   0  0  0  0  0  0  0  0  0  0  0  0
    6.1640   -0.4909   22.5891 H   0  0  0  0  0  0  0  0  0  0  0  0
    5.4216    0.6600   20.1610 C   0  0  0  0  0  0  0  0  0  0  0  0
    4.9722    0.6574   21.1592 H   0  0  0  0  0  0  0  0  0  0  0  0
    4.8018    1.3125   19.0998 C   0  0  0  0  0  0  0  0  0  0  0  0
    3.8716    1.8435   19.2521 H   0  0  0  0  0  0  0  0  0  0  0  0
  1  2  1  0
  2  3  2  0
  3  4  1  0
  4  5  1  0
  4  6  2  0
  6  7  1  0
  7  8  2  0
  8  9  1  0
  9 10  1  0
  9 11  2  0
 11 12  1  0
 12 13  1  0
 12 14  1  0
 12 15  1  0
 15 16  2  0
 16 17  1  0
 16 18  1  0
 18 19  1  0
 18 20  2  0
 20 21  1  0
 20 22  1  0
 22 23  1  0
 22 24  2  0
 24 25  1  0
 11 26  1  0
 26 27  1  0
  6 28  1  0
 28 29  1  0
 28 30  2  0
 30 31  1  0
 30  2  1  0
 26  7  1  0
 24 15  1  0
M  END
>  <cnnaffinity>  (1) 
-5.5275

>  <filename>  (1) 
Clc1ccccc1Cc1cnc(-c2cccnc2)[nH]1

$$$$
