
     RDKit          3D

 34 36  0  0  0  0  0  0  0  0999 V2000
    7.4730    1.1055   23.9535 H   0  0  0  0  0  0  0  0  0  0  0  0
    7.4538    0.9793   22.8659 C   0  0  0  0  0  0  0  0  0  0  0  0
    7.6120   -0.2459   22.3455 C   0  0  0  0  0  0  0  0  0  0  0  0
    7.3761   -0.7144   20.9644 C   0  0  0  0  0  0  0  0  0  0  0  0
    6.6404    0.0313   19.9096 C   0  0  0  0  0  0  0  0  0  0  0  0
    7.1581    0.0441   18.6080 C   0  0  0  0  0  0  0  0  0  0  0  0
    8.0970   -0.4582   18.3822 H   0  0  0  0  0  0  0  0  0  0  0  0
    6.5719    0.6735   17.5860 N   0  0  0  0  0  0  0  0  0  0  0  0
    5.4082    1.2980   17.8246 C   0  0  0  0  0  0  0  0  0  0  0  0
    4.9574    1.8028   16.9731 H   0  0  0  0  0  0  0  0  0  0  0  0
    4.7914    1.3186   19.0795 C   0  0  0  0  0  0  0  0  0  0  0  0
    3.8548    1.8485   19.2151 H   0  0  0  0  0  0  0  0  0  0  0  0
    5.4150    0.6701   20.1454 C   0  0  0  0  0  0  0  0  0  0  0  0
    4.9684    0.6832   21.1415 H   0  0  0  0  0  0  0  0  0  0  0  0
    7.7814   -1.9128   20.7393 N   0  0  0  0  0  0  0  0  0  0  0  0
    8.2937   -2.5053   21.9785 C   0  0  0  0  0  0  0  0  0  0  0  0
    7.7985   -3.4701   22.1461 H   0  0  0  0  0  0  0  0  0  0  0  0
    9.3640   -2.7109   21.8507 H   0  0  0  0  0  0  0  0  0  0  0  0
    8.0330   -1.4876   23.1265 C   0  0  0  0  0  0  0  0  0  0  0  0
    8.9090   -1.3199   23.7676 H   0  0  0  0  0  0  0  0  0  0  0  0
    7.2303   -1.8340   23.7946 H   0  0  0  0  0  0  0  0  0  0  0  0
    7.2721    2.1498   22.1546 N   0  0  0  0  0  0  0  0  0  0  0  0
    7.4562    2.1296   21.1623 H   0  0  0  0  0  0  0  0  0  0  0  0
    6.7004    3.3301   22.6542 C   0  0  0  0  0  0  0  0  0  0  0  0
    5.8874    3.3306   23.8049 C   0  0  0  0  0  0  0  0  0  0  0  0
    5.7038    2.3863   24.3079 H   0  0  0  0  0  0  0  0  0  0  0  0
    5.3152    4.5192   24.2826 C   0  0  0  0  0  0  0  0  0  0  0  0
    4.7199    4.5329   25.1956 H   0  0  0  0  0  0  0  0  0  0  0  0
    5.5293    5.7119   23.5830 C   0  0  0  0  0  0  0  0  0  0  0  0
    4.8545    7.2074   24.1760 Cl  0  0  0  0  0  0  0  0  0  0  0  0
    6.3181    5.7240   22.4288 C   0  0  0  0  0  0  0  0  0  0  0  0
    6.4727    6.6489   21.8787 H   0  0  0  0  0  0  0  0  0  0  0  0
    6.9294    4.5464   21.9929 C   0  0  0  0  0  0  0  0  0  0  0  0
    7.6590    4.6223   21.1969 H   0  0  0  0  0  0  0  0  0  0  0  0
  1  2  1  0
  2  3  2  3
  3  4  1  0
  4  5  1  0
  5  6  2  0
  6  7  1  0
  6  8  1  0
  8  9  2  0
  9 10  1  0
  9 11  1  0
 11 12  1  0
 11 13  2  0
 13 14  1  0
  4 15  2  0
 15 16  1  0
 16 17  1  0
 16 18  1  0
 16 19  1  0
 19 20  1  0
 19 21  1  0
  2 22  1  0
 22 23  1  0
 22 24  1  0
 24 25  2  0
 25 26  1  0
 25 27  1  0
 27 28  1  0
 27 29  2  0
 29 30  1  0
 29 31  1  0
 31 32  1  0
 31 33  2  0
 33 34  1  0
 19  3  1  0
 33 24  1  0
 13  5  1  0
M  END
>  <cnnaffinity>  (1) 
-4.94902

>  <filename>  (1) 
Clc1ccc(NC=C2CCN=C2c2cccnc2)cc1

$$$$
