
     RDKit          3D

 30 32  0  0  0  0  0  0  0  0999 V2000
    5.0529    1.8153   16.6663 H   0  0  0  0  0  0  0  0  0  0  0  0
    5.4270    1.2839   17.5386 C   0  0  0  0  0  0  0  0  0  0  0  0
    6.5521    0.5745   17.3615 N   0  0  0  0  0  0  0  0  0  0  0  0
    7.0717   -0.0218   18.4369 C   0  0  0  0  0  0  0  0  0  0  0  0
    7.9793   -0.5956   18.2747 H   0  0  0  0  0  0  0  0  0  0  0  0
    6.5234    0.0563   19.7317 C   0  0  0  0  0  0  0  0  0  0  0  0
    7.3137   -0.4476   20.8580 C   0  0  0  0  0  0  0  0  0  0  0  0
    8.6365   -0.7765   20.6547 N   0  0  0  0  0  0  0  0  0  0  0  0
    9.1061   -1.0942   21.8344 C   0  0  0  0  0  0  0  0  0  0  0  0
   10.1183   -1.3877   22.0802 H   0  0  0  0  0  0  0  0  0  0  0  0
    8.1335   -1.0263   22.7980 N   0  0  0  0  0  0  0  0  0  0  0  0
    8.2581   -1.2998   24.1562 N   0  0  0  0  0  0  0  0  0  0  0  0
    7.4697   -0.9017   24.6615 H   0  0  0  0  0  0  0  0  0  0  0  0
    8.5462   -2.6392   24.5553 C   0  0  0  0  0  0  0  0  0  0  0  0
    8.3154   -3.7318   23.7139 C   0  0  0  0  0  0  0  0  0  0  0  0
    7.8395   -3.5229   22.7600 H   0  0  0  0  0  0  0  0  0  0  0  0
    8.7121   -5.0121   24.1042 C   0  0  0  0  0  0  0  0  0  0  0  0
    8.6192   -5.8535   23.4263 H   0  0  0  0  0  0  0  0  0  0  0  0
    9.2791   -5.2047   25.3665 C   0  0  0  0  0  0  0  0  0  0  0  0
    9.7742   -6.8110   25.8124 Cl  0  0  0  0  0  0  0  0  0  0  0  0
    9.4521   -4.1302   26.2475 C   0  0  0  0  0  0  0  0  0  0  0  0
    9.8609   -4.3057   27.2394 H   0  0  0  0  0  0  0  0  0  0  0  0
    9.0837   -2.8442   25.8333 C   0  0  0  0  0  0  0  0  0  0  0  0
    9.2604   -1.9788   26.4652 H   0  0  0  0  0  0  0  0  0  0  0  0
    6.9851   -0.5890   22.1777 C   0  0  0  0  0  0  0  0  0  0  0  0
    6.0835   -0.3978   22.7385 H   0  0  0  0  0  0  0  0  0  0  0  0
    5.2905    0.7129   19.8726 C   0  0  0  0  0  0  0  0  0  0  0  0
    4.7653    0.7315   20.8268 H   0  0  0  0  0  0  0  0  0  0  0  0
    4.7506    1.3553   18.7596 C   0  0  0  0  0  0  0  0  0  0  0  0
    3.8369    1.9343   18.8296 H   0  0  0  0  0  0  0  0  0  0  0  0
  1  2  1  0
  2  3  2  0
  3  4  1  0
  4  5  1  0
  4  6  2  0
  6  7  1  0
  7  8  1  0
  8  9  2  0
  9 10  1  0
  9 11  1  0
 11 12  1  0
 12 13  1  0
 12 14  1  0
 14 15  2  0
 15 16  1  0
 15 17  1  0
 17 18  1  0
 17 19  2  0
 19 20  1  0
 19 21  1  0
 21 22  1  0
 21 23  2  0
 23 24  1  0
 11 25  1  0
 25 26  1  0
  6 27  1  0
 27 28  1  0
 27 29  2  0
 29 30  1  0
 29  2  1  0
 25  7  2  0
 23 14  1  0
M  END
>  <cnnaffinity>  (1) 
-4.72134

>  <filename>  (1) 
Clc1ccc(Nn2cnc(-c3cccnc3)c2)cc1

$$$$
