
     RDKit          3D

 24 25  0  0  0  0  0  0  0  0999 V2000
    4.9435    1.7958   16.9473 H   0  0  0  0  0  0  0  0  0  0  0  0
    5.4181    1.3137   17.8030 C   0  0  0  0  0  0  0  0  0  0  0  0
    6.5909    0.7033   17.5613 N   0  0  0  0  0  0  0  0  0  0  0  0
    7.1724    0.0600   18.5834 C   0  0  0  0  0  0  0  0  0  0  0  0
    8.1044   -0.4647   18.3739 H   0  0  0  0  0  0  0  0  0  0  0  0
    6.6380    0.0195   19.8858 C   0  0  0  0  0  0  0  0  0  0  0  0
    7.4772   -0.8611   21.2154 S   0  0  0  0  0  0  0  0  0  0  0  0
    8.6345    0.4847   22.1914 S   0  0  0  0  0  0  0  0  0  0  0  0
    7.5639    1.2185   23.3109 O   0  0  0  0  0  0  0  0  0  0  0  0
    6.8676    2.3848   22.8996 C   0  0  0  0  0  0  0  0  0  0  0  0
    7.2143    3.1779   21.8054 C   0  0  0  0  0  0  0  0  0  0  0  0
    8.0853    2.9563   21.2021 H   0  0  0  0  0  0  0  0  0  0  0  0
    6.4197    4.2945   21.5102 C   0  0  0  0  0  0  0  0  0  0  0  0
    6.6245    4.9201   20.6431 H   0  0  0  0  0  0  0  0  0  0  0  0
    5.3292    4.6315   22.3047 C   0  0  0  0  0  0  0  0  0  0  0  0
    4.7312    5.5022   22.0720 H   0  0  0  0  0  0  0  0  0  0  0  0
    5.0320    3.8452   23.4246 C   0  0  0  0  0  0  0  0  0  0  0  0
    3.6674    4.2412   24.4250 Cl  0  0  0  0  0  0  0  0  0  0  0  0
    5.8087    2.7292   23.7394 C   0  0  0  0  0  0  0  0  0  0  0  0
    5.6255    2.1131   24.6134 H   0  0  0  0  0  0  0  0  0  0  0  0
    5.4034    0.6375   20.1138 C   0  0  0  0  0  0  0  0  0  0  0  0
    4.9717    0.5869   21.1166 H   0  0  0  0  0  0  0  0  0  0  0  0
    4.7794    1.2957   19.0475 C   0  0  0  0  0  0  0  0  0  0  0  0
    3.8150    1.7775   19.1749 H   0  0  0  0  0  0  0  0  0  0  0  0
  1  2  1  0
  2  3  2  0
  3  4  1  0
  4  5  1  0
  4  6  2  0
  6  7  1  0
  7  8  1  0
  8  9  1  0
  9 10  1  0
 10 11  2  0
 11 12  1  0
 11 13  1  0
 13 14  1  0
 13 15  2  0
 15 16  1  0
 15 17  1  0
 17 18  1  0
 17 19  2  0
 19 20  1  0
  6 21  1  0
 21 22  1  0
 21 23  2  0
 23 24  1  0
 23  2  1  0
 19 10  1  0
M  END
>  <cnnaffinity>  (1) 
-4.67196

>  <filename>  (1) 
Clc1cccc(OSSc2cccnc2)c1

$$$$
