
     RDKit          3D

 43 46  0  0  0  0  0  0  0  0999 V2000
    8.9725    1.7780   31.3364 Cl  0  0  0  0  0  0  0  0  0  0  0  0
    8.3693    0.8665   29.9869 C   0  0  0  0  0  0  0  0  0  0  0  0
    9.2574    0.0941   29.2370 C   0  0  0  0  0  0  0  0  0  0  0  0
    8.8278   -0.5751   28.0940 C   0  0  0  0  0  0  0  0  0  0  0  0
    7.4589   -0.5981   27.7873 C   0  0  0  0  0  0  0  0  0  0  0  0
    6.9441   -1.4671   26.6708 C   0  0  0  0  0  0  0  0  0  0  0  0
    6.7725   -0.6311   25.4068 C   0  0  0  0  0  0  0  0  0  0  0  0
    8.1317   -0.0899   24.9611 N   0  0  0  0  0  4  0  0  0  0  0  0
    8.0287    1.1800   24.1172 C   0  0  0  0  0  0  0  0  0  0  0  0
    7.1891    0.9361   22.8534 C   0  0  0  0  0  0  0  0  0  0  0  0
    7.6843   -0.2484   22.1434 N   0  0  0  0  0  0  0  0  0  0  0  0
    8.4093   -1.2541   22.7268 C   0  0  0  0  0  0  0  0  0  0  0  0
    8.6092   -2.2306   21.8903 N   0  0  0  0  0  0  0  0  0  0  0  0
    7.9923   -1.8759   20.7106 N   0  0  0  0  0  0  0  0  0  0  0  0
    7.4263   -0.7098   20.8799 C   0  0  0  0  0  0  0  0  0  0  0  0
    6.6467    0.0258   19.8768 C   0  0  0  0  0  0  0  0  0  0  0  0
    5.4279    0.6784   20.1271 C   0  0  0  0  0  0  0  0  0  0  0  0
    4.7971    1.3316   19.0700 C   0  0  0  0  0  0  0  0  0  0  0  0
    5.4047    1.3196   17.8104 C   0  0  0  0  0  0  0  0  0  0  0  0
    6.5593    0.6846   17.5568 N   0  0  0  0  0  0  0  0  0  0  0  0
    7.1506    0.0489   18.5687 C   0  0  0  0  0  0  0  0  0  0  0  0
    8.0809   -0.4684   18.3388 H   0  0  0  0  0  0  0  0  0  0  0  0
    4.9436    1.8356   16.9701 H   0  0  0  0  0  0  0  0  0  0  0  0
    3.8586    1.8570   19.2057 H   0  0  0  0  0  0  0  0  0  0  0  0
    4.9703    0.6710   21.1196 H   0  0  0  0  0  0  0  0  0  0  0  0
    8.9166   -1.1408   24.1429 C   0  0  0  0  0  0  0  0  0  0  0  0
    9.9746   -0.8647   24.1264 H   0  0  0  0  0  0  0  0  0  0  0  0
    8.8381   -2.1217   24.6141 H   0  0  0  0  0  0  0  0  0  0  0  0
    6.1445    0.7866   23.1542 H   0  0  0  0  0  0  0  0  0  0  0  0
    7.2402    1.8007   22.1912 H   0  0  0  0  0  0  0  0  0  0  0  0
    7.5890    1.9856   24.7127 H   0  0  0  0  0  0  0  0  0  0  0  0
    9.0440    1.4747   23.8341 H   0  0  0  0  0  0  0  0  0  0  0  0
    8.6412    0.1494   25.8417 H   0  0  0  0  0  0  0  0  0  0  0  0
    6.1124    0.2207   25.6158 H   0  0  0  0  0  0  0  0  0  0  0  0
    6.3247   -1.2050   24.5880 H   0  0  0  0  0  0  0  0  0  0  0  0
    5.9841   -1.9121   26.9467 H   0  0  0  0  0  0  0  0  0  0  0  0
    7.6409   -2.2993   26.4843 H   0  0  0  0  0  0  0  0  0  0  0  0
    6.5773    0.2042   28.5345 C   0  0  0  0  0  0  0  0  0  0  0  0
    7.0153    0.9354   29.6460 C   0  0  0  0  0  0  0  0  0  0  0  0
    6.3351    1.5417   30.2348 H   0  0  0  0  0  0  0  0  0  0  0  0
    5.5269    0.2284   28.2602 H   0  0  0  0  0  0  0  0  0  0  0  0
    9.5501   -1.1237   27.4860 H   0  0  0  0  0  0  0  0  0  0  0  0
   10.3167    0.1672   29.4503 H   0  0  0  0  0  0  0  0  0  0  0  0
  1  2  1  0
  2  3  2  0
  3  4  1  0
  4  5  2  0
  5  6  1  0
  6  7  1  0
  7  8  1  0
  8  9  1  0
  9 10  1  0
 10 11  1  0
 11 12  1  0
 12 13  2  0
 13 14  1  0
 14 15  2  0
 15 16  1  0
 16 17  2  0
 17 18  1  0
 18 19  2  0
 19 20  1  0
 20 21  2  0
 21 22  1  0
 19 23  1  0
 18 24  1  0
 17 25  1  0
 12 26  1  0
 26 27  1  0
 26 28  1  0
 10 29  1  0
 10 30  1  0
  9 31  1  0
  9 32  1  0
  8 33  1  0
  7 34  1  0
  7 35  1  0
  6 36  1  0
  6 37  1  0
  5 38  1  0
 38 39  2  0
 39 40  1  0
 38 41  1  0
  4 42  1  0
  3 43  1  0
 39  2  1  0
 26  8  1  0
 15 11  1  0
 21 16  1  0
M  CHG  1   8   1
M  END
>  <cnnaffinity>  (1) 
-5.02961

>  <filename>  (1) 
Clc1ccc(CC[NH+]2CCn3c(nnc3-c3cccnc3)C2)cc1

$$$$
