
     RDKit          3D

 31 33  0  0  0  0  0  0  0  0999 V2000
    5.1256    1.8857   16.7929 H   0  0  0  0  0  0  0  0  0  0  0  0
    5.5171    1.3383   17.6486 C   0  0  0  0  0  0  0  0  0  0  0  0
    6.6531    0.6536   17.4442 N   0  0  0  0  0  0  0  0  0  0  0  0
    7.1523   -0.0180   18.4894 C   0  0  0  0  0  0  0  0  0  0  0  0
    8.0737   -0.5630   18.2988 H   0  0  0  0  0  0  0  0  0  0  0  0
    6.5696   -0.0754   19.7692 C   0  0  0  0  0  0  0  0  0  0  0  0
    7.2105   -0.8873   20.8308 C   0  0  0  0  0  0  0  0  0  0  0  0
    6.2945   -1.6057   22.1067 S   0  0  0  0  0  0  0  0  0  0  0  0
    7.7063   -2.1724   22.8961 C   0  0  0  0  0  0  0  0  0  0  0  0
    7.6294   -2.6983   23.8372 H   0  0  0  0  0  0  0  0  0  0  0  0
    8.8445   -1.8621   22.2141 C   0  0  0  0  0  0  0  0  0  0  0  0
   10.2557   -2.1187   22.7098 C   0  0  0  0  0  0  0  0  0  0  0  0
   10.8229   -2.6511   21.9355 H   0  0  0  0  0  0  0  0  0  0  0  0
   10.2331   -2.7681   23.5946 H   0  0  0  0  0  0  0  0  0  0  0  0
   10.9700   -0.8235   23.0676 C   0  0  0  0  0  0  0  0  0  0  0  0
   11.6972   -0.1024   22.1019 C   0  0  0  0  0  0  0  0  0  0  0  0
   11.7125   -0.4611   21.0729 H   0  0  0  0  0  0  0  0  0  0  0  0
   12.3962    1.0575   22.4413 C   0  0  0  0  0  0  0  0  0  0  0  0
   12.9749    1.5908   21.6898 H   0  0  0  0  0  0  0  0  0  0  0  0
   12.3166    1.5637   23.7415 C   0  0  0  0  0  0  0  0  0  0  0  0
   12.8490    2.4747   23.9957 H   0  0  0  0  0  0  0  0  0  0  0  0
   11.5298    0.9208   24.7022 C   0  0  0  0  0  0  0  0  0  0  0  0
   11.3799    1.3186   25.7031 H   0  0  0  0  0  0  0  0  0  0  0  0
   10.8695   -0.2590   24.3525 C   0  0  0  0  0  0  0  0  0  0  0  0
    9.8402   -0.9831   25.5597 Cl  0  0  0  0  0  0  0  0  0  0  0  0
    8.5375   -1.1601   21.0010 C   0  0  0  0  0  0  0  0  0  0  0  0
    9.2932   -0.8921   20.2688 H   0  0  0  0  0  0  0  0  0  0  0  0
    5.3898    0.6728   19.9641 C   0  0  0  0  0  0  0  0  0  0  0  0
    4.9115    0.7110   20.9436 H   0  0  0  0  0  0  0  0  0  0  0  0
    4.8590    1.3776   18.8829 C   0  0  0  0  0  0  0  0  0  0  0  0
    3.9532    1.9654   18.9874 H   0  0  0  0  0  0  0  0  0  0  0  0
  1  2  1  0
  2  3  2  0
  3  4  1  0
  4  5  1  0
  4  6  2  0
  6  7  1  0
  7  8  1  0
  8  9  1  0
  9 10  1  0
  9 11  2  0
 11 12  1  0
 12 13  1  0
 12 14  1  0
 12 15  1  0
 15 16  2  0
 16 17  1  0
 16 18  1  0
 18 19  1  0
 18 20  2  0
 20 21  1  0
 20 22  1  0
 22 23  1  0
 22 24  2  0
 24 25  1  0
 11 26  1  0
 26 27  1  0
  6 28  1  0
 28 29  1  0
 28 30  2  0
 30 31  1  0
 30  2  1  0
 26  7  2  0
 24 15  1  0
M  END
>  <cnnaffinity>  (1) 
-5.09584

>  <filename>  (1) 
Clc1ccccc1Cc1csc(-c2cccnc2)c1

$$$$
