
     RDKit          3D

 28 30  0  0  0  0  0  0  0  0999 V2000
    5.0666    1.7494   16.9597 H   0  0  0  0  0  0  0  0  0  0  0  0
    5.4949    1.2579   17.8328 C   0  0  0  0  0  0  0  0  0  0  0  0
    6.6539    0.6101   17.6303 N   0  0  0  0  0  0  0  0  0  0  0  0
    7.2128    0.0056   18.6889 C   0  0  0  0  0  0  0  0  0  0  0  0
    8.1442   -0.5295   18.4990 H   0  0  0  0  0  0  0  0  0  0  0  0
    6.6618   -0.0030   19.9839 C   0  0  0  0  0  0  0  0  0  0  0  0
    7.3484   -0.6891   21.0996 C   0  0  0  0  0  0  0  0  0  0  0  0
    8.6517   -0.6215   21.5692 C   0  0  0  0  0  0  0  0  0  0  0  0
    9.6788    0.4111   21.1860 C   0  0  0  0  0  0  0  0  0  0  0  0
    9.6808    0.4743   20.0926 H   0  0  0  0  0  0  0  0  0  0  0  0
   10.6886    0.1203   21.4895 H   0  0  0  0  0  0  0  0  0  0  0  0
    9.3334    1.7556   21.7556 C   0  0  0  0  0  0  0  0  0  0  0  0
    9.8856    2.2984   23.3043 S   0  0  0  0  0  0  0  0  0  0  0  0
    8.9280    3.7362   23.1748 C   0  0  0  0  0  0  0  0  0  0  0  0
    8.9688    4.9483   24.3906 Cl  0  0  0  0  0  0  0  0  0  0  0  0
    8.1976    3.7846   22.0262 C   0  0  0  0  0  0  0  0  0  0  0  0
    7.5408    4.6116   21.7691 H   0  0  0  0  0  0  0  0  0  0  0  0
    8.4604    2.6440   21.2127 C   0  0  0  0  0  0  0  0  0  0  0  0
    8.0521    2.4285   20.2327 H   0  0  0  0  0  0  0  0  0  0  0  0
    8.7180   -1.5963   22.5859 C   0  0  0  0  0  0  0  0  0  0  0  0
    9.5783   -1.8599   23.1894 H   0  0  0  0  0  0  0  0  0  0  0  0
    7.5522   -2.2066   22.7661 N   0  0  0  0  0  0  0  0  0  0  0  0
    6.7408   -1.6314   21.8688 N   0  0  0  0  0  0  0  0  0  0  0  0
    5.7578   -1.8677   21.8554 H   0  0  0  0  0  0  0  0  0  0  0  0
    5.4353    0.6614   20.1649 C   0  0  0  0  0  0  0  0  0  0  0  0
    4.9899    0.6930   21.1603 H   0  0  0  0  0  0  0  0  0  0  0  0
    4.8461    1.3034   19.0731 C   0  0  0  0  0  0  0  0  0  0  0  0
    3.9120    1.8487   19.1757 H   0  0  0  0  0  0  0  0  0  0  0  0
  1  2  1  0
  2  3  2  0
  3  4  1  0
  4  5  1  0
  4  6  2  0
  6  7  1  0
  7  8  2  0
  8  9  1  0
  9 10  1  0
  9 11  1  0
  9 12  1  0
 12 13  1  0
 13 14  1  0
 14 15  1  0
 14 16  2  0
 16 17  1  0
 16 18  1  0
 18 19  1  0
  8 20  1  0
 20 21  1  0
 20 22  2  0
 22 23  1  0
 23 24  1  0
  6 25  1  0
 25 26  1  0
 25 27  2  0
 27 28  1  0
 27  2  1  0
 23  7  1  0
 18 12  2  0
M  END
>  <cnnaffinity>  (1) 
-5.41109

>  <filename>  (1) 
Clc1ccc(Cc2cn[nH]c2-c2cccnc2)s1

$$$$
