
     RDKit          3D

 32 34  0  0  0  0  0  0  0  0999 V2000
    5.8351   -1.3744   22.1741 H   0  0  0  0  0  0  0  0  0  0  0  0
    6.8914   -1.2104   22.0207 C   0  0  0  0  0  0  0  0  0  0  0  0
    7.4331   -0.6493   20.9337 C   0  0  0  0  0  0  0  0  0  0  0  0
    6.6873    0.0418   19.8580 C   0  0  0  0  0  0  0  0  0  0  0  0
    7.1726    0.0916   18.5356 C   0  0  0  0  0  0  0  0  0  0  0  0
    8.1177   -0.3942   18.2852 H   0  0  0  0  0  0  0  0  0  0  0  0
    6.5533    0.6968   17.5140 N   0  0  0  0  0  0  0  0  0  0  0  0
    5.3924    1.3167   17.7800 C   0  0  0  0  0  0  0  0  0  0  0  0
    4.9205    1.8308   16.9457 H   0  0  0  0  0  0  0  0  0  0  0  0
    4.8009    1.3253   19.0456 C   0  0  0  0  0  0  0  0  0  0  0  0
    3.8602    1.8454   19.1937 H   0  0  0  0  0  0  0  0  0  0  0  0
    5.4493    0.6797   20.0977 C   0  0  0  0  0  0  0  0  0  0  0  0
    5.0219    0.7029   21.1014 H   0  0  0  0  0  0  0  0  0  0  0  0
    8.9398   -0.8949   20.9234 C   0  0  0  0  0  0  0  0  0  0  0  0
    9.5034    0.0255   20.7387 H   0  0  0  0  0  0  0  0  0  0  0  0
    9.2104   -1.5882   20.1158 H   0  0  0  0  0  0  0  0  0  0  0  0
    9.2495   -1.5070   22.3220 C   0  0  0  0  0  0  0  0  0  0  0  0
    9.7630   -0.7723   22.9522 H   0  0  0  0  0  0  0  0  0  0  0  0
    9.9020   -2.3868   22.2643 H   0  0  0  0  0  0  0  0  0  0  0  0
    7.8689   -1.8778   22.9555 C   0  0  2  0  0  0  0  0  0  0  0  0
    7.7691   -1.4614   23.9642 H   0  0  0  0  0  0  0  0  0  0  0  0
    7.6124   -3.3832   23.0510 C   0  0  0  0  0  0  0  0  0  0  0  0
    7.4341   -4.1056   21.8581 C   0  0  0  0  0  0  0  0  0  0  0  0
    7.4178   -3.5403   20.9335 H   0  0  0  0  0  0  0  0  0  0  0  0
    7.2423   -5.4805   21.8452 C   0  0  0  0  0  0  0  0  0  0  0  0
    7.1193   -6.0097   20.9047 H   0  0  0  0  0  0  0  0  0  0  0  0
    7.2049   -6.1699   23.0564 C   0  0  0  0  0  0  0  0  0  0  0  0
    7.0449   -7.2369   23.0362 H   0  0  0  0  0  0  0  0  0  0  0  0
    7.3658   -5.4928   24.2669 C   0  0  0  0  0  0  0  0  0  0  0  0
    7.3398   -6.0119   25.2221 H   0  0  0  0  0  0  0  0  0  0  0  0
    7.5644   -4.1088   24.2534 C   0  0  0  0  0  0  0  0  0  0  0  0
    7.7480   -3.3166   25.7976 Cl  0  0  0  0  0  0  0  0  0  0  0  0
  1  2  1  0
  2  3  2  0
  3  4  1  0
  4  5  2  0
  5  6  1  0
  5  7  1  0
  7  8  2  0
  8  9  1  0
  8 10  1  0
 10 11  1  0
 10 12  2  0
 12 13  1  0
  3 14  1  0
 14 15  1  0
 14 16  1  0
 14 17  1  0
 17 18  1  0
 17 19  1  0
 17 20  1  0
 20 21  1  1
 20 22  1  0
 22 23  2  0
 23 24  1  0
 23 25  1  0
 25 26  1  0
 25 27  2  0
 27 28  1  0
 27 29  1  0
 29 30  1  0
 29 31  2  0
 31 32  1  0
 20  2  1  0
 31 22  1  0
 12  4  1  0
M  END
>  <cnnaffinity>  (1) 
-5.34722

>  <filename>  (1) 
Clc1ccccc1[C@@H]1C=C(c2cccnc2)CC1

$$$$
