
     RDKit          3D

 28 30  0  0  0  0  0  0  0  0999 V2000
    4.9341    1.8028   16.9846 H   0  0  0  0  0  0  0  0  0  0  0  0
    5.4056    1.3030   17.8304 C   0  0  0  0  0  0  0  0  0  0  0  0
    6.5692    0.6807   17.5794 N   0  0  0  0  0  0  0  0  0  0  0  0
    7.1711    0.0614   18.6057 C   0  0  0  0  0  0  0  0  0  0  0  0
    8.1119   -0.4316   18.3532 H   0  0  0  0  0  0  0  0  0  0  0  0
    6.6638    0.0137   19.9198 C   0  0  0  0  0  0  0  0  0  0  0  0
    7.4029   -0.6808   21.0423 C   0  0  0  0  0  0  0  0  0  0  0  0
    8.4892    0.1444   21.7523 C   0  0  0  0  0  0  0  0  0  0  0  0
    8.9932   -0.4791   22.5005 H   0  0  0  0  0  0  0  0  0  0  0  0
    9.2406    0.4566   21.0140 H   0  0  0  0  0  0  0  0  0  0  0  0
    7.9336    1.3795   22.4007 C   0  0  0  0  0  0  0  0  0  0  0  0
    7.1498    1.3260   23.9432 S   0  0  0  0  0  0  0  0  0  0  0  0
    6.6854    2.9838   23.8144 C   0  0  0  0  0  0  0  0  0  0  0  0
    5.8085    3.7391   25.0898 Cl  0  0  0  0  0  0  0  0  0  0  0  0
    7.1087    3.5513   22.6500 C   0  0  0  0  0  0  0  0  0  0  0  0
    6.9047    4.5858   22.3936 H   0  0  0  0  0  0  0  0  0  0  0  0
    7.8346    2.6216   21.8459 C   0  0  0  0  0  0  0  0  0  0  0  0
    8.2806    2.8287   20.8773 H   0  0  0  0  0  0  0  0  0  0  0  0
    7.6392   -2.1515   20.8556 C   0  0  0  0  0  0  0  0  0  0  0  0
    8.6077   -2.5794   21.0963 H   0  0  0  0  0  0  0  0  0  0  0  0
    7.1498   -2.5705   19.9878 H   0  0  0  0  0  0  0  0  0  0  0  0
    6.6563   -1.6906   21.8883 C   0  0  0  0  0  0  0  0  0  0  0  0
    5.6129   -1.8615   21.6347 H   0  0  0  0  0  0  0  0  0  0  0  0
    6.8786   -1.7571   22.9518 H   0  0  0  0  0  0  0  0  0  0  0  0
    5.4437    0.6659   20.1460 C   0  0  0  0  0  0  0  0  0  0  0  0
    5.0132    0.6412   21.1492 H   0  0  0  0  0  0  0  0  0  0  0  0
    4.8044    1.3229   19.0930 C   0  0  0  0  0  0  0  0  0  0  0  0
    3.8636    1.8475   19.2355 H   0  0  0  0  0  0  0  0  0  0  0  0
  1  2  1  0
  2  3  2  0
  3  4  1  0
  4  5  1  0
  4  6  2  0
  6  7  1  0
  7  8  1  0
  8  9  1  0
  8 10  1  0
  8 11  1  0
 11 12  1  0
 12 13  1  0
 13 14  1  0
 13 15  2  0
 15 16  1  0
 15 17  1  0
 17 18  1  0
  7 19  1  0
 19 20  1  0
 19 21  1  0
 19 22  1  0
 22 23  1  0
 22 24  1  0
  6 25  1  0
 25 26  1  0
 25 27  2  0
 27 28  1  0
 27  2  1  0
 22  7  1  0
 17 11  2  0
M  END
>  <cnnaffinity>  (1) 
-4.61817

>  <filename>  (1) 
Clc1ccc(CC2(c3cccnc3)CC2)s1

$$$$
