
     RDKit          3D

 30 32  0  0  0  0  0  0  0  0999 V2000
    7.2575   -2.6246   23.5017 H   0  0  0  0  0  0  0  0  0  0  0  0
    7.5792   -1.9766   22.6948 C   0  0  0  0  0  0  0  0  0  0  0  0
    8.7741   -1.5675   22.4494 N   0  0  0  0  0  0  0  0  0  0  0  0
    8.6313   -0.7257   21.3584 C   0  0  0  0  0  0  0  0  0  0  0  0
    9.7719    0.0017   20.6981 C   0  0  0  0  0  0  0  0  0  0  0  0
    9.3410    0.8944   20.2331 H   0  0  0  0  0  0  0  0  0  0  0  0
   10.1361   -0.6319   19.8834 H   0  0  0  0  0  0  0  0  0  0  0  0
   10.9413    0.4136   21.5849 C   0  0  0  0  0  0  0  0  0  0  0  0
   10.9439    1.6648   22.2291 C   0  0  0  0  0  0  0  0  0  0  0  0
   10.1509    2.3746   22.0224 H   0  0  0  0  0  0  0  0  0  0  0  0
   11.9397    2.0428   23.1332 C   0  0  0  0  0  0  0  0  0  0  0  0
   11.8954    3.0073   23.6313 H   0  0  0  0  0  0  0  0  0  0  0  0
   12.9917    1.1690   23.3986 C   0  0  0  0  0  0  0  0  0  0  0  0
   13.7556    1.4329   24.1193 H   0  0  0  0  0  0  0  0  0  0  0  0
   13.0562   -0.0543   22.7400 C   0  0  0  0  0  0  0  0  0  0  0  0
   13.8689   -0.7491   22.9152 H   0  0  0  0  0  0  0  0  0  0  0  0
   12.0588   -0.4104   21.8277 C   0  0  0  0  0  0  0  0  0  0  0  0
   12.3290   -1.8941   20.9691 Cl  0  0  0  0  0  0  0  0  0  0  0  0
    7.3071   -0.7099   20.9773 C   0  0  0  0  0  0  0  0  0  0  0  0
    6.5671   -0.0281   19.9083 C   0  0  0  0  0  0  0  0  0  0  0  0
    7.1037    0.0190   18.6078 C   0  0  0  0  0  0  0  0  0  0  0  0
    8.0496   -0.4809   18.3835 H   0  0  0  0  0  0  0  0  0  0  0  0
    6.5352    0.6583   17.5763 N   0  0  0  0  0  0  0  0  0  0  0  0
    5.3867    1.3085   17.8148 C   0  0  0  0  0  0  0  0  0  0  0  0
    4.9609    1.8574   16.9768 H   0  0  0  0  0  0  0  0  0  0  0  0
    4.7513    1.3213   19.0582 C   0  0  0  0  0  0  0  0  0  0  0  0
    3.8307    1.8828   19.1851 H   0  0  0  0  0  0  0  0  0  0  0  0
    5.3437    0.6395   20.1219 C   0  0  0  0  0  0  0  0  0  0  0  0
    4.8905    0.6520   21.1099 H   0  0  0  0  0  0  0  0  0  0  0  0
    6.6316   -1.5057   21.8602 O   0  0  0  0  0  0  0  0  0  0  0  0
  1  2  1  0
  2  3  2  0
  3  4  1  0
  4  5  1  0
  5  6  1  0
  5  7  1  0
  5  8  1  0
  8  9  2  0
  9 10  1  0
  9 11  1  0
 11 12  1  0
 11 13  2  0
 13 14  1  0
 13 15  1  0
 15 16  1  0
 15 17  2  0
 17 18  1  0
  4 19  2  0
 19 20  1  0
 20 21  2  0
 21 22  1  0
 21 23  1  0
 23 24  2  0
 24 25  1  0
 24 26  1  0
 26 27  1  0
 26 28  2  0
 28 29  1  0
 19 30  1  0
 30  2  1  0
 17  8  1  0
 28 20  1  0
M  END
>  <cnnaffinity>  (1) 
-5.52621

>  <filename>  (1) 
Clc1ccccc1Cc1ncoc1-c1cccnc1

$$$$
