
     RDKit          3D

 44 48  0  0  0  0  0  0  0  0999 V2000
   12.2782    4.4630   22.0193 Cl  0  0  0  0  0  0  0  0  0  0  0  0
   11.7967    2.8061   22.1863 C   0  0  0  0  0  0  0  0  0  0  0  0
   10.5000    2.3888   21.9567 C   0  0  0  0  0  0  0  0  0  0  0  0
   10.1100    1.0378   22.2209 C   0  0  0  0  0  0  0  0  0  0  0  0
    8.6827    0.6710   22.2078 C   0  0  0  0  0  0  0  0  0  0  0  0
    8.2081   -0.3663   21.5430 N   0  0  0  0  0  0  0  0  0  0  0  0
    6.8690   -0.2318   21.6795 C   0  0  0  0  0  0  0  0  0  0  0  0
    5.9268   -1.0415   20.8434 C   0  0  0  0  0  0  0  0  0  0  0  0
    5.7037   -0.3656   19.4994 C   0  0  0  0  0  0  0  0  0  0  0  0
    4.8455    0.7404   19.4348 C   0  0  0  0  0  0  0  0  0  0  0  0
    4.7447    1.4404   18.2337 C   0  0  0  0  0  0  0  0  0  0  0  0
    5.5344    1.0284   17.1577 C   0  0  0  0  0  0  0  0  0  0  0  0
    6.3732   -0.0147   17.1999 N   0  0  0  0  0  0  0  0  0  0  0  0
    6.4468   -0.6901   18.3537 C   0  0  0  0  0  0  0  0  0  0  0  0
    7.1445   -1.5295   18.3777 H   0  0  0  0  0  0  0  0  0  0  0  0
    5.5059    1.5758   16.2220 H   0  0  0  0  0  0  0  0  0  0  0  0
    4.0899    2.2994   18.1276 H   0  0  0  0  0  0  0  0  0  0  0  0
    4.3058    1.0647   20.3291 H   0  0  0  0  0  0  0  0  0  0  0  0
    6.3485   -2.0436   20.7406 H   0  0  0  0  0  0  0  0  0  0  0  0
    4.9730   -1.1192   21.3574 H   0  0  0  0  0  0  0  0  0  0  0  0
    6.4860    0.7702   22.4400 N   0  0  0  0  0  0  0  0  0  0  0  0
    7.6606    1.3584   22.7904 N   0  0  0  0  0  0  0  0  0  0  0  0
    7.6116    2.5186   23.6864 C   0  0  0  0  0  0  0  0  0  0  0  0
    8.7308    2.5779   24.7530 C   0  0  0  0  0  0  0  0  0  0  0  0
    9.1764    4.0456   24.7134 C   0  0  0  0  0  0  0  0  0  0  0  0
    8.9541    4.4625   23.3820 O   0  0  0  0  0  0  0  0  0  0  0  0
    7.7199    3.9038   22.9820 C   0  0  0  0  0  0  0  0  0  0  0  0
    7.7069    3.8639   21.8883 H   0  0  0  0  0  0  0  0  0  0  0  0
    6.8971    4.5619   23.3046 H   0  0  0  0  0  0  0  0  0  0  0  0
    8.5668    4.6509   25.4046 H   0  0  0  0  0  0  0  0  0  0  0  0
   10.2339    4.2096   24.9476 H   0  0  0  0  0  0  0  0  0  0  0  0
    8.3809    2.2773   25.7431 H   0  0  0  0  0  0  0  0  0  0  0  0
    9.5587    1.9155   24.4931 H   0  0  0  0  0  0  0  0  0  0  0  0
    6.6329    2.4442   24.1596 H   0  0  0  0  0  0  0  0  0  0  0  0
   11.0517    0.0552   22.4924 C   0  0  0  0  0  0  0  0  0  0  0  0
   12.3963    0.4572   22.6531 C   0  0  0  0  0  0  0  0  0  0  0  0
   12.7417    1.8289   22.5750 C   0  0  0  0  0  0  0  0  0  0  0  0
   14.0574    1.9005   22.8944 N   0  0  0  0  0  0  0  0  0  0  0  0
   14.5985    0.6859   23.1072 N   0  0  0  0  0  0  0  0  0  0  0  0
   13.6328   -0.1882   22.9511 C   0  0  0  0  0  0  0  0  0  0  0  0
   13.8466   -1.2455   23.0006 H   0  0  0  0  0  0  0  0  0  0  0  0
   14.6329    2.7310   22.9620 H   0  0  0  0  0  0  0  0  0  0  0  0
   10.7401   -0.9800   22.6045 H   0  0  0  0  0  0  0  0  0  0  0  0
    9.7799    3.0895   21.5561 H   0  0  0  0  0  0  0  0  0  0  0  0
  1  2  1  0
  2  3  2  0
  3  4  1  0
  4  5  1  0
  5  6  2  0
  6  7  1  0
  7  8  1  0
  8  9  1  0
  9 10  2  0
 10 11  1  0
 11 12  2  0
 12 13  1  0
 13 14  2  0
 14 15  1  0
 12 16  1  0
 11 17  1  0
 10 18  1  0
  8 19  1  0
  8 20  1  0
  7 21  2  0
 21 22  1  0
 22 23  1  0
 23 24  1  0
 24 25  1  0
 25 26  1  0
 26 27  1  0
 27 28  1  0
 27 29  1  0
 25 30  1  0
 25 31  1  0
 24 32  1  0
 24 33  1  0
 23 34  1  0
  4 35  2  0
 35 36  1  0
 36 37  2  0
 37 38  1  0
 38 39  1  0
 39 40  2  0
 40 41  1  0
 38 42  1  0
 35 43  1  0
  3 44  1  0
 37  2  1  0
 22  5  1  0
 27 23  1  0
 40 36  1  0
 14  9  1  0
M  END
>  <cnnaffinity>  (1) 
-6.50701

>  <filename>  (1) 
Clc1cc(-c2nc(Cc3cccnc3)nn2C2CCOC2)cc2cn[nH]c12

$$$$
