
     RDKit          3D

 24 26  0  0  0  0  0  0  0  0999 V2000
    4.9164    1.7865   17.0002 H   0  0  0  0  0  0  0  0  0  0  0  0
    5.3981    1.2900   17.8409 C   0  0  0  0  0  0  0  0  0  0  0  0
    6.5537    0.6660   17.5749 N   0  0  0  0  0  0  0  0  0  0  0  0
    7.1916    0.0592   18.5830 C   0  0  0  0  0  0  0  0  0  0  0  0
    8.1392   -0.4182   18.3523 H   0  0  0  0  0  0  0  0  0  0  0  0
    6.6905    0.0252   19.8990 C   0  0  0  0  0  0  0  0  0  0  0  0
    7.2921   -0.6825   20.9526 O   0  0  0  0  0  0  0  0  0  0  0  0
    8.6225   -0.7782   21.0880 C   0  0  0  0  0  0  0  0  0  0  0  0
    9.5479   -0.0980   20.4733 N   0  0  0  0  0  0  0  0  0  0  0  0
   10.7239   -0.5578   20.9814 N   0  0  0  0  0  0  0  0  0  0  0  0
   10.5444   -1.4737   21.8449 N   0  0  0  0  0  0  0  0  0  0  0  0
    9.1936   -1.6576   21.9524 N   0  0  0  0  0  0  0  0  0  0  0  0
    8.6362   -2.6151   22.8167 C   0  0  0  0  0  0  0  0  0  0  0  0
    9.6525   -3.5432   23.8756 S   0  0  0  0  0  0  0  0  0  0  0  0
    8.2293   -4.3410   24.4854 C   0  0  0  0  0  0  0  0  0  0  0  0
    8.3301   -5.5489   25.6997 Cl  0  0  0  0  0  0  0  0  0  0  0  0
    7.0710   -3.9179   23.9108 C   0  0  0  0  0  0  0  0  0  0  0  0
    6.0892   -4.3015   24.1745 H   0  0  0  0  0  0  0  0  0  0  0  0
    7.3109   -2.9115   22.9366 C   0  0  0  0  0  0  0  0  0  0  0  0
    6.5418   -2.4188   22.3590 H   0  0  0  0  0  0  0  0  0  0  0  0
    5.4686    0.6425   20.1727 C   0  0  0  0  0  0  0  0  0  0  0  0
    5.0448    0.6056   21.1779 H   0  0  0  0  0  0  0  0  0  0  0  0
    4.8246    1.2991   19.1173 C   0  0  0  0  0  0  0  0  0  0  0  0
    3.8922    1.8265   19.2691 H   0  0  0  0  0  0  0  0  0  0  0  0
  1  2  1  0
  2  3  2  0
  3  4  1  0
  4  5  1  0
  4  6  2  0
  6  7  1  0
  7  8  1  0
  8  9  2  0
  9 10  1  0
 10 11  2  0
 11 12  1  0
 12 13  1  0
 13 14  1  0
 14 15  1  0
 15 16  1  0
 15 17  2  0
 17 18  1  0
 17 19  1  0
 19 20  1  0
  6 21  1  0
 21 22  1  0
 21 23  2  0
 23 24  1  0
 23  2  1  0
 12  8  1  0
 19 13  2  0
M  END
>  <cnnaffinity>  (1) 
-5.23673

>  <filename>  (1) 
Clc1ccc(-n2nnnc2Oc2cccnc2)s1

$$$$
