
     RDKit          3D

 37 39  0  0  0  0  0  0  0  0999 V2000
    9.9593    0.4713   25.1059 Cl  0  0  0  0  0  0  0  0  0  0  0  0
   10.6958    1.4127   23.8239 C   0  0  0  0  0  0  0  0  0  0  0  0
   11.9875    1.9155   23.9899 C   0  0  0  0  0  0  0  0  0  0  0  0
   12.6047    2.6351   22.9568 C   0  0  0  0  0  0  0  0  0  0  0  0
   11.9140    2.8791   21.7685 C   0  0  0  0  0  0  0  0  0  0  0  0
   12.6319    4.0366   20.4403 Br  0  0  0  0  0  0  0  0  0  0  0  0
   10.6298    2.3668   21.5946 C   0  0  0  0  0  0  0  0  0  0  0  0
   10.0038    1.6607   22.6284 C   0  0  0  0  0  0  0  0  0  0  0  0
    8.5927    1.1760   22.4600 C   0  0  0  0  0  0  0  0  0  0  0  0
    8.5754    0.0277   21.5315 N   0  0  0  0  0  4  0  0  0  0  0  0
    9.4165   -1.0896   21.9998 C   0  0  0  0  0  0  0  0  0  0  0  0
    8.8870   -2.2608   21.2054 C   0  0  0  0  0  0  0  0  0  0  0  0
    7.3848   -1.9861   21.0834 C   0  0  0  0  0  0  0  0  0  0  0  0
    7.2187   -0.4909   21.3498 C   0  0  0  0  0  0  0  0  0  0  0  0
    6.6130    0.2013   20.1703 C   0  0  0  0  0  0  0  0  0  0  0  0
    5.3741    0.8420   20.2542 C   0  0  0  0  0  0  0  0  0  0  0  0
    4.8524    1.3839   19.0825 C   0  0  0  0  0  0  0  0  0  0  0  0
    5.5728    1.2898   17.8847 C   0  0  0  0  0  0  0  0  0  0  0  0
    6.7674    0.6785   17.8095 N   0  0  0  0  0  0  0  0  0  0  0  0
    7.2710    0.1492   18.9373 C   0  0  0  0  0  0  0  0  0  0  0  0
    8.2242   -0.3656   18.8979 H   0  0  0  0  0  0  0  0  0  0  0  0
    5.1441    1.7158   16.9821 H   0  0  0  0  0  0  0  0  0  0  0  0
    3.8927    1.8872   19.0837 H   0  0  0  0  0  0  0  0  0  0  0  0
    4.8279    0.9086   21.1971 H   0  0  0  0  0  0  0  0  0  0  0  0
    6.6071   -0.3371   22.2491 H   0  0  0  0  0  0  0  0  0  0  0  0
    6.8255   -2.5415   21.8407 H   0  0  0  0  0  0  0  0  0  0  0  0
    6.9935   -2.2623   20.0966 H   0  0  0  0  0  0  0  0  0  0  0  0
    9.1016   -3.2152   21.6974 H   0  0  0  0  0  0  0  0  0  0  0  0
    9.3698   -2.2564   20.2239 H   0  0  0  0  0  0  0  0  0  0  0  0
   10.4871   -0.9429   21.8045 H   0  0  0  0  0  0  0  0  0  0  0  0
    9.2918   -1.2399   23.0790 H   0  0  0  0  0  0  0  0  0  0  0  0
    8.9064    0.3353   20.6168 H   0  0  0  0  0  0  0  0  0  0  0  0
    7.9647    1.9944   22.0898 H   0  0  0  0  0  0  0  0  0  0  0  0
    8.1796    0.8787   23.4331 H   0  0  0  0  0  0  0  0  0  0  0  0
   10.0987    2.5455   20.6678 H   0  0  0  0  0  0  0  0  0  0  0  0
   13.6148    3.0212   23.0619 H   0  0  0  0  0  0  0  0  0  0  0  0
   12.4966    1.7470   24.9331 H   0  0  0  0  0  0  0  0  0  0  0  0
  1  2  1  0
  2  3  2  0
  3  4  1  0
  4  5  2  0
  5  6  1  0
  5  7  1  0
  7  8  2  0
  8  9  1  0
  9 10  1  0
 10 11  1  0
 11 12  1  0
 12 13  1  0
 13 14  1  0
 14 15  1  0
 15 16  2  0
 16 17  1  0
 17 18  2  0
 18 19  1  0
 19 20  2  0
 20 21  1  0
 18 22  1  0
 17 23  1  0
 16 24  1  0
 14 25  1  0
 13 26  1  0
 13 27  1  0
 12 28  1  0
 12 29  1  0
 11 30  1  0
 11 31  1  0
 10 32  1  0
  9 33  1  0
  9 34  1  0
  7 35  1  0
  4 36  1  0
  3 37  1  0
  8  2  1  0
 14 10  1  0
 20 15  1  0
M  CHG  1  10   1
M  END
>  <cnnaffinity>  (1) 
-5.31795

>  <filename>  (1) 
Clc1ccc(Br)cc1C[NH+]1CCCC1c1cccnc1

$$$$
