
     RDKit          3D

 42 46  0  0  0  0  0  0  0  0999 V2000
   10.6927   -4.1529   24.9298 Cl  0  0  0  0  0  0  0  0  0  0  0  0
    9.4511   -4.5187   23.7433 C   0  0  0  0  0  0  0  0  0  0  0  0
    8.8889   -5.8039   23.8087 C   0  0  0  0  0  0  0  0  0  0  0  0
    7.9878   -6.2177   22.8250 C   0  0  0  0  0  0  0  0  0  0  0  0
    7.6546   -5.3620   21.7742 C   0  0  0  0  0  0  0  0  0  0  0  0
    8.1917   -4.0782   21.7385 C   0  0  0  0  0  0  0  0  0  0  0  0
    9.0920   -3.6211   22.7226 C   0  0  0  0  0  0  0  0  0  0  0  0
    9.6809   -2.2190   22.5643 C   0  0  0  0  0  0  0  0  0  0  0  0
    8.6557   -1.2083   22.2774 N   0  0  0  0  0  0  0  0  0  0  0  0
    8.4336   -0.7902   21.0106 N   0  0  0  0  0  0  0  0  0  0  0  0
    7.2521   -0.2012   21.0907 C   0  0  0  0  0  0  0  0  0  0  0  0
    6.5765    0.3507   19.9166 C   0  0  0  0  0  0  0  0  0  0  0  0
    5.3227    0.9810   19.9638 C   0  0  0  0  0  0  0  0  0  0  0  0
    4.7793    1.4430   18.7667 C   0  0  0  0  0  0  0  0  0  0  0  0
    5.5036    1.2632   17.5832 C   0  0  0  0  0  0  0  0  0  0  0  0
    6.6931    0.6485   17.5265 N   0  0  0  0  0  0  0  0  0  0  0  0
    7.2094    0.2077   18.6757 C   0  0  0  0  0  0  0  0  0  0  0  0
    8.1732   -0.2933   18.6176 H   0  0  0  0  0  0  0  0  0  0  0  0
    5.1200    1.6272   16.6342 H   0  0  0  0  0  0  0  0  0  0  0  0
    3.8207    1.9512   18.7251 H   0  0  0  0  0  0  0  0  0  0  0  0
    4.7905    1.1035   20.9092 H   0  0  0  0  0  0  0  0  0  0  0  0
    6.6876   -0.2410   22.3206 N   0  0  0  0  0  0  0  0  0  0  0  0
    7.5884   -0.8806   23.0459 C   0  0  0  0  0  0  0  0  0  0  0  0
    7.5195   -1.4061   24.4417 C   0  0  0  0  0  0  0  0  0  0  0  0
    8.4888   -1.1148   25.4139 C   0  0  0  0  0  0  0  0  0  0  0  0
    8.4603   -1.7520   26.6753 C   0  0  0  0  0  0  0  0  0  0  0  0
    7.5710   -2.6791   27.0485 N   0  0  0  0  0  0  0  0  0  0  0  0
    6.6608   -2.9563   26.1075 C   0  0  0  0  0  0  0  0  0  0  0  0
    6.5626   -2.3832   24.8174 C   0  0  0  0  0  0  0  0  0  0  0  0
    5.4536   -3.0628   24.2303 C   0  0  0  0  0  0  0  0  0  0  0  0
    4.9199   -3.9429   25.0592 N   0  0  0  0  0  0  0  0  0  0  0  0
    5.6570   -3.8550   26.1980 N   0  0  0  0  0  0  0  0  0  0  0  0
    5.5325   -4.4650   26.9906 H   0  0  0  0  0  0  0  0  0  0  0  0
    5.0416   -2.9361   23.2360 H   0  0  0  0  0  0  0  0  0  0  0  0
    9.2111   -1.5040   27.4156 H   0  0  0  0  0  0  0  0  0  0  0  0
    9.2822   -0.4050   25.2147 H   0  0  0  0  0  0  0  0  0  0  0  0
   10.3777   -2.1936   21.7229 H   0  0  0  0  0  0  0  0  0  0  0  0
   10.2153   -1.9292   23.4709 H   0  0  0  0  0  0  0  0  0  0  0  0
    7.9067   -3.3954   20.9418 H   0  0  0  0  0  0  0  0  0  0  0  0
    6.9916   -5.6941   20.9751 H   0  0  0  0  0  0  0  0  0  0  0  0
    7.5581   -7.2183   22.8495 H   0  0  0  0  0  0  0  0  0  0  0  0
    9.2134   -6.4938   24.5851 H   0  0  0  0  0  0  0  0  0  0  0  0
  1  2  1  0
  2  3  2  0
  3  4  1  0
  4  5  2  0
  5  6  1  0
  6  7  2  0
  7  8  1  0
  8  9  1  0
  9 10  1  0
 10 11  2  0
 11 12  1  0
 12 13  2  0
 13 14  1  0
 14 15  2  0
 15 16  1  0
 16 17  2  0
 17 18  1  0
 15 19  1  0
 14 20  1  0
 13 21  1  0
 11 22  1  0
 22 23  2  0
 23 24  1  0
 24 25  2  0
 25 26  1  0
 26 27  2  0
 27 28  1  0
 28 29  2  0
 29 30  1  0
 30 31  2  0
 31 32  1  0
 32 33  1  0
 30 34  1  0
 26 35  1  0
 25 36  1  0
  8 37  1  0
  8 38  1  0
  6 39  1  0
  5 40  1  0
  4 41  1  0
  3 42  1  0
  7  2  1  0
 23  9  1  0
 29 24  1  0
 17 12  1  0
 32 28  1  0
M  END
>  <cnnaffinity>  (1) 
-6.44397

>  <filename>  (1) 
Clc1ccccc1Cn1nc(-c2cccnc2)nc1-c1ccnc2[nH]ncc12

$$$$
