
     RDKit          3D

 31 34  0  0  0  0  0  0  0  0999 V2000
    9.5477   -6.7666   25.8827 Cl  0  0  0  0  0  0  0  0  0  0  0  0
    9.4028   -5.2844   24.9851 C   0  0  0  0  0  0  0  0  0  0  0  0
    8.1058   -4.7464   24.7559 C   0  0  0  0  0  0  0  0  0  0  0  0
    7.9634   -3.6070   23.9805 C   0  0  0  0  0  0  0  0  0  0  0  0
    9.1013   -2.9687   23.3912 C   0  0  0  0  0  0  0  0  0  0  0  0
    9.0829   -1.8254   22.5199 C   0  0  0  0  0  0  0  0  0  0  0  0
    7.9038   -1.1520   22.0236 C   0  0  0  0  0  0  0  0  0  0  0  0
    7.8071   -0.6395   20.8304 N   0  0  0  0  0  0  0  0  0  0  0  0
    6.5315   -0.1422   20.8334 C   0  0  0  0  0  0  0  0  0  0  0  0
    5.9553    0.4698   19.6435 C   0  0  0  0  0  0  0  0  0  0  0  0
    4.7457    1.1815   19.6057 C   0  0  0  0  0  0  0  0  0  0  0  0
    4.4002    1.7774   18.3940 C   0  0  0  0  0  0  0  0  0  0  0  0
    5.2400    1.6116   17.2849 C   0  0  0  0  0  0  0  0  0  0  0  0
    6.3598    0.8769   17.3021 N   0  0  0  0  0  0  0  0  0  0  0  0
    6.6976    0.3189   18.4647 C   0  0  0  0  0  0  0  0  0  0  0  0
    7.5963   -0.2914   18.4712 H   0  0  0  0  0  0  0  0  0  0  0  0
    4.9992    2.0753   16.3328 H   0  0  0  0  0  0  0  0  0  0  0  0
    3.5020    2.3751   18.2907 H   0  0  0  0  0  0  0  0  0  0  0  0
    4.1020    1.2615   20.4862 H   0  0  0  0  0  0  0  0  0  0  0  0
    5.8915   -0.3020   21.9515 N   0  0  0  0  0  0  0  0  0  0  0  0
    6.7947   -1.0034   22.7476 O   0  0  0  0  0  0  0  0  0  0  0  0
   10.2696   -1.3520   21.9877 C   0  0  0  0  0  0  0  0  0  0  0  0
   11.4764   -1.9081   22.2158 N   0  0  0  0  0  0  0  0  0  0  0  0
   11.4989   -2.9777   22.9786 C   0  0  0  0  0  0  0  0  0  0  0  0
   10.3784   -3.5461   23.6351 C   0  0  0  0  0  0  0  0  0  0  0  0
   10.5271   -4.6919   24.4754 C   0  0  0  0  0  0  0  0  0  0  0  0
   11.5204   -5.1146   24.6412 H   0  0  0  0  0  0  0  0  0  0  0  0
   12.4520   -3.4724   23.1182 H   0  0  0  0  0  0  0  0  0  0  0  0
   10.2791   -0.4567   21.3669 H   0  0  0  0  0  0  0  0  0  0  0  0
    6.9789   -3.2020   23.7846 H   0  0  0  0  0  0  0  0  0  0  0  0
    7.2518   -5.2581   25.2028 H   0  0  0  0  0  0  0  0  0  0  0  0
  1  2  1  0
  2  3  2  0
  3  4  1  0
  4  5  2  0
  5  6  1  0
  6  7  1  0
  7  8  2  0
  8  9  1  0
  9 10  1  0
 10 11  2  0
 11 12  1  0
 12 13  2  0
 13 14  1  0
 14 15  2  0
 15 16  1  0
 13 17  1  0
 12 18  1  0
 11 19  1  0
  9 20  2  0
 20 21  1  0
  6 22  2  0
 22 23  1  0
 23 24  2  0
 24 25  1  0
 25 26  2  0
 26 27  1  0
 24 28  1  0
 22 29  1  0
  4 30  1  0
  3 31  1  0
 26  2  1  0
 25  5  1  0
 21  7  1  0
 15 10  1  0
M  END
>  <cnnaffinity>  (1) 
-5.68216

>  <filename>  (1) 
Clc1ccc2c(-c3nc(-c4cccnc4)no3)cncc2c1

$$$$
