
     RDKit          3D

 27 28  0  0  0  0  0  0  0  0999 V2000
    8.3230   -1.2338   22.3666 H   0  0  0  0  0  0  0  0  0  0  0  0
    7.9733   -0.5466   21.5981 C   0  0  0  0  0  0  0  0  0  0  0  0
    6.8964   -0.9566   20.8387 C   0  0  0  0  0  0  0  0  0  0  0  0
    6.0368   -2.5998   21.2904 Br  0  0  0  0  0  0  0  0  0  0  0  0
    6.3755   -0.1646   19.7260 C   0  0  0  0  0  0  0  0  0  0  0  0
    7.1185    0.0240   18.5505 C   0  0  0  0  0  0  0  0  0  0  0  0
    8.0769   -0.4796   18.4485 H   0  0  0  0  0  0  0  0  0  0  0  0
    6.6974    0.7923   17.5256 N   0  0  0  0  0  0  0  0  0  0  0  0
    5.5140    1.4186   17.6534 C   0  0  0  0  0  0  0  0  0  0  0  0
    5.1757    2.0773   16.8583 H   0  0  0  0  0  0  0  0  0  0  0  0
    4.7175    1.2810   18.7987 C   0  0  0  0  0  0  0  0  0  0  0  0
    3.7789    1.8169   18.8611 H   0  0  0  0  0  0  0  0  0  0  0  0
    5.1375    0.4641   19.8458 C   0  0  0  0  0  0  0  0  0  0  0  0
    4.5444    0.3308   20.7495 H   0  0  0  0  0  0  0  0  0  0  0  0
    8.6286    0.6769   21.4039 N   0  0  0  0  0  0  0  0  0  0  0  0
    8.3021    1.2862   20.6541 H   0  0  0  0  0  0  0  0  0  0  0  0
    9.9060    0.9051   21.8970 C   0  0  0  0  0  0  0  0  0  0  0  0
   10.4747    0.0450   22.8370 C   0  0  0  0  0  0  0  0  0  0  0  0
    9.8659   -0.7502   23.2579 H   0  0  0  0  0  0  0  0  0  0  0  0
   11.8026    0.2134   23.2273 C   0  0  0  0  0  0  0  0  0  0  0  0
   12.2363   -0.4284   23.9743 H   0  0  0  0  0  0  0  0  0  0  0  0
   12.5728    1.2384   22.6878 C   0  0  0  0  0  0  0  0  0  0  0  0
   14.2449    1.3657   23.1224 Cl  0  0  0  0  0  0  0  0  0  0  0  0
   11.9846    2.1606   21.8280 C   0  0  0  0  0  0  0  0  0  0  0  0
   12.5803    3.0041   21.4997 H   0  0  0  0  0  0  0  0  0  0  0  0
   10.6504    1.9937   21.4302 C   0  0  0  0  0  0  0  0  0  0  0  0
   10.1995    2.7139   20.7632 H   0  0  0  0  0  0  0  0  0  0  0  0
  1  2  1  0
  2  3  2  3
  3  4  1  0
  3  5  1  0
  5  6  2  0
  6  7  1  0
  6  8  1  0
  8  9  2  0
  9 10  1  0
  9 11  1  0
 11 12  1  0
 11 13  2  0
 13 14  1  0
  2 15  1  0
 15 16  1  0
 15 17  1  0
 17 18  2  0
 18 19  1  0
 18 20  1  0
 20 21  1  0
 20 22  2  0
 22 23  1  0
 22 24  1  0
 24 25  1  0
 24 26  2  0
 26 27  1  0
 13  5  1  0
 26 17  1  0
M  END
>  <cnnaffinity>  (1) 
-4.81678

>  <filename>  (1) 
Clc1ccc(NC=C(Br)c2cccnc2)cc1

$$$$
