
     RDKit          3D

 42 46  0  0  0  0  0  0  0  0999 V2000
   14.6115    4.5112   23.0243 Cl  0  0  0  0  0  0  0  0  0  0  0  0
   13.1734    3.5736   22.7632 C   0  0  0  0  0  0  0  0  0  0  0  0
   13.2067    2.1793   22.8235 C   0  0  0  0  0  0  0  0  0  0  0  0
   12.0246    1.4406   22.6603 C   0  0  0  0  0  0  0  0  0  0  0  0
   10.8109    2.1226   22.4941 C   0  0  0  0  0  0  0  0  0  0  0  0
    9.5574    1.4349   22.4686 N   0  0  0  0  0  0  0  0  0  0  0  0
    9.2902    0.4063   21.6153 N   0  0  0  0  0  0  0  0  0  0  0  0
    7.9827    0.2712   21.7149 C   0  0  0  0  0  0  0  0  0  0  0  0
    7.2025   -0.7334   20.9087 C   0  0  0  0  0  0  0  0  0  0  0  0
    6.4545   -0.1346   19.7187 C   0  0  0  0  0  0  0  0  0  0  0  0
    5.2347    0.5346   19.8932 C   0  0  0  0  0  0  0  0  0  0  0  0
    4.7037    1.2653   18.8255 C   0  0  0  0  0  0  0  0  0  0  0  0
    5.3940    1.2729   17.6110 C   0  0  0  0  0  0  0  0  0  0  0  0
    6.5232    0.5786   17.3986 N   0  0  0  0  0  0  0  0  0  0  0  0
    7.0199   -0.1126   18.4314 C   0  0  0  0  0  0  0  0  0  0  0  0
    7.9357   -0.6743   18.2388 H   0  0  0  0  0  0  0  0  0  0  0  0
    5.0310    1.8616   16.7694 H   0  0  0  0  0  0  0  0  0  0  0  0
    3.7887    1.8397   18.9254 H   0  0  0  0  0  0  0  0  0  0  0  0
    4.7256    0.4947   20.8579 H   0  0  0  0  0  0  0  0  0  0  0  0
    7.8977   -1.5115   20.5741 H   0  0  0  0  0  0  0  0  0  0  0  0
    6.4947   -1.1835   21.6109 H   0  0  0  0  0  0  0  0  0  0  0  0
    7.3815    1.1312   22.5766 N   0  0  0  0  0  0  0  0  0  0  0  0
    8.3883    1.8327   23.0611 C   0  0  0  0  0  0  0  0  0  0  0  0
    8.2641    2.9031   24.0369 C   0  0  0  0  0  0  0  0  0  0  0  0
    9.2071    3.1788   25.0204 C   0  0  0  0  0  0  0  0  0  0  0  0
    9.1872    4.2675   25.8187 N   0  0  0  0  0  0  0  0  0  0  0  0
    8.1811    5.1426   25.7060 C   0  0  0  0  0  0  0  0  0  0  0  0
    7.1148    4.9379   24.7988 C   0  0  0  0  0  0  0  0  0  0  0  0
    7.1803    3.7894   23.9963 C   0  0  0  0  0  0  0  0  0  0  0  0
    6.0614    3.8005   23.2366 N   0  0  0  0  0  0  0  0  0  0  0  0
    5.3485    4.9150   23.5906 C   0  0  0  0  0  0  0  0  0  0  0  0
    5.9327    5.6296   24.5118 N   0  0  0  0  0  0  0  0  0  0  0  0
    4.3907    5.1423   23.1339 H   0  0  0  0  0  0  0  0  0  0  0  0
    5.8161    3.0409   22.6242 H   0  0  0  0  0  0  0  0  0  0  0  0
    8.2090    6.0194   26.3529 H   0  0  0  0  0  0  0  0  0  0  0  0
   10.0582    2.5222   25.1715 H   0  0  0  0  0  0  0  0  0  0  0  0
   10.8037    3.5217   22.3936 C   0  0  0  0  0  0  0  0  0  0  0  0
   11.9823    4.2503   22.5109 C   0  0  0  0  0  0  0  0  0  0  0  0
   11.9947    5.3244   22.3804 H   0  0  0  0  0  0  0  0  0  0  0  0
    9.8621    4.0457   22.2582 H   0  0  0  0  0  0  0  0  0  0  0  0
   12.0475    0.3540   22.6507 H   0  0  0  0  0  0  0  0  0  0  0  0
   14.1605    1.6932   22.9963 H   0  0  0  0  0  0  0  0  0  0  0  0
  1  2  1  0
  2  3  2  0
  3  4  1  0
  4  5  2  0
  5  6  1  0
  6  7  1  0
  7  8  2  0
  8  9  1  0
  9 10  1  0
 10 11  2  0
 11 12  1  0
 12 13  2  0
 13 14  1  0
 14 15  2  0
 15 16  1  0
 13 17  1  0
 12 18  1  0
 11 19  1  0
  9 20  1  0
  9 21  1  0
  8 22  1  0
 22 23  2  0
 23 24  1  0
 24 25  2  0
 25 26  1  0
 26 27  2  0
 27 28  1  0
 28 29  2  0
 29 30  1  0
 30 31  1  0
 31 32  2  0
 31 33  1  0
 30 34  1  0
 27 35  1  0
 25 36  1  0
  5 37  1  0
 37 38  2  0
 38 39  1  0
 37 40  1  0
  4 41  1  0
  3 42  1  0
 38  2  1  0
 23  6  1  0
 29 24  1  0
 15 10  1  0
 32 28  1  0
M  END
>  <cnnaffinity>  (1) 
-5.97179

>  <filename>  (1) 
Clc1ccc(-n2nc(Cc3cccnc3)nc2-c2cncc3nc[nH]c23)cc1

$$$$
