
     RDKit          3D

 37 40  0  0  0  0  0  0  0  0999 V2000
    4.9147    1.8280   16.9693 H   0  0  0  0  0  0  0  0  0  0  0  0
    5.3930    1.3146   17.8005 C   0  0  0  0  0  0  0  0  0  0  0  0
    6.5498    0.6972   17.5243 N   0  0  0  0  0  0  0  0  0  0  0  0
    7.1696    0.0749   18.5353 C   0  0  0  0  0  0  0  0  0  0  0  0
    8.1131   -0.4109   18.2843 H   0  0  0  0  0  0  0  0  0  0  0  0
    6.6888    0.0171   19.8574 C   0  0  0  0  0  0  0  0  0  0  0  0
    7.4523   -0.7048   20.9532 C   0  0  1  0  0  0  0  0  0  0  0  0
    8.3860   -1.0951   20.5286 H   0  0  0  0  0  0  0  0  0  0  0  0
    7.8393    0.2323   22.1520 C   0  0  0  0  0  0  0  0  0  0  0  0
    8.9248    0.3366   22.2305 H   0  0  0  0  0  0  0  0  0  0  0  0
    7.4316    1.2423   22.0662 H   0  0  0  0  0  0  0  0  0  0  0  0
    7.2684   -0.4604   23.3480 C   0  0  0  0  0  0  0  0  0  0  0  0
    7.2347   -0.1783   24.6368 N   0  0  0  0  0  0  0  0  0  0  0  0
    6.5730   -1.2605   25.1529 N   0  0  0  0  0  0  0  0  0  0  0  0
    6.5485   -1.4257   26.1484 H   0  0  0  0  0  0  0  0  0  0  0  0
    6.2179   -2.1755   24.2072 C   0  0  0  0  0  0  0  0  0  0  0  0
    5.5326   -3.3331   24.5142 N   0  0  0  0  0  0  0  0  0  0  0  0
    5.0485   -3.7255   23.7228 H   0  0  0  0  0  0  0  0  0  0  0  0
    5.8783   -4.2431   25.5281 C   0  0  0  0  0  0  0  0  0  0  0  0
    4.8820   -5.1172   25.9669 C   0  0  0  0  0  0  0  0  0  0  0  0
    3.9259   -5.0830   25.4537 H   0  0  0  0  0  0  0  0  0  0  0  0
    5.1089   -5.9702   27.0475 C   0  0  0  0  0  0  0  0  0  0  0  0
    4.3237   -6.6203   27.4165 H   0  0  0  0  0  0  0  0  0  0  0  0
    6.3626   -5.9696   27.6669 C   0  0  0  0  0  0  0  0  0  0  0  0
    6.6414   -6.9897   29.0463 Cl  0  0  0  0  0  0  0  0  0  0  0  0
    7.3872   -5.1432   27.2026 C   0  0  0  0  0  0  0  0  0  0  0  0
    8.3553   -5.1620   27.6929 H   0  0  0  0  0  0  0  0  0  0  0  0
    7.1494   -4.2925   26.1186 C   0  0  0  0  0  0  0  0  0  0  0  0
    7.9424   -3.6733   25.7077 H   0  0  0  0  0  0  0  0  0  0  0  0
    6.6576   -1.6690   23.0133 C   0  0  0  0  0  0  0  0  0  0  0  0
    6.6628   -1.9274   21.5464 C   0  0  0  0  0  0  0  0  0  0  0  0
    5.6365   -1.9784   21.1624 H   0  0  0  0  0  0  0  0  0  0  0  0
    7.1417   -2.8738   21.2609 H   0  0  0  0  0  0  0  0  0  0  0  0
    5.4646    0.6587   20.1116 C   0  0  0  0  0  0  0  0  0  0  0  0
    5.0321    0.6593   21.1131 H   0  0  0  0  0  0  0  0  0  0  0  0
    4.8073    1.3173   19.0697 C   0  0  0  0  0  0  0  0  0  0  0  0
    3.8714    1.8402   19.2230 H   0  0  0  0  0  0  0  0  0  0  0  0
  1  2  1  0
  2  3  2  0
  3  4  1  0
  4  5  1  0
  4  6  2  0
  6  7  1  0
  7  8  1  6
  7  9  1  0
  9 10  1  0
  9 11  1  0
  9 12  1  0
 12 13  2  0
 13 14  1  0
 14 15  1  0
 14 16  1  0
 16 17  1  0
 17 18  1  0
 17 19  1  0
 19 20  2  0
 20 21  1  0
 20 22  1  0
 22 23  1  0
 22 24  2  0
 24 25  1  0
 24 26  1  0
 26 27  1  0
 26 28  2  0
 28 29  1  0
 16 30  2  0
 30 31  1  0
 31 32  1  0
 31 33  1  0
  6 34  1  0
 34 35  1  0
 34 36  2  0
 36 37  1  0
 36  2  1  0
 31  7  1  0
 30 12  1  0
 28 19  1  0
M  END
>  <cnnaffinity>  (1) 
-5.32843

>  <filename>  (1) 
Clc1ccc(Nc2[nH]nc3c2C[C@@H](c2cccnc2)C3)cc1

$$$$
