
     RDKit          3D

 33 35  0  0  0  0  0  0  0  0999 V2000
    7.9944   -5.2712   21.5223 Cl  0  0  0  0  0  0  0  0  0  0  0  0
    6.8697   -4.9007   22.7974 C   0  0  0  0  0  0  0  0  0  0  0  0
    6.1669   -5.9290   23.4294 C   0  0  0  0  0  0  0  0  0  0  0  0
    5.2525   -5.7235   24.3796 N   0  0  0  0  0  0  0  0  0  0  0  0
    4.9793   -4.4573   24.7296 C   0  0  0  0  0  0  0  0  0  0  0  0
    5.5959   -3.3590   24.1439 C   0  0  0  0  0  0  0  0  0  0  0  0
    6.5994   -3.5782   23.1904 C   0  0  0  0  0  0  0  0  0  0  0  0
    7.2929   -2.5016   22.6401 N   0  0  0  0  0  0  0  0  0  0  0  0
    8.5259   -2.0095   23.2512 C   0  0  0  0  0  0  0  0  0  0  0  0
    9.4571   -1.5062   22.1344 C   0  0  0  0  0  0  0  0  0  0  0  0
    8.7106   -0.6909   21.0948 C   0  0  0  0  0  0  0  0  0  0  0  0
    7.3775   -0.7117   20.9710 C   0  0  0  0  0  0  0  0  0  0  0  0
    6.6673   -0.0159   19.8680 C   0  0  0  0  0  0  0  0  0  0  0  0
    5.4322    0.6228   20.0786 C   0  0  0  0  0  0  0  0  0  0  0  0
    4.8186    1.2994   19.0258 C   0  0  0  0  0  0  0  0  0  0  0  0
    5.4515    1.3082   17.7798 C   0  0  0  0  0  0  0  0  0  0  0  0
    6.6201    0.6864   17.5387 N   0  0  0  0  0  0  0  0  0  0  0  0
    7.2018    0.0489   18.5609 C   0  0  0  0  0  0  0  0  0  0  0  0
    8.1349   -0.4669   18.3182 H   0  0  0  0  0  0  0  0  0  0  0  0
    5.0062    1.8224   16.9317 H   0  0  0  0  0  0  0  0  0  0  0  0
    3.8731    1.8182   19.1575 H   0  0  0  0  0  0  0  0  0  0  0  0
    4.9762    0.5982   21.0698 H   0  0  0  0  0  0  0  0  0  0  0  0
    6.5289   -1.4144   22.0421 C   0  0  0  0  0  0  0  0  0  0  0  0
    6.2429   -0.6599   22.8065 H   0  0  0  0  0  0  0  0  0  0  0  0
    5.6073   -1.8108   21.5969 H   0  0  0  0  0  0  0  0  0  0  0  0
    9.3162   -0.0786   20.4232 H   0  0  0  0  0  0  0  0  0  0  0  0
    9.9254   -2.3642   21.6342 H   0  0  0  0  0  0  0  0  0  0  0  0
   10.2766   -0.9070   22.5525 H   0  0  0  0  0  0  0  0  0  0  0  0
    9.0058   -2.8074   23.8334 H   0  0  0  0  0  0  0  0  0  0  0  0
    8.3116   -1.1797   23.9502 H   0  0  0  0  0  0  0  0  0  0  0  0
    5.3161   -2.3348   24.3759 H   0  0  0  0  0  0  0  0  0  0  0  0
    4.2248   -4.3282   25.5030 H   0  0  0  0  0  0  0  0  0  0  0  0
    6.3520   -6.9642   23.1361 H   0  0  0  0  0  0  0  0  0  0  0  0
  1  2  1  0
  2  3  2  0
  3  4  1  0
  4  5  2  0
  5  6  1  0
  6  7  2  0
  7  8  1  0
  8  9  1  0
  9 10  1  0
 10 11  1  0
 11 12  2  0
 12 13  1  0
 13 14  2  0
 14 15  1  0
 15 16  2  0
 16 17  1  0
 17 18  2  0
 18 19  1  0
 16 20  1  0
 15 21  1  0
 14 22  1  0
 12 23  1  0
 23 24  1  0
 23 25  1  0
 11 26  1  0
 10 27  1  0
 10 28  1  0
  9 29  1  0
  9 30  1  0
  6 31  1  0
  5 32  1  0
  3 33  1  0
  7  2  1  0
 23  8  1  0
 18 13  1  0
M  END
>  <cnnaffinity>  (1) 
-5.58992

>  <filename>  (1) 
Clc1cnccc1N1CCC=C(c2cccnc2)C1

$$$$
