
     RDKit          3D

 32 34  0  0  0  0  0  0  0  0999 V2000
    4.9247    1.8253   16.9429 H   0  0  0  0  0  0  0  0  0  0  0  0
    5.3882    1.3054   17.7777 C   0  0  0  0  0  0  0  0  0  0  0  0
    6.5499    0.6818   17.5217 N   0  0  0  0  0  0  0  0  0  0  0  0
    7.1561    0.0663   18.5451 C   0  0  0  0  0  0  0  0  0  0  0  0
    8.1098   -0.3981   18.2916 H   0  0  0  0  0  0  0  0  0  0  0  0
    6.6492    0.0214   19.8662 C   0  0  0  0  0  0  0  0  0  0  0  0
    7.3566   -0.6623   20.9787 C   0  0  0  0  0  0  0  0  0  0  0  0
    7.3996   -0.3758   22.3386 C   0  0  0  0  0  0  0  0  0  0  0  0
    6.6821    0.6502   22.8803 O   0  0  0  0  0  0  0  0  0  0  0  0
    6.9225    1.0253   24.2368 C   0  0  0  0  0  0  0  0  0  0  0  0
    6.7306    0.1655   24.8884 H   0  0  0  0  0  0  0  0  0  0  0  0
    6.1483    1.7646   24.4653 H   0  0  0  0  0  0  0  0  0  0  0  0
    8.3150    1.5755   24.4699 C   0  0  0  0  0  0  0  0  0  0  0  0
    9.1589    0.9835   25.4178 C   0  0  0  0  0  0  0  0  0  0  0  0
    8.7728    0.2021   26.0683 H   0  0  0  0  0  0  0  0  0  0  0  0
   10.4935    1.3840   25.5252 C   0  0  0  0  0  0  0  0  0  0  0  0
   11.1367    0.8939   26.2490 H   0  0  0  0  0  0  0  0  0  0  0  0
   10.9955    2.4046   24.7155 C   0  0  0  0  0  0  0  0  0  0  0  0
   12.0386    2.6940   24.7653 H   0  0  0  0  0  0  0  0  0  0  0  0
   10.1194    3.0676   23.8513 C   0  0  0  0  0  0  0  0  0  0  0  0
   10.6838    4.4686   22.9852 Cl  0  0  0  0  0  0  0  0  0  0  0  0
    8.7947    2.6501   23.7025 C   0  0  0  0  0  0  0  0  0  0  0  0
    8.1500    3.1628   22.9946 H   0  0  0  0  0  0  0  0  0  0  0  0
    8.2569   -1.3509   22.9121 C   0  0  0  0  0  0  0  0  0  0  0  0
    8.5539   -1.4622   23.9439 H   0  0  0  0  0  0  0  0  0  0  0  0
    8.7054   -2.1925   21.9876 N   0  0  0  0  0  0  0  0  0  0  0  0
    8.1690   -1.7513   20.8466 N   0  0  0  0  0  0  0  0  0  0  0  0
    8.2762   -2.3197   20.0195 H   0  0  0  0  0  0  0  0  0  0  0  0
    5.4259    0.6850   20.0997 C   0  0  0  0  0  0  0  0  0  0  0  0
    4.9934    0.7034   21.0992 H   0  0  0  0  0  0  0  0  0  0  0  0
    4.7850    1.3226   19.0381 C   0  0  0  0  0  0  0  0  0  0  0  0
    3.8439    1.8474   19.1758 H   0  0  0  0  0  0  0  0  0  0  0  0
  1  2  1  0
  2  3  2  0
  3  4  1  0
  4  5  1  0
  4  6  2  0
  6  7  1  0
  7  8  2  0
  8  9  1  0
  9 10  1  0
 10 11  1  0
 10 12  1  0
 10 13  1  0
 13 14  2  0
 14 15  1  0
 14 16  1  0
 16 17  1  0
 16 18  2  0
 18 19  1  0
 18 20  1  0
 20 21  1  0
 20 22  2  0
 22 23  1  0
  8 24  1  0
 24 25  1  0
 24 26  2  0
 26 27  1  0
 27 28  1  0
  6 29  1  0
 29 30  1  0
 29 31  2  0
 31 32  1  0
 31  2  1  0
 27  7  1  0
 22 13  1  0
M  END
>  <cnnaffinity>  (1) 
-5.38006

>  <filename>  (1) 
Clc1cccc(COc2cn[nH]c2-c2cccnc2)c1

$$$$
