
     RDKit          3D

 29 31  0  0  0  0  0  0  0  0999 V2000
    9.0605   -3.0075   22.1751 H   0  0  0  0  0  0  0  0  0  0  0  0
    8.4790   -2.1239   21.9801 C   0  0  0  0  0  0  0  0  0  0  0  0
    8.0210   -1.8506   20.7350 N   0  0  0  0  0  0  0  0  0  0  0  0
    7.3709   -0.7231   20.9115 C   0  0  0  0  0  0  0  0  0  0  0  0
    6.6426    0.0099   19.8903 C   0  0  0  0  0  0  0  0  0  0  0  0
    7.1705    0.0499   18.5942 C   0  0  0  0  0  0  0  0  0  0  0  0
    8.1206   -0.4366   18.3791 H   0  0  0  0  0  0  0  0  0  0  0  0
    6.5723    0.6784   17.5801 N   0  0  0  0  0  0  0  0  0  0  0  0
    5.4060    1.2921   17.8418 C   0  0  0  0  0  0  0  0  0  0  0  0
    4.9189    1.7758   17.0009 H   0  0  0  0  0  0  0  0  0  0  0  0
    4.8009    1.3135   19.1060 C   0  0  0  0  0  0  0  0  0  0  0  0
    3.8696    1.8453   19.2609 H   0  0  0  0  0  0  0  0  0  0  0  0
    5.4313    0.6643   20.1612 C   0  0  0  0  0  0  0  0  0  0  0  0
    4.9907    0.6331   21.1643 H   0  0  0  0  0  0  0  0  0  0  0  0
    7.4746   -0.3309   22.2282 N   0  0  0  0  0  0  0  0  0  0  0  0
    7.1071    0.8558   22.8194 N   0  0  0  0  0  0  0  0  0  0  0  0
    7.0571    1.6613   22.2244 H   0  0  0  0  0  0  0  0  0  0  0  0
    6.8388    1.0533   24.1786 C   0  0  0  0  0  0  0  0  0  0  0  0
    6.3862    0.0151   24.9977 C   0  0  0  0  0  0  0  0  0  0  0  0
    6.2431   -0.9600   24.5535 H   0  0  0  0  0  0  0  0  0  0  0  0
    6.1548    0.2268   26.3567 C   0  0  0  0  0  0  0  0  0  0  0  0
    5.8302   -0.5954   26.9837 H   0  0  0  0  0  0  0  0  0  0  0  0
    6.3475    1.4944   26.9067 C   0  0  0  0  0  0  0  0  0  0  0  0
    6.0474    1.7471   28.6033 Cl  0  0  0  0  0  0  0  0  0  0  0  0
    6.7639    2.5569   26.1006 C   0  0  0  0  0  0  0  0  0  0  0  0
    6.8946    3.5401   26.5447 H   0  0  0  0  0  0  0  0  0  0  0  0
    6.9970    2.3359   24.7374 C   0  0  0  0  0  0  0  0  0  0  0  0
    7.3203    3.1705   24.1207 H   0  0  0  0  0  0  0  0  0  0  0  0
    8.2005   -1.2359   22.9097 N   0  0  0  0  0  0  0  0  0  0  0  0
  1  2  1  0
  2  3  1  0
  3  4  2  0
  4  5  1  0
  5  6  2  0
  6  7  1  0
  6  8  1  0
  8  9  2  0
  9 10  1  0
  9 11  1  0
 11 12  1  0
 11 13  2  0
 13 14  1  0
  4 15  1  0
 15 16  1  0
 16 17  1  0
 16 18  1  0
 18 19  2  0
 19 20  1  0
 19 21  1  0
 21 22  1  0
 21 23  2  0
 23 24  1  0
 23 25  1  0
 25 26  1  0
 25 27  2  0
 27 28  1  0
 15 29  1  0
 29  2  2  0
 13  5  1  0
 27 18  1  0
M  END
>  <cnnaffinity>  (1) 
-4.84714

>  <filename>  (1) 
Clc1ccc(Nn2ncnc2-c2cccnc2)cc1

$$$$
