
     RDKit          3D

 34 37  0  0  0  0  0  0  0  0999 V2000
    4.9205    1.7830   16.9978 H   0  0  0  0  0  0  0  0  0  0  0  0
    5.4030    1.2899   17.8400 C   0  0  0  0  0  0  0  0  0  0  0  0
    6.5667    0.6700   17.5860 N   0  0  0  0  0  0  0  0  0  0  0  0
    7.1830    0.0553   18.6066 C   0  0  0  0  0  0  0  0  0  0  0  0
    8.1231   -0.4221   18.3479 H   0  0  0  0  0  0  0  0  0  0  0  0
    6.6966   -0.0123   19.9491 C   0  0  0  0  0  0  0  0  0  0  0  0
    7.3763   -0.6521   20.9671 N   0  0  0  0  0  0  0  0  0  0  0  0
    8.6501   -1.3309   20.7858 C   0  0  0  0  0  0  0  0  0  0  0  0
    9.4092   -0.6685   20.3610 H   0  0  0  0  0  0  0  0  0  0  0  0
    8.5325   -2.1514   20.0984 H   0  0  0  0  0  0  0  0  0  0  0  0
    9.0123   -1.9129   22.1349 C   0  0  1  0  0  0  0  0  0  0  0  0
    9.4629   -2.8994   22.1501 H   0  0  0  0  0  0  0  0  0  0  0  0
    9.2521   -0.9821   23.2900 C   0  0  1  0  0  0  0  0  0  0  0  0
    9.8163   -1.4149   24.1087 H   0  0  0  0  0  0  0  0  0  0  0  0
    9.5023    0.4868   23.1199 C   0  0  0  0  0  0  0  0  0  0  0  0
   10.4515    0.9621   22.2004 C   0  0  0  0  0  0  0  0  0  0  0  0
   11.0204    0.2304   21.6380 H   0  0  0  0  0  0  0  0  0  0  0  0
   10.6542    2.3262   21.9932 C   0  0  0  0  0  0  0  0  0  0  0  0
   11.3781    2.6598   21.2566 H   0  0  0  0  0  0  0  0  0  0  0  0
    9.9308    3.2590   22.7410 C   0  0  0  0  0  0  0  0  0  0  0  0
   10.0836    4.3233   22.5849 H   0  0  0  0  0  0  0  0  0  0  0  0
    9.0282    2.8228   23.7115 C   0  0  0  0  0  0  0  0  0  0  0  0
    8.4753    3.5278   24.3251 H   0  0  0  0  0  0  0  0  0  0  0  0
    8.8476    1.4501   23.9073 C   0  0  0  0  0  0  0  0  0  0  0  0
    7.7790    0.9526   25.1864 Cl  0  0  0  0  0  0  0  0  0  0  0  0
    7.8926   -1.6077   23.0734 C   0  0  1  0  0  0  0  0  0  0  0  0
    7.5505   -2.3682   23.7655 H   0  0  0  0  0  0  0  0  0  0  0  0
    6.8445   -0.8130   22.3139 C   0  0  0  0  0  0  0  0  0  0  0  0
    6.6500    0.1640   22.7695 H   0  0  0  0  0  0  0  0  0  0  0  0
    5.9140   -1.3854   22.2967 H   0  0  0  0  0  0  0  0  0  0  0  0
    5.4569    0.6372   20.1756 C   0  0  0  0  0  0  0  0  0  0  0  0
    5.0100    0.6280   21.1670 H   0  0  0  0  0  0  0  0  0  0  0  0
    4.8267    1.2947   19.1128 C   0  0  0  0  0  0  0  0  0  0  0  0
    3.8943    1.8264   19.2665 H   0  0  0  0  0  0  0  0  0  0  0  0
  1  2  1  0
  2  3  2  0
  3  4  1  0
  4  5  1  0
  4  6  2  0
  6  7  1  0
  7  8  1  0
  8  9  1  0
  8 10  1  0
  8 11  1  0
 11 12  1  6
 11 13  1  0
 13 14  1  1
 13 15  1  0
 15 16  2  0
 16 17  1  0
 16 18  1  0
 18 19  1  0
 18 20  2  0
 20 21  1  0
 20 22  1  0
 22 23  1  0
 22 24  2  0
 24 25  1  0
 13 26  1  0
 26 27  1  1
 26 28  1  0
 28 29  1  0
 28 30  1  0
  6 31  1  0
 31 32  1  0
 31 33  2  0
 33 34  1  0
 33  2  1  0
 28  7  1  0
 26 11  1  0
 24 15  1  0
M  END
>  <cnnaffinity>  (1) 
-5.50739

>  <filename>  (1) 
Clc1ccccc1[C@@H]1[C@@H]2CN(c3cccnc3)C[C@@H]21

$$$$
