
     RDKit          3D

 33 35  0  0  0  0  0  0  0  0999 V2000
    4.9114    1.7800   16.9969 H   0  0  0  0  0  0  0  0  0  0  0  0
    5.4020    1.2945   17.8354 C   0  0  0  0  0  0  0  0  0  0  0  0
    6.5629    0.6772   17.5653 N   0  0  0  0  0  0  0  0  0  0  0  0
    7.1697    0.0651   18.5909 C   0  0  0  0  0  0  0  0  0  0  0  0
    8.1176   -0.4284   18.3793 H   0  0  0  0  0  0  0  0  0  0  0  0
    6.6546    0.0213   19.8938 C   0  0  0  0  0  0  0  0  0  0  0  0
    7.3514   -0.7363   20.9521 C   0  0  0  0  0  0  0  0  0  0  0  0
    6.7413   -1.8847   21.4516 C   0  0  0  0  0  0  0  0  0  0  0  0
    5.7790   -2.1995   21.0613 H   0  0  0  0  0  0  0  0  0  0  0  0
    7.4041   -2.6143   22.4322 C   0  0  0  0  0  0  0  0  0  0  0  0
    6.9497   -3.5159   22.8234 H   0  0  0  0  0  0  0  0  0  0  0  0
    8.5926   -2.2657   22.9364 N   0  0  0  0  0  0  0  0  0  0  0  0
    9.1520   -1.1501   22.4561 C   0  0  0  0  0  0  0  0  0  0  0  0
   10.1101   -0.8711   22.8821 H   0  0  0  0  0  0  0  0  0  0  0  0
    8.6025   -0.3434   21.4524 C   0  0  0  0  0  0  0  0  0  0  0  0
    9.3007    0.9563   21.0701 C   0  0  0  0  0  0  0  0  0  0  0  0
   10.3652    0.7727   20.8906 H   0  0  0  0  0  0  0  0  0  0  0  0
    8.8792    1.3293   20.1342 H   0  0  0  0  0  0  0  0  0  0  0  0
    9.1271    2.0383   22.1204 C   0  0  0  0  0  0  0  0  0  0  0  0
    7.8932    2.7107   22.2104 C   0  0  0  0  0  0  0  0  0  0  0  0
    7.1074    2.4691   21.4957 H   0  0  0  0  0  0  0  0  0  0  0  0
    7.6575    3.6750   23.1911 C   0  0  0  0  0  0  0  0  0  0  0  0
    6.7017    4.1898   23.2349 H   0  0  0  0  0  0  0  0  0  0  0  0
    8.6633    3.9835   24.1112 C   0  0  0  0  0  0  0  0  0  0  0  0
    8.4933    4.7360   24.8745 H   0  0  0  0  0  0  0  0  0  0  0  0
    9.8921    3.3278   24.0511 C   0  0  0  0  0  0  0  0  0  0  0  0
   10.6879    3.5621   24.7466 H   0  0  0  0  0  0  0  0  0  0  0  0
   10.1137    2.3665   23.0634 C   0  0  0  0  0  0  0  0  0  0  0  0
   11.6813    1.5916   23.0387 Cl  0  0  0  0  0  0  0  0  0  0  0  0
    5.4340    0.6526   20.1535 C   0  0  0  0  0  0  0  0  0  0  0  0
    5.0111    0.6258   21.1644 H   0  0  0  0  0  0  0  0  0  0  0  0
    4.8014    1.3156   19.1030 C   0  0  0  0  0  0  0  0  0  0  0  0
    3.8688    1.8468   19.2612 H   0  0  0  0  0  0  0  0  0  0  0  0
  1  2  1  0
  2  3  2  0
  3  4  1  0
  4  5  1  0
  4  6  2  0
  6  7  1  0
  7  8  2  0
  8  9  1  0
  8 10  1  0
 10 11  1  0
 10 12  2  0
 12 13  1  0
 13 14  1  0
 13 15  2  0
 15 16  1  0
 16 17  1  0
 16 18  1  0
 16 19  1  0
 19 20  2  0
 20 21  1  0
 20 22  1  0
 22 23  1  0
 22 24  2  0
 24 25  1  0
 24 26  1  0
 26 27  1  0
 26 28  2  0
 28 29  1  0
  6 30  1  0
 30 31  1  0
 30 32  2  0
 32 33  1  0
 32  2  1  0
 15  7  1  0
 28 19  1  0
M  END
>  <cnnaffinity>  (1) 
-5.4794

>  <filename>  (1) 
Clc1ccccc1Cc1cnccc1-c1cccnc1

$$$$
