
     RDKit          3D

 42 44  0  0  0  0  0  0  0  0999 V2000
    7.0543    3.4460   29.0058 H   0  0  0  0  0  0  0  0  0  0  0  0
    7.5170    3.9735   28.1761 C   0  0  0  0  0  0  0  0  0  0  0  0
    7.5508    3.3052   27.0252 N   0  0  0  0  0  0  0  0  0  0  0  0
    8.2453    3.8470   26.0144 C   0  0  0  0  0  0  0  0  0  0  0  0
    8.3541    3.0451   24.8937 N   0  0  0  0  0  0  0  0  0  0  0  0
    7.1636    2.3181   24.4314 C   0  0  0  0  0  0  0  0  0  0  0  0
    6.5621    2.9689   23.7714 H   0  0  0  0  0  0  0  0  0  0  0  0
    6.5509    2.0343   25.2925 H   0  0  0  0  0  0  0  0  0  0  0  0
    7.5313    1.0397   23.6574 C   0  0  0  0  0  0  0  0  0  0  0  0
    7.9873    0.3177   24.3500 H   0  0  0  0  0  0  0  0  0  0  0  0
    6.5899    0.6227   23.2847 H   0  0  0  0  0  0  0  0  0  0  0  0
    8.4349    1.3402   22.5168 N   0  0  0  0  0  0  0  0  0  0  0  0
    8.8446   -0.0078   21.5627 S   0  0  0  0  0  0  0  0  0  0  0  0
    9.5956    0.5128   20.4405 O   0  0  0  0  0  0  0  0  0  0  0  0
    9.3901   -1.0377   22.4283 O   0  0  0  0  0  0  0  0  0  0  0  0
    7.3578   -0.5449   21.0393 N   0  0  0  0  0  0  0  0  0  0  0  0
    6.7090    0.0649   19.9090 C   0  0  0  0  0  0  0  0  0  0  0  0
    7.1888    0.0580   18.5717 C   0  0  0  0  0  0  0  0  0  0  0  0
    8.1411   -0.4258   18.3525 H   0  0  0  0  0  0  0  0  0  0  0  0
    6.5477    0.6503   17.5537 N   0  0  0  0  0  0  0  0  0  0  0  0
    5.3940    1.2842   17.8265 C   0  0  0  0  0  0  0  0  0  0  0  0
    4.9176    1.7880   16.9888 H   0  0  0  0  0  0  0  0  0  0  0  0
    4.8134    1.3168   19.0983 C   0  0  0  0  0  0  0  0  0  0  0  0
    3.8691    1.8276   19.2560 H   0  0  0  0  0  0  0  0  0  0  0  0
    5.4801    0.6794   20.1514 C   0  0  0  0  0  0  0  0  0  0  0  0
    5.0833    0.6477   21.1668 H   0  0  0  0  0  0  0  0  0  0  0  0
    6.8069   -1.8102   21.5353 C   0  0  0  0  0  0  0  0  0  0  0  0
    7.4192   -2.1936   22.3544 H   0  0  0  0  0  0  0  0  0  0  0  0
    6.7859   -2.5548   20.7290 H   0  0  0  0  0  0  0  0  0  0  0  0
    5.7840   -1.6535   21.9065 H   0  0  0  0  0  0  0  0  0  0  0  0
    9.6505    2.0379   23.0168 C   0  0  0  0  0  0  0  0  0  0  0  0
   10.2710    2.3361   22.1665 H   0  0  0  0  0  0  0  0  0  0  0  0
   10.2425    1.3816   23.6743 H   0  0  0  0  0  0  0  0  0  0  0  0
    9.3010    3.3206   23.8102 C   0  0  0  0  0  0  0  0  0  0  0  0
    8.8909    4.0634   23.1051 H   0  0  0  0  0  0  0  0  0  0  0  0
   10.2450    3.7049   24.2180 H   0  0  0  0  0  0  0  0  0  0  0  0
    8.8422    5.1271   26.0883 C   0  0  0  0  0  0  0  0  0  0  0  0
    9.3485    5.5101   25.2074 H   0  0  0  0  0  0  0  0  0  0  0  0
    8.7525    5.8265   27.2887 C   0  0  0  0  0  0  0  0  0  0  0  0
    9.2208    6.8061   27.3916 H   0  0  0  0  0  0  0  0  0  0  0  0
    8.0694    5.2413   28.3617 C   0  0  0  0  0  0  0  0  0  0  0  0
    7.9970    5.7052   29.3368 H   0  0  0  0  0  0  0  0  0  0  0  0
  1  2  1  0
  2  3  2  0
  3  4  1  0
  4  5  1  0
  5  6  1  0
  6  7  1  0
  6  8  1  0
  6  9  1  0
  9 10  1  0
  9 11  1  0
  9 12  1  0
 12 13  1  0
 13 14  2  0
 13 15  2  0
 13 16  1  0
 16 17  1  0
 17 18  2  0
 18 19  1  0
 18 20  1  0
 20 21  2  0
 21 22  1  0
 21 23  1  0
 23 24  1  0
 23 25  2  0
 25 26  1  0
 16 27  1  0
 27 28  1  0
 27 29  1  0
 27 30  1  0
 12 31  1  0
 31 32  1  0
 31 33  1  0
 31 34  1  0
 34 35  1  0
 34 36  1  0
  4 37  2  0
 37 38  1  0
 37 39  1  0
 39 40  1  0
 39 41  2  0
 41 42  1  0
 41  2  1  0
 34  5  1  0
 25 17  1  0
M  END
>  <cnnaffinity>  (1) 
-5.12715

>  <filename>  (1) 
CN(c1cccnc1)S(=O)(=O)N1CCN(c2ccccn2)CC1

$$$$
