
     RDKit          3D

 35 37  0  0  0  0  0  0  0  0999 V2000
   10.6864   -1.7944   22.0595 C   0  0  0  0  0  0  0  0  0  0  0  0
    9.2650   -1.4435   22.1636 N   0  0  0  0  0  0  0  0  0  0  0  0
    8.7577   -0.6224   21.1578 C   0  0  0  0  0  0  0  0  0  0  0  0
    9.4914    0.0376   20.4416 O   0  0  0  0  0  0  0  0  0  0  0  0
    7.3887   -0.6456   20.9856 N   0  0  0  0  0  0  0  0  0  0  0  0
    6.6903   -0.0103   19.9157 C   0  0  0  0  0  0  0  0  0  0  0  0
    5.4652    0.6176   20.1683 C   0  0  0  0  0  0  0  0  0  0  0  0
    4.8198    1.2884   19.1180 C   0  0  0  0  0  0  0  0  0  0  0  0
    5.3998    1.2843   17.8458 C   0  0  0  0  0  0  0  0  0  0  0  0
    6.5598    0.6633   17.5755 N   0  0  0  0  0  0  0  0  0  0  0  0
    7.1878    0.0504   18.5859 C   0  0  0  0  0  0  0  0  0  0  0  0
    8.1384   -0.4176   18.3506 H   0  0  0  0  0  0  0  0  0  0  0  0
    4.9243    1.7940   17.0098 H   0  0  0  0  0  0  0  0  0  0  0  0
    3.8894    1.8245   19.2754 H   0  0  0  0  0  0  0  0  0  0  0  0
    5.0515    0.6026   21.1761 H   0  0  0  0  0  0  0  0  0  0  0  0
    6.8745   -1.1749   21.6720 H   0  0  0  0  0  0  0  0  0  0  0  0
    8.5281   -1.9233   23.2827 C   0  0  0  0  0  0  0  0  0  0  0  0
    7.7904   -1.0065   24.0860 C   0  0  0  0  0  0  0  0  0  0  0  0
    7.0745   -1.4494   25.1744 C   0  0  0  0  0  0  0  0  0  0  0  0
    7.0691   -2.8397   25.5085 C   0  0  0  0  0  0  0  0  0  0  0  0
    6.3374   -3.3849   26.6060 C   0  0  0  0  0  0  0  0  0  0  0  0
    6.3202   -4.6610   26.9311 N   0  0  0  0  0  0  0  0  0  0  0  0
    7.0573   -5.5243   26.1739 C   0  0  0  0  0  0  0  0  0  0  0  0
    7.8068   -5.1336   25.0916 C   0  0  0  0  0  0  0  0  0  0  0  0
    7.8282   -3.7592   24.7179 C   0  0  0  0  0  0  0  0  0  0  0  0
    8.5670   -3.2630   23.6092 C   0  0  0  0  0  0  0  0  0  0  0  0
    9.1773   -3.9337   23.0158 H   0  0  0  0  0  0  0  0  0  0  0  0
    8.3748   -5.8632   24.5265 H   0  0  0  0  0  0  0  0  0  0  0  0
    7.0083   -6.5658   26.4864 H   0  0  0  0  0  0  0  0  0  0  0  0
    5.7395   -2.7203   27.2329 H   0  0  0  0  0  0  0  0  0  0  0  0
    6.4970   -0.7498   25.7757 H   0  0  0  0  0  0  0  0  0  0  0  0
    7.8252    0.0444   23.8214 H   0  0  0  0  0  0  0  0  0  0  0  0
   11.2817   -0.9079   21.8211 H   0  0  0  0  0  0  0  0  0  0  0  0
   10.8528   -2.5205   21.2593 H   0  0  0  0  0  0  0  0  0  0  0  0
   11.0267   -2.2178   23.0091 H   0  0  0  0  0  0  0  0  0  0  0  0
  1  2  1  0
  2  3  1  0
  3  4  2  0
  3  5  1  0
  5  6  1  0
  6  7  2  0
  7  8  1  0
  8  9  2  0
  9 10  1  0
 10 11  2  0
 11 12  1  0
  9 13  1  0
  8 14  1  0
  7 15  1  0
  5 16  1  0
  2 17  1  0
 17 18  2  0
 18 19  1  0
 19 20  2  0
 20 21  1  0
 21 22  2  0
 22 23  1  0
 23 24  2  0
 24 25  1  0
 25 26  2  0
 26 27  1  0
 24 28  1  0
 23 29  1  0
 21 30  1  0
 19 31  1  0
 18 32  1  0
  1 33  1  0
  1 34  1  0
  1 35  1  0
 11  6  1  0
 26 17  1  0
 25 20  1  0
M  END
>  <cnnaffinity>  (1) 
-5.43945

>  <filename>  (1) 
CN(C(=O)Nc1cccnc1)c1ccc2cnccc2c1

$$$$
