
     RDKit          3D

 35 36  0  0  0  0  0  0  0  0999 V2000
    4.9522    1.8021   16.9531 H   0  0  0  0  0  0  0  0  0  0  0  0
    5.4164    1.2999   17.7976 C   0  0  0  0  0  0  0  0  0  0  0  0
    6.5651    0.6497   17.5426 N   0  0  0  0  0  0  0  0  0  0  0  0
    7.1735    0.0341   18.5651 C   0  0  0  0  0  0  0  0  0  0  0  0
    8.1065   -0.4829   18.3408 H   0  0  0  0  0  0  0  0  0  0  0  0
    6.6557    0.0276   19.8773 C   0  0  0  0  0  0  0  0  0  0  0  0
    7.2972   -0.6549   20.9511 N   0  0  0  0  0  0  0  0  0  0  0  0
    6.6585   -1.6426   21.7137 C   0  0  0  0  0  0  0  0  0  0  0  0
    5.6261   -1.9139   21.5851 H   0  0  0  0  0  0  0  0  0  0  0  0
    7.5764   -2.1055   22.5767 C   0  0  0  0  0  0  0  0  0  0  0  0
    7.4777   -3.1401   23.4625 N   0  0  0  0  0  0  0  0  0  0  0  0
    6.5489   -3.1602   23.8557 H   0  0  0  0  0  0  0  0  0  0  0  0
    8.5426   -3.4489   24.3947 C   0  0  0  0  0  0  0  0  0  0  0  0
    8.8595   -2.5795   24.9947 H   0  0  0  0  0  0  0  0  0  0  0  0
    9.4231   -3.8094   23.8495 H   0  0  0  0  0  0  0  0  0  0  0  0
    8.0592   -4.5540   25.3467 C   0  0  0  0  0  0  0  0  0  0  0  0
    7.1668   -4.1838   25.8738 H   0  0  0  0  0  0  0  0  0  0  0  0
    7.7347   -5.4156   24.7477 H   0  0  0  0  0  0  0  0  0  0  0  0
    9.0054   -5.0301   26.3441 N   0  0  0  0  0  0  0  0  0  0  0  0
    9.2947   -4.0903   27.4013 C   0  0  0  0  0  0  0  0  0  0  0  0
    8.3671   -3.8375   27.9317 H   0  0  0  0  0  0  0  0  0  0  0  0
    9.9691   -4.5591   28.1260 H   0  0  0  0  0  0  0  0  0  0  0  0
    9.7647   -3.1431   27.0724 H   0  0  0  0  0  0  0  0  0  0  0  0
   10.1670   -5.7223   25.8222 C   0  0  0  0  0  0  0  0  0  0  0  0
   10.6971   -6.2131   26.6453 H   0  0  0  0  0  0  0  0  0  0  0  0
   10.9045   -5.0835   25.3001 H   0  0  0  0  0  0  0  0  0  0  0  0
    9.8380   -6.5008   25.1246 H   0  0  0  0  0  0  0  0  0  0  0  0
    8.7344   -1.4074   22.3815 N   0  0  0  0  0  0  0  0  0  0  0  0
    9.5786   -1.4854   22.9121 H   0  0  0  0  0  0  0  0  0  0  0  0
    8.5824   -0.4673   21.4064 C   0  0  0  0  0  0  0  0  0  0  0  0
    9.7227    0.6408   20.9378 S   0  0  0  0  0  0  0  0  0  0  0  0
    5.4491    0.6910   20.1256 C   0  0  0  0  0  0  0  0  0  0  0  0
    5.0357    0.6882   21.1375 H   0  0  0  0  0  0  0  0  0  0  0  0
    4.8200    1.3452   19.0634 C   0  0  0  0  0  0  0  0  0  0  0  0
    3.8851    1.8819   19.2080 H   0  0  0  0  0  0  0  0  0  0  0  0
  1  2  1  0
  2  3  2  0
  3  4  1  0
  4  5  1  0
  4  6  2  0
  6  7  1  0
  7  8  1  0
  8  9  1  0
  8 10  2  0
 10 11  1  0
 11 12  1  0
 11 13  1  0
 13 14  1  0
 13 15  1  0
 13 16  1  0
 16 17  1  0
 16 18  1  0
 16 19  1  0
 19 20  1  0
 20 21  1  0
 20 22  1  0
 20 23  1  0
 19 24  1  0
 24 25  1  0
 24 26  1  0
 24 27  1  0
 10 28  1  0
 28 29  1  0
 28 30  1  0
 30 31  2  0
  6 32  1  0
 32 33  1  0
 32 34  2  0
 34 35  1  0
 34  2  1  0
 30  7  1  0
M  END
>  <cnnaffinity>  (1) 
-4.65247

>  <filename>  (1) 
CN(C)CCNc1cn(-c2cccnc2)c(=S)[nH]1

$$$$
