
     RDKit          3D

 27 28  0  0  0  0  0  0  0  0999 V2000
    8.6649    4.6711   21.5322 H   0  0  0  0  0  0  0  0  0  0  0  0
    8.1378    3.8593   22.0104 C   0  0  0  0  0  0  0  0  0  0  0  0
    7.2301    3.9210   22.9815 C   0  0  0  0  0  0  0  0  0  0  0  0
    6.8093    4.7534   23.5320 H   0  0  0  0  0  0  0  0  0  0  0  0
    6.7275    2.5560   23.2701 C   0  0  0  0  0  0  0  0  0  0  0  0
    5.9881    2.2031   24.1393 O   0  0  0  0  0  0  0  0  0  0  0  0
    7.3188    1.7668   22.3031 N   0  0  0  0  0  0  0  0  0  0  0  0
    7.5213    0.1734   22.5842 S   0  0  0  0  0  0  0  0  0  0  0  0
    6.3662   -0.2773   23.3137 O   0  0  0  0  0  0  0  0  0  0  0  0
    8.8608   -0.0171   23.0874 O   0  0  0  0  0  0  0  0  0  0  0  0
    7.4907   -0.4112   20.9960 N   0  0  0  0  0  0  0  0  0  0  0  0
    6.7032    0.1205   19.9247 C   0  0  0  0  0  0  0  0  0  0  0  0
    7.1748    0.0944   18.5887 C   0  0  0  0  0  0  0  0  0  0  0  0
    8.1219   -0.4023   18.3688 H   0  0  0  0  0  0  0  0  0  0  0  0
    6.5416    0.6721   17.5581 N   0  0  0  0  0  0  0  0  0  0  0  0
    5.3820    1.2971   17.8179 C   0  0  0  0  0  0  0  0  0  0  0  0
    4.9055    1.7956   16.9769 H   0  0  0  0  0  0  0  0  0  0  0  0
    4.7888    1.3109   19.0847 C   0  0  0  0  0  0  0  0  0  0  0  0
    3.8486    1.8245   19.2329 H   0  0  0  0  0  0  0  0  0  0  0  0
    5.4411    0.6812   20.1525 C   0  0  0  0  0  0  0  0  0  0  0  0
    5.0253    0.6097   21.1591 H   0  0  0  0  0  0  0  0  0  0  0  0
    7.9221   -1.8060   20.8332 C   0  0  0  0  0  0  0  0  0  0  0  0
    8.7967   -1.8514   20.1768 H   0  0  0  0  0  0  0  0  0  0  0  0
    8.1926   -2.2520   21.7899 H   0  0  0  0  0  0  0  0  0  0  0  0
    7.1137   -2.3937   20.3850 H   0  0  0  0  0  0  0  0  0  0  0  0
    8.2958    2.4406   21.5954 C   0  0  0  0  0  0  0  0  0  0  0  0
    9.0596    1.8991   20.8452 O   0  0  0  0  0  0  0  0  0  0  0  0
  1  2  1  0
  2  3  2  0
  3  4  1  0
  3  5  1  0
  5  6  2  0
  5  7  1  0
  7  8  1  0
  8  9  2  0
  8 10  2  0
  8 11  1  0
 11 12  1  0
 12 13  2  0
 13 14  1  0
 13 15  1  0
 15 16  2  0
 16 17  1  0
 16 18  1  0
 18 19  1  0
 18 20  2  0
 20 21  1  0
 11 22  1  0
 22 23  1  0
 22 24  1  0
 22 25  1  0
  7 26  1  0
 26 27  2  0
 26  2  1  0
 20 12  1  0
M  END
>  <cnnaffinity>  (1) 
-4.27725

>  <filename>  (1) 
CN(c1cccnc1)S(=O)(=O)N1C(=O)C=CC1=O

$$$$
