
     RDKit          3D

 34 36  0  0  0  0  0  0  0  0999 V2000
    5.1480    1.9284   16.9177 H   0  0  0  0  0  0  0  0  0  0  0  0
    5.5899    1.3494   17.7252 C   0  0  0  0  0  0  0  0  0  0  0  0
    6.7606    0.7457   17.4547 N   0  0  0  0  0  0  0  0  0  0  0  0
    7.3365    0.0301   18.4277 C   0  0  0  0  0  0  0  0  0  0  0  0
    8.2994   -0.4302   18.2099 H   0  0  0  0  0  0  0  0  0  0  0  0
    6.7453   -0.1471   19.6948 C   0  0  0  0  0  0  0  0  0  0  0  0
    7.3516   -0.9196   20.7093 N   0  0  0  0  0  0  0  0  0  0  0  0
    6.7149   -1.8072   21.5809 C   0  0  0  0  0  0  0  0  0  0  0  0
    5.5516   -2.1683   21.4440 O   0  0  0  0  0  0  0  0  0  0  0  0
    7.7715   -2.1188   22.6002 C   0  0  0  0  0  0  0  0  0  0  0  0
    7.5724   -2.8037   23.8095 N   0  0  0  0  0  0  0  0  0  0  0  0
    8.6513   -3.2788   24.5894 C   0  0  0  0  0  0  0  0  0  0  0  0
    8.5466   -3.2268   25.9913 C   0  0  0  0  0  0  0  0  0  0  0  0
    7.7251   -2.6610   26.4102 H   0  0  0  0  0  0  0  0  0  0  0  0
    9.4664   -3.8858   26.7996 C   0  0  0  0  0  0  0  0  0  0  0  0
    9.3080   -3.9452   27.8707 H   0  0  0  0  0  0  0  0  0  0  0  0
   10.5453   -4.5542   26.2222 C   0  0  0  0  0  0  0  0  0  0  0  0
   11.2618   -5.0361   26.8708 H   0  0  0  0  0  0  0  0  0  0  0  0
   10.7103   -4.5538   24.8329 C   0  0  0  0  0  0  0  0  0  0  0  0
   11.5618   -5.0751   24.3970 H   0  0  0  0  0  0  0  0  0  0  0  0
    9.7776   -3.9032   24.0187 C   0  0  0  0  0  0  0  0  0  0  0  0
    9.9034   -3.8903   22.9405 H   0  0  0  0  0  0  0  0  0  0  0  0
    6.1905   -2.9133   24.2810 C   0  0  0  0  0  0  0  0  0  0  0  0
    5.8049   -1.9167   24.5348 H   0  0  0  0  0  0  0  0  0  0  0  0
    6.1312   -3.5612   25.1606 H   0  0  0  0  0  0  0  0  0  0  0  0
    5.5709   -3.3262   23.4770 H   0  0  0  0  0  0  0  0  0  0  0  0
    8.8965   -1.4842   22.1869 C   0  0  0  0  0  0  0  0  0  0  0  0
    9.8665   -1.4874   22.6624 H   0  0  0  0  0  0  0  0  0  0  0  0
    8.7191   -0.7791   20.9835 N   0  0  0  0  0  0  0  0  0  0  0  0
    8.9879    0.2098   21.0103 H   0  0  0  0  0  0  0  0  0  0  0  0
    5.5190    0.4691   19.9614 C   0  0  0  0  0  0  0  0  0  0  0  0
    5.0597    0.3291   20.9379 H   0  0  0  0  0  0  0  0  0  0  0  0
    4.9445    1.2528   18.9633 C   0  0  0  0  0  0  0  0  0  0  0  0
    4.0202    1.7891   19.1427 H   0  0  0  0  0  0  0  0  0  0  0  0
  1  2  1  0
  2  3  2  0
  3  4  1  0
  4  5  1  0
  4  6  2  0
  6  7  1  0
  7  8  1  0
  8  9  2  0
  8 10  1  0
 10 11  1  0
 11 12  1  0
 12 13  2  0
 13 14  1  0
 13 15  1  0
 15 16  1  0
 15 17  2  0
 17 18  1  0
 17 19  1  0
 19 20  1  0
 19 21  2  0
 21 22  1  0
 11 23  1  0
 23 24  1  0
 23 25  1  0
 23 26  1  0
 10 27  2  0
 27 28  1  0
 27 29  1  0
 29 30  1  0
  6 31  1  0
 31 32  1  0
 31 33  2  0
 33 34  1  0
 33  2  1  0
 29  7  1  0
 21 12  1  0
M  END
>  <cnnaffinity>  (1) 
-4.99508

>  <filename>  (1) 
CN(c1ccccc1)c1c[nH]n(-c2cccnc2)c1=O

$$$$
