
     RDKit          3D

 36 38  0  0  0  0  0  0  0  0999 V2000
    6.6825   -1.6218   21.7650 C   0  0  0  0  0  0  0  0  0  0  0  0
    7.4154   -0.6521   20.9388 N   0  0  0  0  0  0  0  0  0  0  0  0
    8.7126   -0.2431   21.2544 C   0  0  0  0  0  0  0  0  0  0  0  0
    9.2129    0.7768   20.8213 O   0  0  0  0  0  0  0  0  0  0  0  0
    9.5105   -1.1245   22.1940 C   0  0  0  0  0  0  0  0  0  0  0  0
    9.0999   -0.8516   23.5929 C   0  0  0  0  0  0  0  0  0  0  0  0
    8.6990   -1.7226   24.4730 N   0  0  0  0  0  0  0  0  0  0  0  0
    8.3726   -1.0368   25.6165 N   0  0  0  0  0  0  0  0  0  0  0  0
    8.5952    0.2383   25.4066 C   0  0  0  0  0  0  0  0  0  0  0  0
    8.3580    1.3166   26.4175 C   0  0  0  0  0  0  0  0  0  0  0  0
    8.5469    2.6863   26.1533 C   0  0  0  0  0  0  0  0  0  0  0  0
    8.1031    3.6330   27.0852 C   0  0  0  0  0  0  0  0  0  0  0  0
    7.5592    3.3257   28.2697 N   0  0  0  0  0  0  0  0  0  0  0  0
    7.4698    2.0200   28.5657 C   0  0  0  0  0  0  0  0  0  0  0  0
    7.8585    0.9995   27.6967 C   0  0  0  0  0  0  0  0  0  0  0  0
    7.7694   -0.0330   28.0153 H   0  0  0  0  0  0  0  0  0  0  0  0
    7.0437    1.7789   29.5371 H   0  0  0  0  0  0  0  0  0  0  0  0
    8.1865    4.6947   26.8565 H   0  0  0  0  0  0  0  0  0  0  0  0
    9.0462    3.0456   25.2605 H   0  0  0  0  0  0  0  0  0  0  0  0
    9.0625    0.4002   24.1206 N   0  0  0  0  0  0  0  0  0  0  0  0
    9.3191    1.2392   23.6326 H   0  0  0  0  0  0  0  0  0  0  0  0
   10.5593   -0.8661   22.0476 H   0  0  0  0  0  0  0  0  0  0  0  0
    9.3752   -2.1811   21.9726 H   0  0  0  0  0  0  0  0  0  0  0  0
    6.7074    0.0137   19.8759 C   0  0  0  0  0  0  0  0  0  0  0  0
    5.4804    0.6323   20.1375 C   0  0  0  0  0  0  0  0  0  0  0  0
    4.8255    1.2966   19.0969 C   0  0  0  0  0  0  0  0  0  0  0  0
    5.4030    1.2931   17.8237 C   0  0  0  0  0  0  0  0  0  0  0  0
    6.5620    0.6746   17.5438 N   0  0  0  0  0  0  0  0  0  0  0  0
    7.2009    0.0654   18.5514 C   0  0  0  0  0  0  0  0  0  0  0  0
    8.1513   -0.4079   18.3059 H   0  0  0  0  0  0  0  0  0  0  0  0
    4.9209    1.8047   16.9939 H   0  0  0  0  0  0  0  0  0  0  0  0
    3.8910    1.8169   19.2632 H   0  0  0  0  0  0  0  0  0  0  0  0
    5.0801    0.6050   21.1513 H   0  0  0  0  0  0  0  0  0  0  0  0
    5.7470   -1.8987   21.2719 H   0  0  0  0  0  0  0  0  0  0  0  0
    7.2672   -2.5403   21.8830 H   0  0  0  0  0  0  0  0  0  0  0  0
    6.4499   -1.2331   22.7680 H   0  0  0  0  0  0  0  0  0  0  0  0
  1  2  1  0
  2  3  1  0
  3  4  2  0
  3  5  1  0
  5  6  1  0
  6  7  2  0
  7  8  1  0
  8  9  2  0
  9 10  1  0
 10 11  2  0
 11 12  1  0
 12 13  2  0
 13 14  1  0
 14 15  2  0
 15 16  1  0
 14 17  1  0
 12 18  1  0
 11 19  1  0
  9 20  1  0
 20 21  1  0
  5 22  1  0
  5 23  1  0
  2 24  1  0
 24 25  2  0
 25 26  1  0
 26 27  2  0
 27 28  1  0
 28 29  2  0
 29 30  1  0
 27 31  1  0
 26 32  1  0
 25 33  1  0
  1 34  1  0
  1 35  1  0
  1 36  1  0
 20  6  1  0
 29 24  1  0
 15 10  1  0
M  END
>  <cnnaffinity>  (1) 
-5.33477

>  <filename>  (1) 
CN(C(=O)Cc1nnc(-c2ccncc2)[nH]1)c1cccnc1

$$$$
