
     RDKit          3D

 31 32  0  0  0  0  0  0  0  0999 V2000
    4.9103    1.8130   16.9664 H   0  0  0  0  0  0  0  0  0  0  0  0
    5.3755    1.3101   17.8147 C   0  0  0  0  0  0  0  0  0  0  0  0
    6.5383    0.6888   17.5578 N   0  0  0  0  0  0  0  0  0  0  0  0
    7.1415    0.0688   18.5786 C   0  0  0  0  0  0  0  0  0  0  0  0
    8.0886   -0.4153   18.3394 H   0  0  0  0  0  0  0  0  0  0  0  0
    6.6421    0.0043   19.8998 C   0  0  0  0  0  0  0  0  0  0  0  0
    7.3929   -0.7035   20.9459 C   0  0  0  0  0  0  0  0  0  0  0  0
    8.7267   -1.0191   21.0536 C   0  0  0  0  0  0  0  0  0  0  0  0
    9.5340   -0.7385   20.3885 H   0  0  0  0  0  0  0  0  0  0  0  0
    8.9706   -1.7298   22.1966 N   0  0  0  0  0  0  0  0  0  0  0  0
    7.8221   -1.8278   22.8006 C   0  0  0  0  0  0  0  0  0  0  0  0
    7.6289   -2.5087   24.1002 C   0  0  0  0  0  0  0  0  0  0  0  0
    7.1216   -1.8512   24.8026 H   0  0  0  0  0  0  0  0  0  0  0  0
    8.6188   -2.7808   24.4663 H   0  0  0  0  0  0  0  0  0  0  0  0
    6.6831   -3.6708   23.8939 C   0  0  0  0  0  0  0  0  0  0  0  0
    5.4900   -3.5058   24.0925 O   0  0  0  0  0  0  0  0  0  0  0  0
    7.1882   -4.8564   23.4338 N   0  0  0  0  0  0  0  0  0  0  0  0
    6.2322   -5.9568   23.2290 C   0  0  0  0  0  0  0  0  0  0  0  0
    5.7309   -6.2231   24.1685 H   0  0  0  0  0  0  0  0  0  0  0  0
    6.7709   -6.8301   22.8468 H   0  0  0  0  0  0  0  0  0  0  0  0
    5.4488   -5.6772   22.5124 H   0  0  0  0  0  0  0  0  0  0  0  0
    8.6084   -5.0548   23.1472 C   0  0  0  0  0  0  0  0  0  0  0  0
    8.9671   -4.3420   22.3950 H   0  0  0  0  0  0  0  0  0  0  0  0
    9.2392   -4.9550   24.0427 H   0  0  0  0  0  0  0  0  0  0  0  0
    8.7396   -6.0732   22.7667 H   0  0  0  0  0  0  0  0  0  0  0  0
    6.8252   -1.2291   22.1044 N   0  0  0  0  0  0  0  0  0  0  0  0
    5.8522   -1.2644   22.3675 H   0  0  0  0  0  0  0  0  0  0  0  0
    5.4226    0.6621   20.1369 C   0  0  0  0  0  0  0  0  0  0  0  0
    4.9970    0.6719   21.1392 H   0  0  0  0  0  0  0  0  0  0  0  0
    4.7861    1.3224   19.0840 C   0  0  0  0  0  0  0  0  0  0  0  0
    3.8561    1.8571   19.2329 H   0  0  0  0  0  0  0  0  0  0  0  0
  1  2  1  0
  2  3  2  0
  3  4  1  0
  4  5  1  0
  4  6  2  0
  6  7  1  0
  7  8  2  0
  8  9  1  0
  8 10  1  0
 10 11  2  0
 11 12  1  0
 12 13  1  0
 12 14  1  0
 12 15  1  0
 15 16  2  0
 15 17  1  0
 17 18  1  0
 18 19  1  0
 18 20  1  0
 18 21  1  0
 17 22  1  0
 22 23  1  0
 22 24  1  0
 22 25  1  0
 11 26  1  0
 26 27  1  0
  6 28  1  0
 28 29  1  0
 28 30  2  0
 30 31  1  0
 30  2  1  0
 26  7  1  0
M  END
>  <cnnaffinity>  (1) 
-4.78423

>  <filename>  (1) 
CN(C)C(=O)Cc1ncc(-c2cccnc2)[nH]1

$$$$
