
     RDKit          3D

 30 31  0  0  0  0  0  0  0  0999 V2000
   10.5623    3.4949   23.1322 H   0  0  0  0  0  0  0  0  0  0  0  0
    9.6053    3.0039   22.9776 C   0  0  0  0  0  0  0  0  0  0  0  0
    9.6698    1.8687   22.3114 N   0  0  0  0  0  0  0  0  0  0  0  0
    8.5147    1.2241   22.1162 C   0  0  0  0  0  0  0  0  0  0  0  0
    8.5837    0.0288   21.4718 N   0  0  0  0  0  0  0  0  0  0  0  0
    9.8967   -0.4449   21.0625 C   0  0  0  0  0  0  0  0  0  0  0  0
    9.8080   -1.2696   20.3529 H   0  0  0  0  0  0  0  0  0  0  0  0
   10.4398    0.3815   20.6187 H   0  0  0  0  0  0  0  0  0  0  0  0
   10.5058   -0.7529   21.9189 H   0  0  0  0  0  0  0  0  0  0  0  0
    7.3567   -0.6439   21.0837 C   0  0  0  0  0  0  0  0  0  0  0  0
    6.6957   -0.7078   21.9546 H   0  0  0  0  0  0  0  0  0  0  0  0
    7.6136   -1.6816   20.8125 H   0  0  0  0  0  0  0  0  0  0  0  0
    6.6331    0.0607   19.9579 C   0  0  0  0  0  0  0  0  0  0  0  0
    7.1756    0.0905   18.6651 C   0  0  0  0  0  0  0  0  0  0  0  0
    8.1241   -0.4054   18.4435 H   0  0  0  0  0  0  0  0  0  0  0  0
    6.5837    0.6730   17.6151 N   0  0  0  0  0  0  0  0  0  0  0  0
    5.4117    1.2893   17.8312 C   0  0  0  0  0  0  0  0  0  0  0  0
    4.9582    1.7780   16.9708 H   0  0  0  0  0  0  0  0  0  0  0  0
    4.7814    1.3310   19.0771 C   0  0  0  0  0  0  0  0  0  0  0  0
    3.8314    1.8448   19.1852 H   0  0  0  0  0  0  0  0  0  0  0  0
    5.4090    0.7158   20.1599 C   0  0  0  0  0  0  0  0  0  0  0  0
    4.9796    0.7726   21.1647 H   0  0  0  0  0  0  0  0  0  0  0  0
    7.3210    1.6352   22.5484 N   0  0  0  0  0  0  0  0  0  0  0  0
    7.2628    2.8067   23.1875 C   0  0  0  0  0  0  0  0  0  0  0  0
    5.8679    3.3317   23.6470 C   0  0  0  0  0  0  0  0  0  0  0  0
    5.5956    4.5329   23.0997 F   0  0  0  0  0  0  0  0  0  0  0  0
    4.8475    2.5154   23.3474 F   0  0  0  0  0  0  0  0  0  0  0  0
    5.8610    3.5194   24.9829 F   0  0  0  0  0  0  0  0  0  0  0  0
    8.4193    3.5466   23.4634 C   0  0  0  0  0  0  0  0  0  0  0  0
    8.4155    4.4702   24.0236 H   0  0  0  0  0  0  0  0  0  0  0  0
  1  2  1  0
  2  3  2  0
  3  4  1  0
  4  5  1  0
  5  6  1  0
  6  7  1  0
  6  8  1  0
  6  9  1  0
  5 10  1  0
 10 11  1  0
 10 12  1  0
 10 13  1  0
 13 14  2  0
 14 15  1  0
 14 16  1  0
 16 17  2  0
 17 18  1  0
 17 19  1  0
 19 20  1  0
 19 21  2  0
 21 22  1  0
  4 23  2  0
 23 24  1  0
 24 25  1  0
 25 26  1  0
 25 27  1  0
 25 28  1  0
 24 29  2  0
 29 30  1  0
 29  2  1  0
 21 13  1  0
M  END
>  <cnnaffinity>  (1) 
-4.77876

>  <filename>  (1) 
CN(Cc1cccnc1)c1nccc(C(F)(F)F)n1

$$$$
