
     RDKit          3D

 37 39  0  0  0  0  0  0  0  0999 V2000
    7.6893   -2.0188   20.8366 C   0  0  0  0  0  0  0  0  0  0  0  0
    7.3732   -0.5946   20.9930 N   0  0  0  0  0  0  0  0  0  0  0  0
    7.6926   -0.0216   22.2263 C   0  0  0  0  0  0  0  0  0  0  0  0
    8.0293   -0.7220   23.1691 O   0  0  0  0  0  0  0  0  0  0  0  0
    7.6620    1.4576   22.3195 C   0  0  0  0  0  0  0  0  0  0  0  0
    7.9188    2.1265   23.4598 C   0  0  0  0  0  0  0  0  0  0  0  0
    7.8557    3.5888   23.6108 C   0  0  0  0  0  0  0  0  0  0  0  0
    8.7534    4.1973   24.4811 C   0  0  0  0  0  0  0  0  0  0  0  0
    8.8528    5.5997   24.5892 C   0  0  0  0  0  0  0  0  0  0  0  0
    8.0411    6.4156   23.8327 C   0  0  0  0  0  0  0  0  0  0  0  0
    7.0543    5.8569   22.9740 C   0  0  0  0  0  0  0  0  0  0  0  0
    6.1426    6.6455   22.2036 C   0  0  0  0  0  0  0  0  0  0  0  0
    5.1174    6.0176   21.5407 C   0  0  0  0  0  0  0  0  0  0  0  0
    5.0146    4.6032   21.5952 C   0  0  0  0  0  0  0  0  0  0  0  0
    5.8652    3.8303   22.2294 N   0  0  0  0  0  0  0  0  0  0  0  0
    6.9072    4.4216   22.9042 C   0  0  0  0  0  0  0  0  0  0  0  0
    4.1832    4.1166   21.0793 H   0  0  0  0  0  0  0  0  0  0  0  0
    4.3820    6.5507   20.9516 H   0  0  0  0  0  0  0  0  0  0  0  0
    6.2431    7.7317   22.1720 H   0  0  0  0  0  0  0  0  0  0  0  0
    8.1305    7.4954   23.9155 H   0  0  0  0  0  0  0  0  0  0  0  0
    9.5720    6.0288   25.2828 H   0  0  0  0  0  0  0  0  0  0  0  0
    9.4146    3.5808   25.0862 H   0  0  0  0  0  0  0  0  0  0  0  0
    8.2413    1.5867   24.3598 H   0  0  0  0  0  0  0  0  0  0  0  0
    7.4282    1.9881   21.4040 H   0  0  0  0  0  0  0  0  0  0  0  0
    6.6879    0.0833   19.9357 C   0  0  0  0  0  0  0  0  0  0  0  0
    5.4599    0.7217   20.1627 C   0  0  0  0  0  0  0  0  0  0  0  0
    4.8152    1.3282   19.0774 C   0  0  0  0  0  0  0  0  0  0  0  0
    5.4172    1.3055   17.8152 C   0  0  0  0  0  0  0  0  0  0  0  0
    6.5855    0.6893   17.5742 N   0  0  0  0  0  0  0  0  0  0  0  0
    7.1852    0.0856   18.6106 C   0  0  0  0  0  0  0  0  0  0  0  0
    8.1215   -0.4280   18.3964 H   0  0  0  0  0  0  0  0  0  0  0  0
    4.9410    1.7942   16.9680 H   0  0  0  0  0  0  0  0  0  0  0  0
    3.8594    1.8207   19.2071 H   0  0  0  0  0  0  0  0  0  0  0  0
    5.0357    0.7460   21.1687 H   0  0  0  0  0  0  0  0  0  0  0  0
    8.7403   -2.1758   20.5487 H   0  0  0  0  0  0  0  0  0  0  0  0
    7.5061   -2.5328   21.7836 H   0  0  0  0  0  0  0  0  0  0  0  0
    7.0211   -2.4422   20.0865 H   0  0  0  0  0  0  0  0  0  0  0  0
  1  2  1  0
  2  3  1  0
  3  4  2  0
  3  5  1  0
  5  6  2  3
  6  7  1  0
  7  8  2  0
  8  9  1  0
  9 10  2  0
 10 11  1  0
 11 12  2  0
 12 13  1  0
 13 14  2  0
 14 15  1  0
 15 16  2  0
 14 17  1  0
 13 18  1  0
 12 19  1  0
 10 20  1  0
  9 21  1  0
  8 22  1  0
  6 23  1  0
  5 24  1  0
  2 25  1  0
 25 26  2  0
 26 27  1  0
 27 28  2  0
 28 29  1  0
 29 30  2  0
 30 31  1  0
 28 32  1  0
 27 33  1  0
 26 34  1  0
  1 35  1  0
  1 36  1  0
  1 37  1  0
 16  7  1  0
 30 25  1  0
 16 11  1  0
M  END
>  <cnnaffinity>  (1) 
-5.0451

>  <filename>  (1) 
CN(C(=O)C=Cc1cccc2cccnc12)c1cccnc1

$$$$
