
     RDKit          3D

 36 37  0  0  0  0  0  0  0  0999 V2000
    5.0618    1.7849   17.0115 H   0  0  0  0  0  0  0  0  0  0  0  0
    5.4754    1.2707   17.8746 C   0  0  0  0  0  0  0  0  0  0  0  0
    6.6398    0.6373   17.6696 N   0  0  0  0  0  0  0  0  0  0  0  0
    7.1909    0.0020   18.6979 C   0  0  0  0  0  0  0  0  0  0  0  0
    8.1247   -0.5211   18.4994 H   0  0  0  0  0  0  0  0  0  0  0  0
    6.5898   -0.0383   19.9461 C   0  0  0  0  0  0  0  0  0  0  0  0
    7.4869   -0.9214   21.1361 S   0  0  0  0  0  0  0  0  0  0  0  0
    8.4125   -1.8101   20.4642 O   0  0  0  0  0  0  0  0  0  0  0  0
    6.5807   -1.3353   22.1762 O   0  0  0  0  0  0  0  0  0  0  0  0
    8.6136    0.2397   21.6872 N   0  0  0  0  0  0  0  0  0  0  0  0
    9.1953    0.1281   20.8671 H   0  0  0  0  0  0  0  0  0  0  0  0
    8.2845    1.6061   22.0231 N   0  0  0  0  0  0  0  0  0  0  0  0
    7.6332    1.6461   23.3432 C   0  0  0  0  0  0  0  0  0  0  0  0
    6.5489    1.5593   23.2054 H   0  0  0  0  0  0  0  0  0  0  0  0
    7.9604    0.7781   23.9354 H   0  0  0  0  0  0  0  0  0  0  0  0
    8.0824    2.9610   23.9868 C   0  0  0  0  0  0  0  0  0  0  0  0
    8.7400    2.7516   24.8388 H   0  0  0  0  0  0  0  0  0  0  0  0
    7.2353    3.5532   24.3487 H   0  0  0  0  0  0  0  0  0  0  0  0
    8.9012    3.7211   22.9182 C   0  0  1  0  0  0  0  0  0  0  0  0
    8.2155    4.3332   22.2985 H   0  0  0  0  0  0  0  0  0  0  0  0
    9.9325    4.5716   23.5424 N   0  0  0  0  0  0  0  0  0  0  0  0
   10.8573    5.1976   22.6041 C   0  0  0  0  0  0  0  0  0  0  0  0
   11.6405    5.7274   23.1590 H   0  0  0  0  0  0  0  0  0  0  0  0
   10.3697    5.9429   21.9443 H   0  0  0  0  0  0  0  0  0  0  0  0
   11.3694    4.4475   21.9916 H   0  0  0  0  0  0  0  0  0  0  0  0
    9.3503    5.5975   24.4093 C   0  0  0  0  0  0  0  0  0  0  0  0
   10.1479    6.2123   24.8430 H   0  0  0  0  0  0  0  0  0  0  0  0
    8.8071    5.1479   25.2465 H   0  0  0  0  0  0  0  0  0  0  0  0
    8.6578    6.2767   23.8737 H   0  0  0  0  0  0  0  0  0  0  0  0
    9.4068    2.5705   22.0225 C   0  0  0  0  0  0  0  0  0  0  0  0
    9.5989    2.8987   20.9965 H   0  0  0  0  0  0  0  0  0  0  0  0
   10.3408    2.1415   22.4274 H   0  0  0  0  0  0  0  0  0  0  0  0
    5.3825    0.6276   20.1927 C   0  0  0  0  0  0  0  0  0  0  0  0
    4.8963    0.6344   21.1732 H   0  0  0  0  0  0  0  0  0  0  0  0
    4.8195    1.2953   19.1112 C   0  0  0  0  0  0  0  0  0  0  0  0
    3.8935    1.8512   19.2030 H   0  0  0  0  0  0  0  0  0  0  0  0
  1  2  1  0
  2  3  2  0
  3  4  1  0
  4  5  1  0
  4  6  2  0
  6  7  1  0
  7  8  2  0
  7  9  2  0
  7 10  1  0
 10 11  1  0
 10 12  1  0
 12 13  1  0
 13 14  1  0
 13 15  1  0
 13 16  1  0
 16 17  1  0
 16 18  1  0
 16 19  1  0
 19 20  1  6
 19 21  1  0
 21 22  1  0
 22 23  1  0
 22 24  1  0
 22 25  1  0
 21 26  1  0
 26 27  1  0
 26 28  1  0
 26 29  1  0
 19 30  1  0
 30 31  1  0
 30 32  1  0
  6 33  1  0
 33 34  1  0
 33 35  2  0
 35 36  1  0
 35  2  1  0
 30 12  1  0
M  END
>  <cnnaffinity>  (1) 
-3.83801

>  <filename>  (1) 
CN(C)[C@@H]1CCN(NS(=O)(=O)c2cccnc2)C1

$$$$
