
     RDKit          3D

 30 31  0  0  0  0  0  0  0  0999 V2000
    4.9720    1.8066   16.9645 H   0  0  0  0  0  0  0  0  0  0  0  0
    5.4252    1.2965   17.8113 C   0  0  0  0  0  0  0  0  0  0  0  0
    6.5873    0.6668   17.5827 N   0  0  0  0  0  0  0  0  0  0  0  0
    7.1642    0.0547   18.6256 C   0  0  0  0  0  0  0  0  0  0  0  0
    8.1078   -0.4531   18.4092 H   0  0  0  0  0  0  0  0  0  0  0  0
    6.6187    0.0203   19.9187 C   0  0  0  0  0  0  0  0  0  0  0  0
    7.3937   -0.6255   21.0534 C   0  0  0  0  0  0  0  0  0  0  0  0
    6.7107   -0.8538   21.8839 H   0  0  0  0  0  0  0  0  0  0  0  0
    7.7875   -1.6000   20.7284 H   0  0  0  0  0  0  0  0  0  0  0  0
    8.4999    0.1895   21.5448 N   0  0  0  0  0  0  0  0  0  0  0  0
    8.2313    1.4447   22.1004 C   0  0  0  0  0  0  0  0  0  0  0  0
    9.0032    2.5793   21.7802 C   0  0  0  0  0  0  0  0  0  0  0  0
    9.8193    2.5119   21.0664 H   0  0  0  0  0  0  0  0  0  0  0  0
    8.6913    3.8130   22.3403 C   0  0  0  0  0  0  0  0  0  0  0  0
    9.3035    4.6762   22.1033 H   0  0  0  0  0  0  0  0  0  0  0  0
    7.6001    3.9680   23.2163 C   0  0  0  0  0  0  0  0  0  0  0  0
    7.3457    5.3094   23.6893 C   0  0  0  0  0  0  0  0  0  0  0  0
    7.2527    6.4200   24.0107 N   0  0  0  0  0  0  0  0  0  0  0  0
    6.8461    2.8341   23.5747 C   0  0  0  0  0  0  0  0  0  0  0  0
    6.0109    2.9024   24.2783 H   0  0  0  0  0  0  0  0  0  0  0  0
    7.1624    1.5956   23.0189 C   0  0  0  0  0  0  0  0  0  0  0  0
    6.5928    0.7153   23.3068 H   0  0  0  0  0  0  0  0  0  0  0  0
    9.8321   -0.2541   21.1899 C   0  0  0  0  0  0  0  0  0  0  0  0
   10.0076   -0.2299   20.1056 H   0  0  0  0  0  0  0  0  0  0  0  0
    9.9481   -1.2961   21.5181 H   0  0  0  0  0  0  0  0  0  0  0  0
   10.6151    0.3274   21.6865 H   0  0  0  0  0  0  0  0  0  0  0  0
    5.4002    0.6797   20.1318 C   0  0  0  0  0  0  0  0  0  0  0  0
    4.9461    0.7064   21.1260 H   0  0  0  0  0  0  0  0  0  0  0  0
    4.7912    1.3249   19.0557 C   0  0  0  0  0  0  0  0  0  0  0  0
    3.8469    1.8439   19.1749 H   0  0  0  0  0  0  0  0  0  0  0  0
  1  2  1  0
  2  3  2  0
  3  4  1  0
  4  5  1  0
  4  6  2  0
  6  7  1  0
  7  8  1  0
  7  9  1  0
  7 10  1  0
 10 11  1  0
 11 12  2  0
 12 13  1  0
 12 14  1  0
 14 15  1  0
 14 16  2  0
 16 17  1  0
 17 18  3  0
 16 19  1  0
 19 20  1  0
 19 21  2  0
 21 22  1  0
 10 23  1  0
 23 24  1  0
 23 25  1  0
 23 26  1  0
  6 27  1  0
 27 28  1  0
 27 29  2  0
 29 30  1  0
 29  2  1  0
 21 11  1  0
M  END
>  <cnnaffinity>  (1) 
-4.01607

>  <filename>  (1) 
CN(Cc1cccnc1)c1ccc(C#N)cc1

$$$$
