
     RDKit          3D

 29 30  0  0  0  0  0  0  0  0999 V2000
    4.9254    1.7834   16.9933 H   0  0  0  0  0  0  0  0  0  0  0  0
    5.4200    1.2804   17.8213 C   0  0  0  0  0  0  0  0  0  0  0  0
    6.5883    0.6725   17.5519 N   0  0  0  0  0  0  0  0  0  0  0  0
    7.2311    0.0678   18.5671 C   0  0  0  0  0  0  0  0  0  0  0  0
    8.1696   -0.4186   18.3017 H   0  0  0  0  0  0  0  0  0  0  0  0
    6.7560    0.0207   19.9018 C   0  0  0  0  0  0  0  0  0  0  0  0
    7.4268   -0.6443   20.9784 N   0  0  0  0  0  0  0  0  0  0  0  0
    8.8236   -0.5241   21.2230 C   0  0  0  0  0  0  0  0  0  0  0  0
    9.6591   -1.6546   21.1640 C   0  0  0  0  0  0  0  0  0  0  0  0
    9.2294   -2.6074   20.8718 H   0  0  0  0  0  0  0  0  0  0  0  0
   11.0164   -1.5553   21.4743 C   0  0  0  0  0  0  0  0  0  0  0  0
   11.6294   -2.4492   21.5035 H   0  0  0  0  0  0  0  0  0  0  0  0
   11.5817   -0.3116   21.7541 C   0  0  0  0  0  0  0  0  0  0  0  0
   12.6374   -0.2236   21.9853 H   0  0  0  0  0  0  0  0  0  0  0  0
   10.7707    0.8201   21.8099 C   0  0  0  0  0  0  0  0  0  0  0  0
   11.2306    1.7854   22.0096 H   0  0  0  0  0  0  0  0  0  0  0  0
    9.3838    0.7063   21.6231 C   0  0  0  0  0  0  0  0  0  0  0  0
    8.4660    1.8859   21.8491 C   0  0  0  0  0  0  0  0  0  0  0  0
    9.0789    2.9136   22.4731 F   0  0  0  0  0  0  0  0  0  0  0  0
    7.3817    1.6014   22.5930 F   0  0  0  0  0  0  0  0  0  0  0  0
    8.0232    2.3619   20.6744 F   0  0  0  0  0  0  0  0  0  0  0  0
    6.7175   -1.7598   21.5933 C   0  0  0  0  0  0  0  0  0  0  0  0
    6.7188   -2.6660   20.9654 H   0  0  0  0  0  0  0  0  0  0  0  0
    5.6736   -1.4879   21.7742 H   0  0  0  0  0  0  0  0  0  0  0  0
    7.1787   -1.9938   22.5587 H   0  0  0  0  0  0  0  0  0  0  0  0
    5.5226    0.6504   20.1479 C   0  0  0  0  0  0  0  0  0  0  0  0
    5.1357    0.6704   21.1675 H   0  0  0  0  0  0  0  0  0  0  0  0
    4.8479    1.2851   19.0965 C   0  0  0  0  0  0  0  0  0  0  0  0
    3.9006    1.7894   19.2598 H   0  0  0  0  0  0  0  0  0  0  0  0
  1  2  1  0
  2  3  2  0
  3  4  1  0
  4  5  1  0
  4  6  2  0
  6  7  1  0
  7  8  1  0
  8  9  2  0
  9 10  1  0
  9 11  1  0
 11 12  1  0
 11 13  2  0
 13 14  1  0
 13 15  1  0
 15 16  1  0
 15 17  2  0
 17 18  1  0
 18 19  1  0
 18 20  1  0
 18 21  1  0
  7 22  1  0
 22 23  1  0
 22 24  1  0
 22 25  1  0
  6 26  1  0
 26 27  1  0
 26 28  2  0
 28 29  1  0
 28  2  1  0
 17  8  1  0
M  END
>  <cnnaffinity>  (1) 
-4.52308

>  <filename>  (1) 
CN(c1cccnc1)c1ccccc1C(F)(F)F

$$$$
