
     RDKit          3D

 42 44  0  0  0  0  0  0  0  0999 V2000
    4.9319    1.8124   16.9711 H   0  0  0  0  0  0  0  0  0  0  0  0
    5.3938    1.3041   17.8172 C   0  0  0  0  0  0  0  0  0  0  0  0
    6.5575    0.6841   17.5683 N   0  0  0  0  0  0  0  0  0  0  0  0
    7.1569    0.0657   18.5970 C   0  0  0  0  0  0  0  0  0  0  0  0
    8.1085   -0.4149   18.3609 H   0  0  0  0  0  0  0  0  0  0  0  0
    6.6435    0.0052   19.9043 C   0  0  0  0  0  0  0  0  0  0  0  0
    7.4222   -0.6593   21.0252 C   0  0  0  0  0  0  0  0  0  0  0  0
    7.8099   -1.6314   20.6835 H   0  0  0  0  0  0  0  0  0  0  0  0
    6.7504   -0.8797   21.8657 H   0  0  0  0  0  0  0  0  0  0  0  0
    8.5977    0.1719   21.5491 C   0  0  0  0  0  0  0  0  0  0  0  0
    8.2869    1.6220   21.9071 C   0  0  0  0  0  0  0  0  0  0  0  0
    8.0950    2.1483   20.9600 H   0  0  0  0  0  0  0  0  0  0  0  0
    9.2013    2.0767   22.3448 H   0  0  0  0  0  0  0  0  0  0  0  0
    7.1251    1.8118   22.7737 N   0  0  0  0  0  0  0  0  0  0  0  0
    6.5722    3.1554   22.6677 C   0  0  0  0  0  0  0  0  0  0  0  0
    5.6460    3.2137   23.2492 H   0  0  0  0  0  0  0  0  0  0  0  0
    7.2623    3.9415   23.0372 H   0  0  0  0  0  0  0  0  0  0  0  0
    6.3233    3.3781   21.6213 H   0  0  0  0  0  0  0  0  0  0  0  0
    7.3911    1.4338   24.1692 C   0  0  0  0  0  0  0  0  0  0  0  0
    8.0772    2.1524   24.6599 H   0  0  0  0  0  0  0  0  0  0  0  0
    7.8997    0.4628   24.1454 H   0  0  0  0  0  0  0  0  0  0  0  0
    6.1330    1.2556   25.0013 C   0  0  0  0  0  0  0  0  0  0  0  0
    5.3409    0.1252   24.7583 C   0  0  0  0  0  0  0  0  0  0  0  0
    5.7161   -0.6361   24.0750 H   0  0  0  0  0  0  0  0  0  0  0  0
    4.1048   -0.0396   25.3851 C   0  0  0  0  0  0  0  0  0  0  0  0
    3.4710   -0.8802   25.1130 H   0  0  0  0  0  0  0  0  0  0  0  0
    3.6824    0.8876   26.3402 C   0  0  0  0  0  0  0  0  0  0  0  0
    2.7337    0.7354   26.8447 H   0  0  0  0  0  0  0  0  0  0  0  0
    4.4931    1.9840   26.6543 C   0  0  0  0  0  0  0  0  0  0  0  0
    4.1818    2.6755   27.4340 H   0  0  0  0  0  0  0  0  0  0  0  0
    5.7085    2.1723   25.9809 C   0  0  0  0  0  0  0  0  0  0  0  0
    6.3306    3.0297   26.2283 H   0  0  0  0  0  0  0  0  0  0  0  0
    9.9433   -0.0524   20.9127 C   0  0  0  0  0  0  0  0  0  0  0  0
   10.5967    0.8099   20.8170 H   0  0  0  0  0  0  0  0  0  0  0  0
    9.9943   -0.7462   20.0758 H   0  0  0  0  0  0  0  0  0  0  0  0
    9.6769   -0.5652   22.3061 C   0  0  0  0  0  0  0  0  0  0  0  0
    9.5661   -1.6345   22.4734 H   0  0  0  0  0  0  0  0  0  0  0  0
   10.1639   -0.0538   23.1366 H   0  0  0  0  0  0  0  0  0  0  0  0
    5.4280    0.6688   20.1347 C   0  0  0  0  0  0  0  0  0  0  0  0
    5.0072    0.6854   21.1420 H   0  0  0  0  0  0  0  0  0  0  0  0
    4.7861    1.3230   19.0758 C   0  0  0  0  0  0  0  0  0  0  0  0
    3.8494    1.8593   19.2118 H   0  0  0  0  0  0  0  0  0  0  0  0
  1  2  1  0
  2  3  2  0
  3  4  1  0
  4  5  1  0
  4  6  2  0
  6  7  1  0
  7  8  1  0
  7  9  1  0
  7 10  1  0
 10 11  1  0
 11 12  1  0
 11 13  1  0
 11 14  1  0
 14 15  1  0
 15 16  1  0
 15 17  1  0
 15 18  1  0
 14 19  1  0
 19 20  1  0
 19 21  1  0
 19 22  1  0
 22 23  2  0
 23 24  1  0
 23 25  1  0
 25 26  1  0
 25 27  2  0
 27 28  1  0
 27 29  1  0
 29 30  1  0
 29 31  2  0
 31 32  1  0
 10 33  1  0
 33 34  1  0
 33 35  1  0
 33 36  1  0
 36 37  1  0
 36 38  1  0
  6 39  1  0
 39 40  1  0
 39 41  2  0
 41 42  1  0
 41  2  1  0
 36 10  1  0
 31 22  1  0
M  END
>  <cnnaffinity>  (1) 
-5.03302

>  <filename>  (1) 
CN(Cc1ccccc1)CC1(Cc2cccnc2)CC1

$$$$
