
     RDKit          3D

 44 46  0  0  0  0  0  0  0  0999 V2000
    4.9480    1.8046   16.9748 H   0  0  0  0  0  0  0  0  0  0  0  0
    5.4361    1.2785   17.7922 C   0  0  0  0  0  0  0  0  0  0  0  0
    6.5726    0.6277   17.4899 N   0  0  0  0  0  0  0  0  0  0  0  0
    7.1998   -0.0104   18.4904 C   0  0  0  0  0  0  0  0  0  0  0  0
    8.0999   -0.5537   18.2021 H   0  0  0  0  0  0  0  0  0  0  0  0
    6.7756   -0.0221   19.8514 C   0  0  0  0  0  0  0  0  0  0  0  0
    7.5128   -0.6674   20.8546 N   0  0  0  0  0  0  0  0  0  0  0  0
    8.0890   -1.4300   20.5269 H   0  0  0  0  0  0  0  0  0  0  0  0
    7.8191   -0.1763   22.2089 C   0  0  0  0  0  0  0  0  0  0  0  0
    9.0325   -0.9013   22.8017 C   0  0  0  0  0  0  0  0  0  0  0  0
    8.8954   -1.9895   22.6197 H   0  0  0  0  0  0  0  0  0  0  0  0
    8.9897   -0.7692   23.8927 H   0  0  0  0  0  0  0  0  0  0  0  0
   10.3278   -0.4269   22.3757 N   0  0  0  0  0  0  0  0  0  0  0  0
   10.5934   -0.5873   20.9585 C   0  0  0  0  0  0  0  0  0  0  0  0
   11.6642   -0.4597   20.7557 H   0  0  0  0  0  0  0  0  0  0  0  0
   10.0218    0.1641   20.3964 H   0  0  0  0  0  0  0  0  0  0  0  0
   10.3077   -1.5871   20.5907 H   0  0  0  0  0  0  0  0  0  0  0  0
   11.4143   -0.8541   23.2327 C   0  0  0  0  0  0  0  0  0  0  0  0
   11.8063   -1.8404   22.9167 H   0  0  0  0  0  0  0  0  0  0  0  0
   11.0381   -0.9555   24.2603 H   0  0  0  0  0  0  0  0  0  0  0  0
   12.4979    0.1980   23.2478 C   0  0  0  0  0  0  0  0  0  0  0  0
   13.8063   -0.0454   22.8103 C   0  0  0  0  0  0  0  0  0  0  0  0
   14.1533   -1.0688   22.6631 H   0  0  0  0  0  0  0  0  0  0  0  0
   14.6364    1.0397   22.5290 C   0  0  0  0  0  0  0  0  0  0  0  0
   15.5965    0.8971   22.0384 H   0  0  0  0  0  0  0  0  0  0  0  0
   14.1974    2.3445   22.7747 C   0  0  0  0  0  0  0  0  0  0  0  0
   14.8362    3.1804   22.4975 H   0  0  0  0  0  0  0  0  0  0  0  0
   12.9515    2.5876   23.3435 C   0  0  0  0  0  0  0  0  0  0  0  0
   12.6150    3.6020   23.5308 H   0  0  0  0  0  0  0  0  0  0  0  0
   12.1088    1.5069   23.5782 C   0  0  0  0  0  0  0  0  0  0  0  0
   11.1076    1.6689   23.9685 H   0  0  0  0  0  0  0  0  0  0  0  0
    6.6397   -0.3493   23.1831 C   0  0  0  0  0  0  0  0  0  0  0  0
    6.8171   -1.0036   24.0456 H   0  0  0  0  0  0  0  0  0  0  0  0
    5.8473   -0.7622   22.5877 H   0  0  0  0  0  0  0  0  0  0  0  0
    6.6191    1.1672   23.4709 C   0  0  0  0  0  0  0  0  0  0  0  0
    6.8660    1.4256   24.5055 H   0  0  0  0  0  0  0  0  0  0  0  0
    5.6815    1.6753   23.2218 H   0  0  0  0  0  0  0  0  0  0  0  0
    7.7791    1.3679   22.4513 C   0  0  0  0  0  0  0  0  0  0  0  0
    7.5083    1.9547   21.5674 H   0  0  0  0  0  0  0  0  0  0  0  0
    8.7074    1.7820   22.8638 H   0  0  0  0  0  0  0  0  0  0  0  0
    5.5574    0.6261   20.1162 C   0  0  0  0  0  0  0  0  0  0  0  0
    5.1546    0.6104   21.1257 H   0  0  0  0  0  0  0  0  0  0  0  0
    4.8853    1.2852   19.0781 C   0  0  0  0  0  0  0  0  0  0  0  0
    3.9501    1.8054   19.2590 H   0  0  0  0  0  0  0  0  0  0  0  0
  1  2  1  0
  2  3  2  0
  3  4  1  0
  4  5  1  0
  4  6  2  0
  6  7  1  0
  7  8  1  0
  7  9  1  0
  9 10  1  0
 10 11  1  0
 10 12  1  0
 10 13  1  0
 13 14  1  0
 14 15  1  0
 14 16  1  0
 14 17  1  0
 13 18  1  0
 18 19  1  0
 18 20  1  0
 18 21  1  0
 21 22  2  0
 22 23  1  0
 22 24  1  0
 24 25  1  0
 24 26  2  0
 26 27  1  0
 26 28  1  0
 28 29  1  0
 28 30  2  0
 30 31  1  0
  9 32  1  0
 32 33  1  0
 32 34  1  0
 32 35  1  0
 35 36  1  0
 35 37  1  0
 35 38  1  0
 38 39  1  0
 38 40  1  0
  6 41  1  0
 41 42  1  0
 41 43  2  0
 43 44  1  0
 43  2  1  0
 38  9  1  0
 30 21  1  0
M  END
>  <cnnaffinity>  (1) 
-5.0919

>  <filename>  (1) 
CN(Cc1ccccc1)CC1(Nc2cccnc2)CCC1

$$$$
