
     RDKit          3D

 34 35  0  0  0  0  0  0  0  0999 V2000
    7.5186   -2.1095   20.9082 C   0  0  0  0  0  0  0  0  0  0  0  0
    7.2294   -0.6735   21.0399 N   0  0  0  0  0  0  0  0  0  0  0  0
    7.5103   -0.0865   22.2863 C   0  0  0  0  0  0  0  0  0  0  0  0
    7.6190   -0.7675   23.2889 O   0  0  0  0  0  0  0  0  0  0  0  0
    7.7815    1.4162   22.3098 C   0  0  0  0  0  0  0  0  0  0  0  0
    8.9469    1.8263   21.3782 C   0  0  0  0  0  0  0  0  0  0  0  0
   10.2612    1.1477   21.7262 C   0  0  0  0  0  0  0  0  0  0  0  0
   10.5712   -0.1254   21.2150 C   0  0  0  0  0  0  0  0  0  0  0  0
   11.7552   -0.7835   21.5526 C   0  0  0  0  0  0  0  0  0  0  0  0
   12.6855   -0.1543   22.3784 C   0  0  0  0  0  0  0  0  0  0  0  0
   12.4016    1.1056   22.9098 C   0  0  0  0  0  0  0  0  0  0  0  0
   13.5571    1.8470   23.9515 Cl  0  0  0  0  0  0  0  0  0  0  0  0
   11.1874    1.7454   22.6051 C   0  0  0  0  0  0  0  0  0  0  0  0
   10.8186    3.2782   23.3377 Cl  0  0  0  0  0  0  0  0  0  0  0  0
   13.6360   -0.6256   22.6098 H   0  0  0  0  0  0  0  0  0  0  0  0
   11.9670   -1.7719   21.1515 H   0  0  0  0  0  0  0  0  0  0  0  0
    9.8825   -0.5917   20.5178 H   0  0  0  0  0  0  0  0  0  0  0  0
    9.0778    2.9103   21.4154 H   0  0  0  0  0  0  0  0  0  0  0  0
    8.6769    1.6091   20.3414 H   0  0  0  0  0  0  0  0  0  0  0  0
    6.8812    1.9802   22.0436 H   0  0  0  0  0  0  0  0  0  0  0  0
    8.0130    1.6682   23.3459 H   0  0  0  0  0  0  0  0  0  0  0  0
    6.6184    0.0262   19.9442 C   0  0  0  0  0  0  0  0  0  0  0  0
    5.4290    0.7377   20.1497 C   0  0  0  0  0  0  0  0  0  0  0  0
    4.8195    1.3708   19.0601 C   0  0  0  0  0  0  0  0  0  0  0  0
    5.4290    1.3008   17.8062 C   0  0  0  0  0  0  0  0  0  0  0  0
    6.5712    0.6336   17.5830 N   0  0  0  0  0  0  0  0  0  0  0  0
    7.1376    0.0009   18.6249 C   0  0  0  0  0  0  0  0  0  0  0  0
    8.0652   -0.5363   18.4144 H   0  0  0  0  0  0  0  0  0  0  0  0
    4.9756    1.7814   16.9418 H   0  0  0  0  0  0  0  0  0  0  0  0
    3.8911    1.9113   19.1869 H   0  0  0  0  0  0  0  0  0  0  0  0
    5.0056    0.7765   21.1518 H   0  0  0  0  0  0  0  0  0  0  0  0
    8.5744   -2.3035   20.6696 H   0  0  0  0  0  0  0  0  0  0  0  0
    6.8866   -2.5317   20.1236 H   0  0  0  0  0  0  0  0  0  0  0  0
    7.3154   -2.6164   21.8558 H   0  0  0  0  0  0  0  0  0  0  0  0
  1  2  1  0
  2  3  1  0
  3  4  2  0
  3  5  1  0
  5  6  1  0
  6  7  1  0
  7  8  2  0
  8  9  1  0
  9 10  2  0
 10 11  1  0
 11 12  1  0
 11 13  2  0
 13 14  1  0
 10 15  1  0
  9 16  1  0
  8 17  1  0
  6 18  1  0
  6 19  1  0
  5 20  1  0
  5 21  1  0
  2 22  1  0
 22 23  2  0
 23 24  1  0
 24 25  2  0
 25 26  1  0
 26 27  2  0
 27 28  1  0
 25 29  1  0
 24 30  1  0
 23 31  1  0
  1 32  1  0
  1 33  1  0
  1 34  1  0
 13  7  1  0
 27 22  1  0
M  END
>  <cnnaffinity>  (1) 
-5.07245

>  <filename>  (1) 
CN(C(=O)CCc1cccc(Cl)c1Cl)c1cccnc1

$$$$
