
     RDKit          3D

 40 41  0  0  0  0  0  0  0  0999 V2000
   10.1476   -0.7682   21.8321 C   0  0  0  0  0  0  0  0  0  0  0  0
    9.0571   -0.2677   22.6828 N   0  0  0  0  0  0  0  0  0  0  0  0
    9.5185    0.3089   23.9582 C   0  0  0  0  0  0  0  0  0  0  0  0
   10.3029    1.6461   23.8954 C   0  0  0  0  0  0  0  0  0  0  0  0
   11.5200    1.6676   24.0030 O   0  0  0  0  0  0  0  0  0  0  0  0
    9.5107    2.7406   23.7145 N   0  0  0  0  0  0  0  0  0  0  0  0
    9.7991    4.0727   24.0564 C   0  0  0  0  0  0  0  0  0  0  0  0
    8.7209    4.9560   24.2207 C   0  0  0  0  0  0  0  0  0  0  0  0
    8.9536    6.2682   24.6435 C   0  0  0  0  0  0  0  0  0  0  0  0
   10.2636    6.7173   24.8458 C   0  0  0  0  0  0  0  0  0  0  0  0
   11.3402    5.8455   24.6410 C   0  0  0  0  0  0  0  0  0  0  0  0
   11.1133    4.5174   24.2621 C   0  0  0  0  0  0  0  0  0  0  0  0
   11.9189    3.8094   24.1269 H   0  0  0  0  0  0  0  0  0  0  0  0
   12.3633    6.1864   24.7957 H   0  0  0  0  0  0  0  0  0  0  0  0
   10.4455    7.7421   25.1557 H   0  0  0  0  0  0  0  0  0  0  0  0
    8.1141    6.9360   24.8320 H   0  0  0  0  0  0  0  0  0  0  0  0
    7.7059    4.6113   24.0362 H   0  0  0  0  0  0  0  0  0  0  0  0
    8.5671    2.5264   23.4127 H   0  0  0  0  0  0  0  0  0  0  0  0
   10.1996   -0.3949   24.4362 H   0  0  0  0  0  0  0  0  0  0  0  0
    8.6569    0.4367   24.6179 H   0  0  0  0  0  0  0  0  0  0  0  0
    7.8443    0.1871   22.1569 C   0  0  0  0  0  0  0  0  0  0  0  0
    7.2752    1.1654   22.6361 O   0  0  0  0  0  0  0  0  0  0  0  0
    7.3591   -0.5347   21.0650 N   0  0  0  0  0  0  0  0  0  0  0  0
    7.5899   -1.9740   20.9526 C   0  0  0  0  0  0  0  0  0  0  0  0
    8.5627   -2.2248   20.5105 H   0  0  0  0  0  0  0  0  0  0  0  0
    7.5204   -2.4453   21.9362 H   0  0  0  0  0  0  0  0  0  0  0  0
    6.8091   -2.4015   20.3191 H   0  0  0  0  0  0  0  0  0  0  0  0
    6.6768    0.1224   19.9913 C   0  0  0  0  0  0  0  0  0  0  0  0
    5.5295    0.8866   20.2326 C   0  0  0  0  0  0  0  0  0  0  0  0
    4.8688    1.4388   19.1277 C   0  0  0  0  0  0  0  0  0  0  0  0
    5.3840    1.2390   17.8406 C   0  0  0  0  0  0  0  0  0  0  0  0
    6.4875    0.5163   17.5931 N   0  0  0  0  0  0  0  0  0  0  0  0
    7.1005   -0.0331   18.6472 C   0  0  0  0  0  0  0  0  0  0  0  0
    7.9912   -0.6204   18.4304 H   0  0  0  0  0  0  0  0  0  0  0  0
    4.9004    1.6803   16.9728 H   0  0  0  0  0  0  0  0  0  0  0  0
    3.9723    2.0343   19.2591 H   0  0  0  0  0  0  0  0  0  0  0  0
    5.1909    1.0296   21.2588 H   0  0  0  0  0  0  0  0  0  0  0  0
   11.0887   -0.2893   22.1237 H   0  0  0  0  0  0  0  0  0  0  0  0
   10.2883   -1.8536   21.9198 H   0  0  0  0  0  0  0  0  0  0  0  0
    9.9789   -0.5172   20.7820 H   0  0  0  0  0  0  0  0  0  0  0  0
  1  2  1  0
  2  3  1  0
  3  4  1  0
  4  5  2  0
  4  6  1  0
  6  7  1  0
  7  8  2  0
  8  9  1  0
  9 10  2  0
 10 11  1  0
 11 12  2  0
 12 13  1  0
 11 14  1  0
 10 15  1  0
  9 16  1  0
  8 17  1  0
  6 18  1  0
  3 19  1  0
  3 20  1  0
  2 21  1  0
 21 22  2  0
 21 23  1  0
 23 24  1  0
 24 25  1  0
 24 26  1  0
 24 27  1  0
 23 28  1  0
 28 29  2  0
 29 30  1  0
 30 31  2  0
 31 32  1  0
 32 33  2  0
 33 34  1  0
 31 35  1  0
 30 36  1  0
 29 37  1  0
  1 38  1  0
  1 39  1  0
  1 40  1  0
 12  7  1  0
 33 28  1  0
M  END
>  <cnnaffinity>  (1) 
-4.93596

>  <filename>  (1) 
CN(CC(=O)Nc1ccccc1)C(=O)N(C)c1cccnc1

$$$$
