
     RDKit          3D

 28 29  0  0  0  0  0  0  0  0999 V2000
    4.9313    1.7740   16.9983 H   0  0  0  0  0  0  0  0  0  0  0  0
    5.4104    1.2855   17.8460 C   0  0  0  0  0  0  0  0  0  0  0  0
    6.5737    0.6643   17.6032 N   0  0  0  0  0  0  0  0  0  0  0  0
    7.1759    0.0550   18.6286 C   0  0  0  0  0  0  0  0  0  0  0  0
    8.1143   -0.4438   18.3899 H   0  0  0  0  0  0  0  0  0  0  0  0
    6.6621    0.0431   19.9292 C   0  0  0  0  0  0  0  0  0  0  0  0
    7.4040   -0.7196   20.9795 C   0  0  0  0  0  0  0  0  0  0  0  0
    7.9702   -1.7669   20.7255 O   0  0  0  0  0  0  0  0  0  0  0  0
    7.3875   -0.1965   22.2705 N   0  0  0  0  0  0  0  0  0  0  0  0
    7.3821    1.2140   22.5359 C   0  0  0  0  0  0  0  0  0  0  0  0
    6.3844    1.7395   23.3724 C   0  0  0  0  0  0  0  0  0  0  0  0
    5.6698    1.0462   23.8035 H   0  0  0  0  0  0  0  0  0  0  0  0
    6.2940    3.1111   23.6306 C   0  0  0  0  0  0  0  0  0  0  0  0
    5.5048    3.4998   24.2665 H   0  0  0  0  0  0  0  0  0  0  0  0
    7.2259    3.9849   23.0680 C   0  0  0  0  0  0  0  0  0  0  0  0
    7.1689    5.0536   23.2539 H   0  0  0  0  0  0  0  0  0  0  0  0
    8.2486    3.4829   22.2631 C   0  0  0  0  0  0  0  0  0  0  0  0
    8.9841    4.1535   21.8352 H   0  0  0  0  0  0  0  0  0  0  0  0
    8.3350    2.1106   22.0066 C   0  0  0  0  0  0  0  0  0  0  0  0
    9.6750    1.5503   21.0498 Cl  0  0  0  0  0  0  0  0  0  0  0  0
    7.7810   -1.0856   23.3669 C   0  0  0  0  0  0  0  0  0  0  0  0
    8.8603   -1.2875   23.3864 H   0  0  0  0  0  0  0  0  0  0  0  0
    7.4994   -0.6296   24.3202 H   0  0  0  0  0  0  0  0  0  0  0  0
    7.2611   -2.0417   23.2746 H   0  0  0  0  0  0  0  0  0  0  0  0
    5.4353    0.6759   20.1713 C   0  0  0  0  0  0  0  0  0  0  0  0
    4.9859    0.6537   21.1677 H   0  0  0  0  0  0  0  0  0  0  0  0
    4.8016    1.3092   19.1072 C   0  0  0  0  0  0  0  0  0  0  0  0
    3.8682    1.8431   19.2538 H   0  0  0  0  0  0  0  0  0  0  0  0
  1  2  1  0
  2  3  2  0
  3  4  1  0
  4  5  1  0
  4  6  2  0
  6  7  1  0
  7  8  2  0
  7  9  1  0
  9 10  1  0
 10 11  2  0
 11 12  1  0
 11 13  1  0
 13 14  1  0
 13 15  2  0
 15 16  1  0
 15 17  1  0
 17 18  1  0
 17 19  2  0
 19 20  1  0
  9 21  1  0
 21 22  1  0
 21 23  1  0
 21 24  1  0
  6 25  1  0
 25 26  1  0
 25 27  2  0
 27 28  1  0
 27  2  1  0
 19 10  1  0
M  END
>  <cnnaffinity>  (1) 
-4.39718

>  <filename>  (1) 
CN(C(=O)c1cccnc1)c1ccccc1Cl

$$$$
