
     RDKit          3D

 32 33  0  0  0  0  0  0  0  0999 V2000
    4.9206    1.7731   17.0017 H   0  0  0  0  0  0  0  0  0  0  0  0
    5.4092    1.2888   17.8449 C   0  0  0  0  0  0  0  0  0  0  0  0
    6.5742    0.6731   17.5937 N   0  0  0  0  0  0  0  0  0  0  0  0
    7.1810    0.0653   18.6175 C   0  0  0  0  0  0  0  0  0  0  0  0
    8.1220   -0.4279   18.3887 H   0  0  0  0  0  0  0  0  0  0  0  0
    6.6479    0.0226   19.9009 C   0  0  0  0  0  0  0  0  0  0  0  0
    7.4592   -0.6653   20.9548 C   0  0  0  0  0  0  0  0  0  0  0  0
    6.6659   -0.8436   22.0660 F   0  0  0  0  0  0  0  0  0  0  0  0
    7.7143   -1.9542   20.5642 F   0  0  0  0  0  0  0  0  0  0  0  0
    8.6753    0.0301   21.2714 N   0  0  0  0  0  0  0  0  0  0  0  0
    8.4348    1.3335   21.9033 C   0  0  0  0  0  0  0  0  0  0  0  0
    9.3829    1.8327   22.1263 H   0  0  0  0  0  0  0  0  0  0  0  0
    7.8687    1.2491   22.8465 H   0  0  0  0  0  0  0  0  0  0  0  0
    7.8756    1.9948   21.2351 H   0  0  0  0  0  0  0  0  0  0  0  0
    9.6939   -0.7723   21.9831 C   0  0  0  0  0  0  0  0  0  0  0  0
    9.9508   -1.6404   21.3668 H   0  0  0  0  0  0  0  0  0  0  0  0
   10.6076   -0.1709   22.0476 H   0  0  0  0  0  0  0  0  0  0  0  0
    9.3044   -1.2321   23.3784 C   0  0  0  0  0  0  0  0  0  0  0  0
    9.4927   -0.3896   24.4885 C   0  0  0  0  0  0  0  0  0  0  0  0
    9.9561    0.5887   24.3564 H   0  0  0  0  0  0  0  0  0  0  0  0
    9.0900   -0.7892   25.7660 C   0  0  0  0  0  0  0  0  0  0  0  0
    9.2563   -0.1317   26.6148 H   0  0  0  0  0  0  0  0  0  0  0  0
    8.4843   -2.0364   25.9479 C   0  0  0  0  0  0  0  0  0  0  0  0
    8.1761   -2.3533   26.9400 H   0  0  0  0  0  0  0  0  0  0  0  0
    8.2822   -2.8772   24.8479 C   0  0  0  0  0  0  0  0  0  0  0  0
    7.8132   -3.8471   24.9828 H   0  0  0  0  0  0  0  0  0  0  0  0
    8.6914   -2.4810   23.5721 C   0  0  0  0  0  0  0  0  0  0  0  0
    8.5069   -3.1291   22.7185 H   0  0  0  0  0  0  0  0  0  0  0  0
    5.4279    0.6562   20.1621 C   0  0  0  0  0  0  0  0  0  0  0  0
    4.9959    0.6321   21.1671 H   0  0  0  0  0  0  0  0  0  0  0  0
    4.8019    1.3127   19.1065 C   0  0  0  0  0  0  0  0  0  0  0  0
    3.8711    1.8454   19.2605 H   0  0  0  0  0  0  0  0  0  0  0  0
  1  2  1  0
  2  3  2  0
  3  4  1  0
  4  5  1  0
  4  6  2  0
  6  7  1  0
  7  8  1  0
  7  9  1  0
  7 10  1  0
 10 11  1  0
 11 12  1  0
 11 13  1  0
 11 14  1  0
 10 15  1  0
 15 16  1  0
 15 17  1  0
 15 18  1  0
 18 19  2  0
 19 20  1  0
 19 21  1  0
 21 22  1  0
 21 23  2  0
 23 24  1  0
 23 25  1  0
 25 26  1  0
 25 27  2  0
 27 28  1  0
  6 29  1  0
 29 30  1  0
 29 31  2  0
 31 32  1  0
 31  2  1  0
 27 18  1  0
M  END
>  <cnnaffinity>  (1) 
-4.56675

>  <filename>  (1) 
CN(Cc1ccccc1)C(F)(F)c1cccnc1

$$$$
