
     RDKit          3D

 35 37  0  0  0  0  0  0  0  0999 V2000
    5.0030    1.7453   17.1259 H   0  0  0  0  0  0  0  0  0  0  0  0
    5.4613    1.2353   17.9714 C   0  0  0  0  0  0  0  0  0  0  0  0
    6.6330    0.6312   17.7245 N   0  0  0  0  0  0  0  0  0  0  0  0
    7.2320    0.0149   18.7495 C   0  0  0  0  0  0  0  0  0  0  0  0
    8.1757   -0.4773   18.5258 H   0  0  0  0  0  0  0  0  0  0  0  0
    6.7147   -0.0610   20.0725 C   0  0  0  0  0  0  0  0  0  0  0  0
    7.4660   -0.6669   21.1353 N   0  0  0  0  0  0  0  0  0  0  0  0
    8.9291   -0.5708   21.1094 C   0  0  0  0  0  0  0  0  0  0  0  0
    9.3487   -0.8247   22.0836 H   0  0  0  0  0  0  0  0  0  0  0  0
    9.3716   -1.2400   20.3611 H   0  0  0  0  0  0  0  0  0  0  0  0
    9.2019    0.4586   20.8634 H   0  0  0  0  0  0  0  0  0  0  0  0
    6.8140   -1.7919   22.2100 S   0  0  0  0  0  0  0  0  0  0  0  0
    5.5751   -2.2982   21.6478 O   0  0  0  0  0  0  0  0  0  0  0  0
    7.8879   -2.7147   22.5519 O   0  0  0  0  0  0  0  0  0  0  0  0
    6.5206   -0.8062   23.6927 C   0  0  0  0  0  0  0  0  0  0  0  0
    5.8601   -1.4757   24.7740 C   0  0  0  0  0  0  0  0  0  0  0  0
    5.7387   -2.5582   24.7703 H   0  0  0  0  0  0  0  0  0  0  0  0
    5.3568   -0.7484   25.8235 C   0  0  0  0  0  0  0  0  0  0  0  0
    4.8282   -1.2505   26.6312 H   0  0  0  0  0  0  0  0  0  0  0  0
    5.5486    0.6660   25.8950 C   0  0  0  0  0  0  0  0  0  0  0  0
    4.9595    1.4647   26.9214 C   0  0  0  0  0  0  0  0  0  0  0  0
    4.2486    0.9898   27.5969 H   0  0  0  0  0  0  0  0  0  0  0  0
    5.3013    2.7935   27.0466 C   0  0  0  0  0  0  0  0  0  0  0  0
    4.8726    3.3959   27.8440 H   0  0  0  0  0  0  0  0  0  0  0  0
    6.2424    3.3844   26.1488 C   0  0  0  0  0  0  0  0  0  0  0  0
    6.5324    4.4224   26.2849 H   0  0  0  0  0  0  0  0  0  0  0  0
    6.7524    2.6622   25.0928 C   0  0  0  0  0  0  0  0  0  0  0  0
    7.4511    3.1093   24.3837 H   0  0  0  0  0  0  0  0  0  0  0  0
    6.3892    1.2931   24.9179 C   0  0  0  0  0  0  0  0  0  0  0  0
    6.8454    0.5306   23.7969 C   0  0  0  0  0  0  0  0  0  0  0  0
    7.4448    1.0594   23.0588 H   0  0  0  0  0  0  0  0  0  0  0  0
    5.4682    0.5474   20.2955 C   0  0  0  0  0  0  0  0  0  0  0  0
    5.0123    0.4974   21.2859 H   0  0  0  0  0  0  0  0  0  0  0  0
    4.8446    1.2144   19.2273 C   0  0  0  0  0  0  0  0  0  0  0  0
    3.8960    1.7255   19.3545 H   0  0  0  0  0  0  0  0  0  0  0  0
  1  2  1  0
  2  3  2  0
  3  4  1  0
  4  5  1  0
  4  6  2  0
  6  7  1  0
  7  8  1  0
  8  9  1  0
  8 10  1  0
  8 11  1  0
  7 12  1  0
 12 13  2  0
 12 14  2  0
 12 15  1  0
 15 16  2  0
 16 17  1  0
 16 18  1  0
 18 19  1  0
 18 20  2  0
 20 21  1  0
 21 22  1  0
 21 23  2  0
 23 24  1  0
 23 25  1  0
 25 26  1  0
 25 27  2  0
 27 28  1  0
 27 29  1  0
 29 30  2  0
 30 31  1  0
  6 32  1  0
 32 33  1  0
 32 34  2  0
 34 35  1  0
 34  2  1  0
 30 15  1  0
 29 20  1  0
M  END
>  <cnnaffinity>  (1) 
-4.92923

>  <filename>  (1) 
CN(c1cccnc1)S(=O)(=O)c1ccc2ccccc2c1

$$$$
