
     RDKit          3D

 38 40  0  0  0  0  0  0  0  0999 V2000
    8.7238   -0.4178   21.1896 C   0  0  0  0  0  0  0  0  0  0  0  0
    7.3193   -0.7430   20.9110 N   0  0  0  0  0  0  0  0  0  0  0  0
    6.7033   -1.6620   21.7722 C   0  0  0  0  0  0  0  0  0  0  0  0
    7.2343   -2.0332   22.8029 O   0  0  0  0  0  0  0  0  0  0  0  0
    5.4915   -2.1467   21.3399 N   0  0  0  0  0  0  0  0  0  0  0  0
    4.8815   -3.3062   22.0121 C   0  0  0  0  0  0  0  0  0  0  0  0
    5.5577   -4.6811   21.9441 C   0  0  0  0  0  0  0  0  0  0  0  0
    6.5652   -4.8576   21.1148 N   0  0  0  0  0  0  0  0  0  0  0  0
    7.2338   -6.0380   21.1220 C   0  0  0  0  0  0  0  0  0  0  0  0
    6.8606   -7.1050   21.8947 C   0  0  0  0  0  0  0  0  0  0  0  0
    5.7125   -6.9863   22.7329 C   0  0  0  0  0  0  0  0  0  0  0  0
    5.2481   -8.0747   23.5145 C   0  0  0  0  0  0  0  0  0  0  0  0
    4.1535   -7.9607   24.3401 C   0  0  0  0  0  0  0  0  0  0  0  0
    3.4548   -6.7315   24.3904 C   0  0  0  0  0  0  0  0  0  0  0  0
    3.8693   -5.6511   23.6334 C   0  0  0  0  0  0  0  0  0  0  0  0
    5.0213   -5.7416   22.7806 C   0  0  0  0  0  0  0  0  0  0  0  0
    3.3099   -4.7216   23.6983 H   0  0  0  0  0  0  0  0  0  0  0  0
    2.5886   -6.6530   25.0423 H   0  0  0  0  0  0  0  0  0  0  0  0
    3.8123   -8.7852   24.9658 H   0  0  0  0  0  0  0  0  0  0  0  0
    5.8120   -8.9888   23.4059 H   0  0  0  0  0  0  0  0  0  0  0  0
    7.4033   -8.0412   21.8497 H   0  0  0  0  0  0  0  0  0  0  0  0
    8.0986   -6.0651   20.4633 H   0  0  0  0  0  0  0  0  0  0  0  0
    4.7934   -3.0691   23.0802 H   0  0  0  0  0  0  0  0  0  0  0  0
    3.8760   -3.4574   21.6125 H   0  0  0  0  0  0  0  0  0  0  0  0
    5.3900   -2.0331   20.3402 H   0  0  0  0  0  0  0  0  0  0  0  0
    6.6418   -0.0138   19.8829 C   0  0  0  0  0  0  0  0  0  0  0  0
    5.4356    0.6532   20.1385 C   0  0  0  0  0  0  0  0  0  0  0  0
    4.8019    1.3234   19.0854 C   0  0  0  0  0  0  0  0  0  0  0  0
    5.3896    1.3081   17.8155 C   0  0  0  0  0  0  0  0  0  0  0  0
    6.5545    0.6913   17.5564 N   0  0  0  0  0  0  0  0  0  0  0  0
    7.1637    0.0689   18.5732 C   0  0  0  0  0  0  0  0  0  0  0  0
    8.1171   -0.4129   18.3574 H   0  0  0  0  0  0  0  0  0  0  0  0
    4.9155    1.8069   16.9727 H   0  0  0  0  0  0  0  0  0  0  0  0
    3.8671    1.8521   19.2382 H   0  0  0  0  0  0  0  0  0  0  0  0
    5.0126    0.6257   21.1409 H   0  0  0  0  0  0  0  0  0  0  0  0
    9.4038   -1.2170   20.8588 H   0  0  0  0  0  0  0  0  0  0  0  0
    8.8695   -0.2708   22.2651 H   0  0  0  0  0  0  0  0  0  0  0  0
    8.9699    0.5097   20.6631 H   0  0  0  0  0  0  0  0  0  0  0  0
  1  2  1  0
  2  3  1  0
  3  4  2  0
  3  5  1  0
  5  6  1  0
  6  7  1  0
  7  8  2  0
  8  9  1  0
  9 10  2  0
 10 11  1  0
 11 12  2  0
 12 13  1  0
 13 14  2  0
 14 15  1  0
 15 16  2  0
 15 17  1  0
 14 18  1  0
 13 19  1  0
 12 20  1  0
 10 21  1  0
  9 22  1  0
  6 23  1  0
  6 24  1  0
  5 25  1  0
  2 26  1  0
 26 27  2  0
 27 28  1  0
 28 29  2  0
 29 30  1  0
 30 31  2  0
 31 32  1  0
 29 33  1  0
 28 34  1  0
 27 35  1  0
  1 36  1  0
  1 37  1  0
  1 38  1  0
 16  7  1  0
 31 26  1  0
 16 11  1  0
M  END
>  <cnnaffinity>  (1) 
-5.17345

>  <filename>  (1) 
CN(C(=O)NCc1nccc2ccccc12)c1cccnc1

$$$$
