
     RDKit          3D

 29 30  0  0  0  0  0  0  0  0999 V2000
    4.9632    1.7877   17.0278 H   0  0  0  0  0  0  0  0  0  0  0  0
    5.4359    1.2814   17.8650 C   0  0  0  0  0  0  0  0  0  0  0  0
    6.6101    0.6807   17.6050 N   0  0  0  0  0  0  0  0  0  0  0  0
    7.2337    0.0755   18.6227 C   0  0  0  0  0  0  0  0  0  0  0  0
    8.2008   -0.3882   18.4194 H   0  0  0  0  0  0  0  0  0  0  0  0
    6.7132    0.0074   19.9304 C   0  0  0  0  0  0  0  0  0  0  0  0
    7.4504   -0.6503   20.9726 N   0  0  0  0  0  0  0  0  0  0  0  0
    7.0319   -1.7044   21.7859 C   0  0  0  0  0  0  0  0  0  0  0  0
    5.7284   -2.4715   21.6575 C   0  0  0  0  0  0  0  0  0  0  0  0
    4.9395   -1.7531   21.4313 H   0  0  0  0  0  0  0  0  0  0  0  0
    5.5372   -2.8591   22.6651 H   0  0  0  0  0  0  0  0  0  0  0  0
    5.6378   -3.6027   20.7178 N   0  0  0  0  0  0  0  0  0  0  0  0
    6.5933   -4.6575   21.0528 C   0  0  0  0  0  0  0  0  0  0  0  0
    7.6518   -4.3522   20.9786 H   0  0  0  0  0  0  0  0  0  0  0  0
    6.4287   -5.5134   20.3894 H   0  0  0  0  0  0  0  0  0  0  0  0
    6.4142   -5.0005   22.0796 H   0  0  0  0  0  0  0  0  0  0  0  0
    5.6868   -3.2276   19.3092 C   0  0  0  0  0  0  0  0  0  0  0  0
    6.4875   -2.5157   19.0728 H   0  0  0  0  0  0  0  0  0  0  0  0
    5.8469   -4.1325   18.7162 H   0  0  0  0  0  0  0  0  0  0  0  0
    4.7478   -2.7743   18.9702 H   0  0  0  0  0  0  0  0  0  0  0  0
    7.9156   -1.9697   22.7010 N   0  0  0  0  0  0  0  0  0  0  0  0
    8.9212   -1.0861   22.4543 N   0  0  0  0  0  0  0  0  0  0  0  0
    9.7796   -1.0551   22.9799 H   0  0  0  0  0  0  0  0  0  0  0  0
    8.7084   -0.2641   21.4143 C   0  0  0  0  0  0  0  0  0  0  0  0
    9.7364    0.9050   20.8392 S   0  0  0  0  0  0  0  0  0  0  0  0
    5.4939    0.6367   20.1928 C   0  0  0  0  0  0  0  0  0  0  0  0
    5.0870    0.6442   21.2060 H   0  0  0  0  0  0  0  0  0  0  0  0
    4.8422    1.2843   19.1335 C   0  0  0  0  0  0  0  0  0  0  0  0
    3.8998    1.7985   19.2853 H   0  0  0  0  0  0  0  0  0  0  0  0
  1  2  1  0
  2  3  2  0
  3  4  1  0
  4  5  1  0
  4  6  2  0
  6  7  1  0
  7  8  1  0
  8  9  1  0
  9 10  1  0
  9 11  1  0
  9 12  1  0
 12 13  1  0
 13 14  1  0
 13 15  1  0
 13 16  1  0
 12 17  1  0
 17 18  1  0
 17 19  1  0
 17 20  1  0
  8 21  2  0
 21 22  1  0
 22 23  1  0
 22 24  1  0
 24 25  2  0
  6 26  1  0
 26 27  1  0
 26 28  2  0
 28 29  1  0
 28  2  1  0
 24  7  1  0
M  END
>  <cnnaffinity>  (1) 
-3.55069

>  <filename>  (1) 
CN(C)Cc1n[nH]c(=S)n1-c1cccnc1

$$$$
