
     RDKit          3D

 42 45  0  0  0  0  0  0  0  0999 V2000
    7.4194    1.7905   26.3586 C   0  0  0  0  0  0  0  0  0  0  0  0
    7.9640    0.5517   25.7667 N   0  0  0  0  0  0  0  0  0  0  0  0
    6.9956   -0.3708   25.3418 C   0  0  0  0  0  0  0  0  0  0  0  0
    5.8144   -0.2002   25.5672 O   0  0  0  0  0  0  0  0  0  0  0  0
    7.4913   -1.6296   24.6588 C   0  0  0  0  0  0  0  0  0  0  0  0
    7.8693   -1.3262   23.2480 C   0  0  0  0  0  0  0  0  0  0  0  0
    9.0836   -1.5633   22.6869 C   0  0  0  0  0  0  0  0  0  0  0  0
    9.0524   -1.1760   21.0126 S   0  0  0  0  0  0  0  0  0  0  0  0
    7.4007   -0.6124   21.2151 C   0  0  0  0  0  0  0  0  0  0  0  0
    6.6590    0.0184   20.1158 C   0  0  0  0  0  0  0  0  0  0  0  0
    5.4124    0.6555   20.2762 C   0  0  0  0  0  0  0  0  0  0  0  0
    4.8521    1.2790   19.1602 C   0  0  0  0  0  0  0  0  0  0  0  0
    5.5340    1.2382   17.9387 C   0  0  0  0  0  0  0  0  0  0  0  0
    6.7102    0.6130   17.7759 N   0  0  0  0  0  0  0  0  0  0  0  0
    7.2485    0.0266   18.8447 C   0  0  0  0  0  0  0  0  0  0  0  0
    8.2076   -0.4724   18.6985 H   0  0  0  0  0  0  0  0  0  0  0  0
    5.1215    1.7255   17.0548 H   0  0  0  0  0  0  0  0  0  0  0  0
    3.9111    1.8145   19.2201 H   0  0  0  0  0  0  0  0  0  0  0  0
    4.9100    0.6702   21.2473 H   0  0  0  0  0  0  0  0  0  0  0  0
    6.9253   -0.7977   22.4092 N   0  0  0  0  0  0  0  0  0  0  0  0
    9.9679   -1.9291   23.1834 H   0  0  0  0  0  0  0  0  0  0  0  0
    8.3348   -2.0459   25.2186 H   0  0  0  0  0  0  0  0  0  0  0  0
    6.6637   -2.3398   24.6681 H   0  0  0  0  0  0  0  0  0  0  0  0
    9.2199    0.6945   25.0541 C   0  0  0  0  0  0  0  0  0  0  0  0
   10.3748    0.1145   25.5442 C   0  0  0  0  0  0  0  0  0  0  0  0
   11.5615    0.1297   24.7755 C   0  0  0  0  0  0  0  0  0  0  0  0
   11.6007    0.6829   23.5088 C   0  0  0  0  0  0  0  0  0  0  0  0
   10.4442    1.3378   22.9859 C   0  0  0  0  0  0  0  0  0  0  0  0
   10.3672    1.9180   21.6867 C   0  0  0  0  0  0  0  0  0  0  0  0
    9.1722    2.4786   21.2934 C   0  0  0  0  0  0  0  0  0  0  0  0
    8.0950    2.5740   22.1971 C   0  0  0  0  0  0  0  0  0  0  0  0
    8.1470    2.1369   23.4326 N   0  0  0  0  0  0  0  0  0  0  0  0
    9.2640    1.4253   23.8116 C   0  0  0  0  0  0  0  0  0  0  0  0
    7.1616    3.0197   21.8512 H   0  0  0  0  0  0  0  0  0  0  0  0
    9.0076    2.9249   20.3328 H   0  0  0  0  0  0  0  0  0  0  0  0
   11.2292    1.8639   21.0186 H   0  0  0  0  0  0  0  0  0  0  0  0
   12.5131    0.6310   22.9148 H   0  0  0  0  0  0  0  0  0  0  0  0
   12.4517   -0.3242   25.1941 H   0  0  0  0  0  0  0  0  0  0  0  0
   10.3614   -0.3430   26.5329 H   0  0  0  0  0  0  0  0  0  0  0  0
    6.9381    1.5494   27.3127 H   0  0  0  0  0  0  0  0  0  0  0  0
    6.6729    2.2401   25.6943 H   0  0  0  0  0  0  0  0  0  0  0  0
    8.2188    2.5179   26.5178 H   0  0  0  0  0  0  0  0  0  0  0  0
  1  2  1  0
  2  3  1  0
  3  4  2  0
  3  5  1  0
  5  6  1  0
  6  7  2  0
  7  8  1  0
  8  9  1  0
  9 10  1  0
 10 11  2  0
 11 12  1  0
 12 13  2  0
 13 14  1  0
 14 15  2  0
 15 16  1  0
 13 17  1  0
 12 18  1  0
 11 19  1  0
  9 20  2  0
  7 21  1  0
  5 22  1  0
  5 23  1  0
  2 24  1  0
 24 25  2  0
 25 26  1  0
 26 27  2  0
 27 28  1  0
 28 29  2  0
 29 30  1  0
 30 31  2  0
 31 32  1  0
 32 33  2  0
 31 34  1  0
 30 35  1  0
 29 36  1  0
 27 37  1  0
 26 38  1  0
 25 39  1  0
  1 40  1  0
  1 41  1  0
  1 42  1  0
 20  6  1  0
 33 24  1  0
 15 10  1  0
 33 28  1  0
M  END
>  <cnnaffinity>  (1) 
-6.15363

>  <filename>  (1) 
CN(C(=O)Cc1csc(-c2cccnc2)n1)c1cccc2cccnc12

$$$$
