
     RDKit          3D

 32 34  0  0  0  0  0  0  0  0999 V2000
    4.9491    1.8071   16.9678 H   0  0  0  0  0  0  0  0  0  0  0  0
    5.4127    1.3110   17.8163 C   0  0  0  0  0  0  0  0  0  0  0  0
    6.5732    0.6842   17.5710 N   0  0  0  0  0  0  0  0  0  0  0  0
    7.1627    0.0657   18.5956 C   0  0  0  0  0  0  0  0  0  0  0  0
    8.0995   -0.4369   18.3541 H   0  0  0  0  0  0  0  0  0  0  0  0
    6.6371    0.0306   19.8987 C   0  0  0  0  0  0  0  0  0  0  0  0
    7.3233   -0.7031   20.9566 C   0  0  0  0  0  0  0  0  0  0  0  0
    6.7907   -0.7962   22.2314 N   0  0  0  0  0  0  0  0  0  0  0  0
    7.6349   -1.5383   22.8727 C   0  0  0  0  0  0  0  0  0  0  0  0
    7.5772   -1.8902   24.1963 N   0  0  0  0  0  0  0  0  0  0  0  0
    8.5293   -2.7974   24.7588 C   0  0  0  0  0  0  0  0  0  0  0  0
    8.1104   -3.7630   25.6887 C   0  0  0  0  0  0  0  0  0  0  0  0
    7.0691   -3.7814   25.9929 H   0  0  0  0  0  0  0  0  0  0  0  0
    9.0208   -4.7052   26.1851 C   0  0  0  0  0  0  0  0  0  0  0  0
    8.7104   -5.4248   26.9413 H   0  0  0  0  0  0  0  0  0  0  0  0
   10.3440   -4.7053   25.7448 C   0  0  0  0  0  0  0  0  0  0  0  0
   11.0415   -5.4526   26.1077 H   0  0  0  0  0  0  0  0  0  0  0  0
   10.7711   -3.7325   24.8389 C   0  0  0  0  0  0  0  0  0  0  0  0
   11.7834   -3.7561   24.4432 H   0  0  0  0  0  0  0  0  0  0  0  0
    9.8932   -2.7434   24.3963 C   0  0  0  0  0  0  0  0  0  0  0  0
   10.2600   -1.9780   23.7284 H   0  0  0  0  0  0  0  0  0  0  0  0
    6.3736   -1.4807   24.9293 C   0  0  0  0  0  0  0  0  0  0  0  0
    6.5710   -1.4160   26.0050 H   0  0  0  0  0  0  0  0  0  0  0  0
    6.0495   -0.4919   24.5928 H   0  0  0  0  0  0  0  0  0  0  0  0
    5.5193   -2.1631   24.7848 H   0  0  0  0  0  0  0  0  0  0  0  0
    8.6749   -1.9718   22.1293 O   0  0  0  0  0  0  0  0  0  0  0  0
    8.4766   -1.4041   20.9058 C   0  0  0  0  0  0  0  0  0  0  0  0
    9.2480   -1.5566   20.1722 H   0  0  0  0  0  0  0  0  0  0  0  0
    5.4191    0.6882   20.1390 C   0  0  0  0  0  0  0  0  0  0  0  0
    4.9849    0.6721   21.1412 H   0  0  0  0  0  0  0  0  0  0  0  0
    4.8000    1.3362   19.0749 C   0  0  0  0  0  0  0  0  0  0  0  0
    3.8602    1.8597   19.2067 H   0  0  0  0  0  0  0  0  0  0  0  0
  1  2  1  0
  2  3  2  0
  3  4  1  0
  4  5  1  0
  4  6  2  0
  6  7  1  0
  7  8  1  0
  8  9  2  0
  9 10  1  0
 10 11  1  0
 11 12  2  0
 12 13  1  0
 12 14  1  0
 14 15  1  0
 14 16  2  0
 16 17  1  0
 16 18  1  0
 18 19  1  0
 18 20  2  0
 20 21  1  0
 10 22  1  0
 22 23  1  0
 22 24  1  0
 22 25  1  0
  9 26  1  0
 26 27  1  0
 27 28  1  0
  6 29  1  0
 29 30  1  0
 29 31  2  0
 31 32  1  0
 31  2  1  0
 27  7  2  0
 20 11  1  0
M  END
>  <cnnaffinity>  (1) 
-4.72612

>  <filename>  (1) 
CN(c1ccccc1)c1nc(-c2cccnc2)co1

$$$$
