
     RDKit          3D

 28 29  0  0  0  0  0  0  0  0999 V2000
    5.8508   -3.5685   23.2076 H   0  0  0  0  0  0  0  0  0  0  0  0
    6.8836   -3.2894   23.4254 C   0  0  0  0  0  0  0  0  0  0  0  0
    7.4204   -2.2936   22.6678 O   0  0  0  0  0  0  0  0  0  0  0  0
    6.6496   -1.7532   21.6633 C   0  0  0  0  0  0  0  0  0  0  0  0
    5.5348   -2.1398   21.3996 O   0  0  0  0  0  0  0  0  0  0  0  0
    7.3299   -0.7494   20.9991 N   0  0  0  0  0  0  0  0  0  0  0  0
    6.6580   -0.0399   19.9353 C   0  0  0  0  0  0  0  0  0  0  0  0
    7.1850    0.0386   18.6246 C   0  0  0  0  0  0  0  0  0  0  0  0
    8.1360   -0.4343   18.3886 H   0  0  0  0  0  0  0  0  0  0  0  0
    6.5821    0.6612   17.6022 N   0  0  0  0  0  0  0  0  0  0  0  0
    5.4201    1.2829   17.8558 C   0  0  0  0  0  0  0  0  0  0  0  0
    4.9504    1.7814   17.0097 H   0  0  0  0  0  0  0  0  0  0  0  0
    4.8205    1.3004   19.1213 C   0  0  0  0  0  0  0  0  0  0  0  0
    3.8864    1.8386   19.2623 H   0  0  0  0  0  0  0  0  0  0  0  0
    5.4443    0.6237   20.1782 C   0  0  0  0  0  0  0  0  0  0  0  0
    5.0078    0.6013   21.1764 H   0  0  0  0  0  0  0  0  0  0  0  0
    8.7604   -0.4753   21.2075 C   0  0  0  0  0  0  0  0  0  0  0  0
    8.9765    0.4849   20.7339 H   0  0  0  0  0  0  0  0  0  0  0  0
    9.3992   -1.2419   20.7547 H   0  0  0  0  0  0  0  0  0  0  0  0
    9.0152   -0.3986   22.2674 H   0  0  0  0  0  0  0  0  0  0  0  0
    7.5954   -3.8759   24.3876 C   0  0  0  0  0  0  0  0  0  0  0  0
    6.9295   -5.1438   25.4300 S   0  0  0  0  0  0  0  0  0  0  0  0
    8.3565   -5.1173   26.4538 C   0  0  0  0  0  0  0  0  0  0  0  0
    8.5293   -5.8607   27.8876 S   0  0  0  0  0  0  0  0  0  0  0  0
    9.2909   -4.3113   25.8961 N   0  0  0  0  0  0  0  0  0  0  0  0
   10.1959   -4.1583   26.3125 H   0  0  0  0  0  0  0  0  0  0  0  0
    8.9644   -3.5343   24.8072 C   0  0  0  0  0  0  0  0  0  0  0  0
    9.7421   -2.7275   24.3569 O   0  0  0  0  0  0  0  0  0  0  0  0
  1  2  1  0
  2  3  1  0
  3  4  1  0
  4  5  2  0
  4  6  1  0
  6  7  1  0
  7  8  2  0
  8  9  1  0
  8 10  1  0
 10 11  2  0
 11 12  1  0
 11 13  1  0
 13 14  1  0
 13 15  2  0
 15 16  1  0
  6 17  1  0
 17 18  1  0
 17 19  1  0
 17 20  1  0
  2 21  2  3
 21 22  1  0
 22 23  1  0
 23 24  2  0
 23 25  1  0
 25 26  1  0
 25 27  1  0
 27 28  2  0
 15  7  1  0
 27 21  1  0
M  END
>  <cnnaffinity>  (1) 
-4.71862

>  <filename>  (1) 
CN(C(=O)OC=C1SC(=S)NC1=O)c1cccnc1

$$$$
