
     RDKit          3D

 28 29  0  0  0  0  0  0  0  0999 V2000
    6.7185   -3.0230   24.4313 H   0  0  0  0  0  0  0  0  0  0  0  0
    6.8731   -3.3221   23.3908 C   0  0  0  0  0  0  0  0  0  0  0  0
    7.3844   -2.3106   22.6193 O   0  0  0  0  0  0  0  0  0  0  0  0
    6.6377   -1.8250   21.5763 C   0  0  0  0  0  0  0  0  0  0  0  0
    5.5389   -2.2329   21.2873 O   0  0  0  0  0  0  0  0  0  0  0  0
    7.3110   -0.7938   20.9468 N   0  0  0  0  0  0  0  0  0  0  0  0
    6.6467   -0.0622   19.9112 C   0  0  0  0  0  0  0  0  0  0  0  0
    7.1885    0.0315   18.6119 C   0  0  0  0  0  0  0  0  0  0  0  0
    8.1419   -0.4542   18.3977 H   0  0  0  0  0  0  0  0  0  0  0  0
    6.5943    0.6693   17.5963 N   0  0  0  0  0  0  0  0  0  0  0  0
    5.4322    1.2915   17.8517 C   0  0  0  0  0  0  0  0  0  0  0  0
    4.9661    1.8047   17.0124 H   0  0  0  0  0  0  0  0  0  0  0  0
    4.8317    1.2963   19.1151 C   0  0  0  0  0  0  0  0  0  0  0  0
    3.9035    1.8331   19.2651 H   0  0  0  0  0  0  0  0  0  0  0  0
    5.4419    0.6066   20.1666 C   0  0  0  0  0  0  0  0  0  0  0  0
    5.0117    0.5764   21.1672 H   0  0  0  0  0  0  0  0  0  0  0  0
    8.7326   -0.5211   21.1964 C   0  0  0  0  0  0  0  0  0  0  0  0
    8.9847    0.4468   20.7503 H   0  0  0  0  0  0  0  0  0  0  0  0
    8.9257   -0.4689   22.2706 H   0  0  0  0  0  0  0  0  0  0  0  0
    9.3698   -1.3010   20.7590 H   0  0  0  0  0  0  0  0  0  0  0  0
    6.6785   -4.5434   22.8834 C   0  0  0  0  0  0  0  0  0  0  0  0
    5.9877   -5.9258   23.7316 S   0  0  0  0  0  0  0  0  0  0  0  0
    6.4272   -7.0097   22.3669 C   0  0  0  0  0  0  0  0  0  0  0  0
    6.4605   -8.2066   22.3647 O   0  0  0  0  0  0  0  0  0  0  0  0
    6.7780   -6.2389   21.2877 N   0  0  0  0  0  0  0  0  0  0  0  0
    7.2115   -6.7367   20.5353 H   0  0  0  0  0  0  0  0  0  0  0  0
    7.2109   -4.9644   21.5681 C   0  0  0  0  0  0  0  0  0  0  0  0
    7.9741   -4.3562   20.8612 O   0  0  0  0  0  0  0  0  0  0  0  0
  1  2  1  0
  2  3  1  0
  3  4  1  0
  4  5  2  0
  4  6  1  0
  6  7  1  0
  7  8  2  0
  8  9  1  0
  8 10  1  0
 10 11  2  0
 11 12  1  0
 11 13  1  0
 13 14  1  0
 13 15  2  0
 15 16  1  0
  6 17  1  0
 17 18  1  0
 17 19  1  0
 17 20  1  0
  2 21  2  3
 21 22  1  0
 22 23  1  0
 23 24  2  0
 23 25  1  0
 25 26  1  0
 25 27  1  0
 27 28  2  0
 15  7  1  0
 27 21  1  0
M  END
>  <cnnaffinity>  (1) 
-4.78135

>  <filename>  (1) 
CN(C(=O)OC=C1SC(=O)NC1=O)c1cccnc1

$$$$
