
     RDKit          3D

 37 39  0  0  0  0  0  0  0  0999 V2000
    7.4276   -1.9991   20.9680 C   0  0  0  0  0  0  0  0  0  0  0  0
    7.3983   -0.5273   21.0162 N   0  0  0  0  0  0  0  0  0  0  0  0
    7.7370    0.0327   22.2570 C   0  0  0  0  0  0  0  0  0  0  0  0
    8.0632   -0.6625   23.2067 O   0  0  0  0  0  0  0  0  0  0  0  0
    7.7063    1.4076   22.3134 N   0  0  0  0  0  0  0  0  0  0  0  0
    8.1614    2.1917   23.4018 C   0  0  0  0  0  0  0  0  0  0  0  0
    8.9089    1.7461   24.4638 C   0  0  0  0  0  0  0  0  0  0  0  0
    9.1485    2.8373   25.2274 N   0  0  0  0  0  0  0  0  0  0  0  0
    8.5850    3.9599   24.7584 N   0  0  0  0  0  0  0  0  0  0  0  0
    7.9518    3.5916   23.6388 C   0  0  0  0  0  0  0  0  0  0  0  0
    7.0859    4.5029   22.8454 C   0  0  0  0  0  0  0  0  0  0  0  0
    7.4313    5.8506   22.6224 C   0  0  0  0  0  0  0  0  0  0  0  0
    6.5834    6.6951   21.8925 C   0  0  0  0  0  0  0  0  0  0  0  0
    5.3571    6.2195   21.4193 C   0  0  0  0  0  0  0  0  0  0  0  0
    5.0020    4.8817   21.6322 C   0  0  0  0  0  0  0  0  0  0  0  0
    5.8669    4.0287   22.3148 C   0  0  0  0  0  0  0  0  0  0  0  0
    5.5854    2.9859   22.4397 H   0  0  0  0  0  0  0  0  0  0  0  0
    4.0890    4.4791   21.1924 H   0  0  0  0  0  0  0  0  0  0  0  0
    4.6733    6.8841   20.8952 H   0  0  0  0  0  0  0  0  0  0  0  0
    6.8810    7.7235   21.6924 H   0  0  0  0  0  0  0  0  0  0  0  0
    8.3538    6.2458   23.0376 H   0  0  0  0  0  0  0  0  0  0  0  0
    9.5411    2.8458   26.1564 H   0  0  0  0  0  0  0  0  0  0  0  0
    9.2467    0.7453   24.6772 H   0  0  0  0  0  0  0  0  0  0  0  0
    7.5410    1.8751   21.4364 H   0  0  0  0  0  0  0  0  0  0  0  0
    6.6968    0.1516   19.9604 C   0  0  0  0  0  0  0  0  0  0  0  0
    5.4741    0.7967   20.1839 C   0  0  0  0  0  0  0  0  0  0  0  0
    4.8254    1.4108   19.1048 C   0  0  0  0  0  0  0  0  0  0  0  0
    5.4101    1.3501   17.8353 C   0  0  0  0  0  0  0  0  0  0  0  0
    6.5696    0.7177   17.5979 N   0  0  0  0  0  0  0  0  0  0  0  0
    7.1851    0.1347   18.6350 C   0  0  0  0  0  0  0  0  0  0  0  0
    8.1177   -0.3840   18.4249 H   0  0  0  0  0  0  0  0  0  0  0  0
    4.9232    1.8042   16.9736 H   0  0  0  0  0  0  0  0  0  0  0  0
    3.8925    1.9434   19.2446 H   0  0  0  0  0  0  0  0  0  0  0  0
    5.0373    0.7918   21.1817 H   0  0  0  0  0  0  0  0  0  0  0  0
    6.7992   -2.4256   21.7589 H   0  0  0  0  0  0  0  0  0  0  0  0
    7.0593   -2.3363   19.9987 H   0  0  0  0  0  0  0  0  0  0  0  0
    8.4467   -2.3631   21.1364 H   0  0  0  0  0  0  0  0  0  0  0  0
  1  2  1  0
  2  3  1  0
  3  4  2  0
  3  5  1  0
  5  6  1  0
  6  7  2  0
  7  8  1  0
  8  9  1  0
  9 10  2  0
 10 11  1  0
 11 12  2  0
 12 13  1  0
 13 14  2  0
 14 15  1  0
 15 16  2  0
 16 17  1  0
 15 18  1  0
 14 19  1  0
 13 20  1  0
 12 21  1  0
  8 22  1  0
  7 23  1  0
  5 24  1  0
  2 25  1  0
 25 26  2  0
 26 27  1  0
 27 28  2  0
 28 29  1  0
 29 30  2  0
 30 31  1  0
 28 32  1  0
 27 33  1  0
 26 34  1  0
  1 35  1  0
  1 36  1  0
  1 37  1  0
 10  6  1  0
 16 11  1  0
 30 25  1  0
M  END
>  <cnnaffinity>  (1) 
-5.07156

>  <filename>  (1) 
CN(C(=O)Nc1c[nH]nc1-c1ccccc1)c1cccnc1

$$$$
