
     RDKit          3D

 36 36  0  0  0  0  0  0  0  0999 V2000
    5.1178    1.7691   16.9143 H   0  0  0  0  0  0  0  0  0  0  0  0
    5.5281    1.2515   17.7769 C   0  0  0  0  0  0  0  0  0  0  0  0
    6.6648    0.5712   17.5653 N   0  0  0  0  0  0  0  0  0  0  0  0
    7.2003   -0.0592   18.6114 C   0  0  0  0  0  0  0  0  0  0  0  0
    8.1294   -0.5985   18.4291 H   0  0  0  0  0  0  0  0  0  0  0  0
    6.6527   -0.0449   19.8997 C   0  0  0  0  0  0  0  0  0  0  0  0
    7.4783   -0.6969   20.9375 C   0  0  0  0  0  0  0  0  0  0  0  0
    8.3706   -1.4777   20.7060 O   0  0  0  0  0  0  0  0  0  0  0  0
    7.1970   -0.2667   22.2041 N   0  0  0  0  0  0  0  0  0  0  0  0
    6.3221    0.1614   22.4139 H   0  0  0  0  0  0  0  0  0  0  0  0
    7.5140   -1.3133   23.3908 S   0  0  0  0  0  0  0  0  0  0  0  0
    6.9503   -0.6618   24.5438 O   0  0  0  0  0  0  0  0  0  0  0  0
    7.1627   -2.6722   23.0519 O   0  0  0  0  0  0  0  0  0  0  0  0
    9.1025   -1.1482   23.3652 O   0  0  0  0  0  0  0  0  0  0  0  0
    9.7920   -1.9651   24.3406 C   0  0  0  0  0  0  0  0  0  0  0  0
    9.1892   -2.1037   25.2472 H   0  0  0  0  0  0  0  0  0  0  0  0
   10.6666   -1.3687   24.6147 H   0  0  0  0  0  0  0  0  0  0  0  0
   10.1676   -3.2916   23.6975 C   0  0  0  0  0  0  0  0  0  0  0  0
    9.2959   -3.6657   23.1559 H   0  0  0  0  0  0  0  0  0  0  0  0
   10.9513   -3.1190   22.9536 H   0  0  0  0  0  0  0  0  0  0  0  0
   10.6227   -4.3205   24.7273 C   0  0  0  0  0  0  0  0  0  0  0  0
   11.1211   -5.1934   24.2643 H   0  0  0  0  0  0  0  0  0  0  0  0
   11.3784   -3.8615   25.3692 H   0  0  0  0  0  0  0  0  0  0  0  0
    9.5185   -4.7473   25.5827 N   0  0  0  0  0  0  0  0  0  0  0  0
   10.0173   -5.4608   26.7487 C   0  0  0  0  0  0  0  0  0  0  0  0
   10.4736   -6.4261   26.4651 H   0  0  0  0  0  0  0  0  0  0  0  0
   10.7709   -4.8692   27.2691 H   0  0  0  0  0  0  0  0  0  0  0  0
    9.2134   -5.6551   27.4659 H   0  0  0  0  0  0  0  0  0  0  0  0
    8.5576   -5.5960   24.8846 C   0  0  0  0  0  0  0  0  0  0  0  0
    7.7745   -5.9125   25.5826 H   0  0  0  0  0  0  0  0  0  0  0  0
    8.0678   -5.0639   24.0651 H   0  0  0  0  0  0  0  0  0  0  0  0
    9.0409   -6.5036   24.4744 H   0  0  0  0  0  0  0  0  0  0  0  0
    5.4306    0.6321   20.0965 C   0  0  0  0  0  0  0  0  0  0  0  0
    4.8987    0.6509   21.0536 H   0  0  0  0  0  0  0  0  0  0  0  0
    4.8752    1.3017   19.0110 C   0  0  0  0  0  0  0  0  0  0  0  0
    3.9631    1.8826   19.1108 H   0  0  0  0  0  0  0  0  0  0  0  0
  1  2  1  0
  2  3  2  0
  3  4  1  0
  4  5  1  0
  4  6  2  0
  6  7  1  0
  7  8  2  0
  7  9  1  0
  9 10  1  0
  9 11  1  0
 11 12  2  0
 11 13  2  0
 11 14  1  0
 14 15  1  0
 15 16  1  0
 15 17  1  0
 15 18  1  0
 18 19  1  0
 18 20  1  0
 18 21  1  0
 21 22  1  0
 21 23  1  0
 21 24  1  0
 24 25  1  0
 25 26  1  0
 25 27  1  0
 25 28  1  0
 24 29  1  0
 29 30  1  0
 29 31  1  0
 29 32  1  0
  6 33  1  0
 33 34  1  0
 33 35  2  0
 35 36  1  0
 35  2  1  0
M  END
>  <cnnaffinity>  (1) 
-4.12889

>  <filename>  (1) 
CN(C)CCCOS(=O)(=O)NC(=O)c1cccnc1

$$$$
