
     RDKit          3D

 36 38  0  0  0  0  0  0  0  0999 V2000
    9.2427    1.8888   23.7935 C   0  0  0  0  0  0  0  0  0  0  0  0
    7.9300    1.3450   24.1021 N   0  0  0  0  0  0  0  0  0  0  0  0
    7.1134    0.9173   22.9775 C   0  0  0  0  0  0  0  0  0  0  0  0
    7.5806   -0.3400   22.3013 C   0  0  0  0  0  0  0  0  0  0  0  0
    8.3095   -1.3547   22.8724 C   0  0  0  0  0  0  0  0  0  0  0  0
    8.5475   -2.2427   21.8826 N   0  0  0  0  0  0  0  0  0  0  0  0
    8.0248   -1.8725   20.7050 N   0  0  0  0  0  0  0  0  0  0  0  0
    7.4020   -0.7254   20.9460 C   0  0  0  0  0  0  0  0  0  0  0  0
    6.6563   -0.0068   19.9031 C   0  0  0  0  0  0  0  0  0  0  0  0
    5.4400    0.6482   20.1576 C   0  0  0  0  0  0  0  0  0  0  0  0
    4.8083    1.3074   19.1064 C   0  0  0  0  0  0  0  0  0  0  0  0
    5.4051    1.2925   17.8424 C   0  0  0  0  0  0  0  0  0  0  0  0
    6.5683    0.6778   17.5829 N   0  0  0  0  0  0  0  0  0  0  0  0
    7.1697    0.0457   18.5971 C   0  0  0  0  0  0  0  0  0  0  0  0
    8.1158   -0.4325   18.3610 H   0  0  0  0  0  0  0  0  0  0  0  0
    4.9290    1.7838   16.9969 H   0  0  0  0  0  0  0  0  0  0  0  0
    3.8796    1.8366   19.2569 H   0  0  0  0  0  0  0  0  0  0  0  0
    4.9914    0.6338   21.1527 H   0  0  0  0  0  0  0  0  0  0  0  0
    9.0790   -3.0970   21.9234 H   0  0  0  0  0  0  0  0  0  0  0  0
    8.6917   -1.4669   23.8827 H   0  0  0  0  0  0  0  0  0  0  0  0
    7.0843    1.7303   22.2385 H   0  0  0  0  0  0  0  0  0  0  0  0
    6.0801    0.8110   23.3257 H   0  0  0  0  0  0  0  0  0  0  0  0
    7.5999    1.0262   25.4202 C   0  0  0  0  0  0  0  0  0  0  0  0
    8.0561    1.8474   26.4736 C   0  0  0  0  0  0  0  0  0  0  0  0
    7.6881    1.5918   27.7963 C   0  0  0  0  0  0  0  0  0  0  0  0
    6.8755    0.5011   28.1089 C   0  0  0  0  0  0  0  0  0  0  0  0
    6.4315   -0.3340   27.0798 C   0  0  0  0  0  0  0  0  0  0  0  0
    6.7849   -0.0811   25.7471 C   0  0  0  0  0  0  0  0  0  0  0  0
    6.4451   -0.7314   24.9466 H   0  0  0  0  0  0  0  0  0  0  0  0
    5.7942   -1.1819   27.3141 H   0  0  0  0  0  0  0  0  0  0  0  0
    6.5993    0.3036   29.1439 H   0  0  0  0  0  0  0  0  0  0  0  0
    8.0496    2.2451   28.5848 H   0  0  0  0  0  0  0  0  0  0  0  0
    8.6817    2.6975   26.2295 H   0  0  0  0  0  0  0  0  0  0  0  0
    9.3286    2.9534   24.0490 H   0  0  0  0  0  0  0  0  0  0  0  0
    9.4403    1.7959   22.7211 H   0  0  0  0  0  0  0  0  0  0  0  0
   10.0557    1.3618   24.3139 H   0  0  0  0  0  0  0  0  0  0  0  0
  1  2  1  0
  2  3  1  0
  3  4  1  0
  4  5  2  0
  5  6  1  0
  6  7  1  0
  7  8  2  0
  8  9  1  0
  9 10  2  0
 10 11  1  0
 11 12  2  0
 12 13  1  0
 13 14  2  0
 14 15  1  0
 12 16  1  0
 11 17  1  0
 10 18  1  0
  6 19  1  0
  5 20  1  0
  3 21  1  0
  3 22  1  0
  2 23  1  0
 23 24  2  0
 24 25  1  0
 25 26  2  0
 26 27  1  0
 27 28  2  0
 28 29  1  0
 27 30  1  0
 26 31  1  0
 25 32  1  0
 24 33  1  0
  1 34  1  0
  1 35  1  0
  1 36  1  0
  8  4  1  0
 14  9  1  0
 28 23  1  0
M  END
>  <cnnaffinity>  (1) 
-5.26607

>  <filename>  (1) 
CN(Cc1c[nH]nc1-c1cccnc1)c1ccccc1

$$$$
