
     RDKit          3D

 36 37  0  0  0  0  0  0  0  0999 V2000
   12.1674    0.0851   23.4257 C   0  0  0  0  0  0  0  0  0  0  0  0
   11.8000    1.1174   22.4816 N   0  0  0  0  0  0  0  0  0  0  0  0
   11.2050    0.7550   21.2146 C   0  0  0  0  0  0  0  0  0  0  0  0
    9.6638    0.6733   21.0664 C   0  0  0  0  0  0  0  0  0  0  0  0
    8.9217    1.6299   21.0481 O   0  0  0  0  0  0  0  0  0  0  0  0
    9.1622   -0.5671   20.7352 N   0  0  0  0  0  0  0  0  0  0  0  0
    7.5727   -0.7997   21.1242 S   0  0  0  0  0  0  0  0  0  0  0  0
    7.2836   -0.2484   22.4256 O   0  0  0  0  0  0  0  0  0  0  0  0
    7.4643   -2.2173   20.8407 O   0  0  0  0  0  0  0  0  0  0  0  0
    6.7647    0.1393   19.9404 C   0  0  0  0  0  0  0  0  0  0  0  0
    5.5693    0.8118   20.2180 C   0  0  0  0  0  0  0  0  0  0  0  0
    4.9129    1.3717   19.1281 C   0  0  0  0  0  0  0  0  0  0  0  0
    5.4746    1.2333   17.8535 C   0  0  0  0  0  0  0  0  0  0  0  0
    6.6136    0.5687   17.6137 N   0  0  0  0  0  0  0  0  0  0  0  0
    7.2523    0.0309   18.6488 C   0  0  0  0  0  0  0  0  0  0  0  0
    8.1714   -0.5032   18.4176 H   0  0  0  0  0  0  0  0  0  0  0  0
    4.9896    1.6796   16.9876 H   0  0  0  0  0  0  0  0  0  0  0  0
    3.9796    1.9089   19.2468 H   0  0  0  0  0  0  0  0  0  0  0  0
    5.1561    0.8840   21.2292 H   0  0  0  0  0  0  0  0  0  0  0  0
    9.5775   -1.4396   21.0126 H   0  0  0  0  0  0  0  0  0  0  0  0
   11.5004    1.5306   20.4916 H   0  0  0  0  0  0  0  0  0  0  0  0
   11.6155   -0.2048   20.8789 H   0  0  0  0  0  0  0  0  0  0  0  0
   12.0971    2.4615   22.7115 C   0  0  0  0  0  0  0  0  0  0  0  0
   13.2918    2.8511   23.3242 C   0  0  0  0  0  0  0  0  0  0  0  0
   13.5673    4.1998   23.5616 C   0  0  0  0  0  0  0  0  0  0  0  0
   12.6412    5.1674   23.1710 C   0  0  0  0  0  0  0  0  0  0  0  0
   12.9653    6.8324   23.5343 Cl  0  0  0  0  0  0  0  0  0  0  0  0
   11.4566    4.8105   22.5261 C   0  0  0  0  0  0  0  0  0  0  0  0
   11.1989    3.4585   22.2866 C   0  0  0  0  0  0  0  0  0  0  0  0
   10.3111    3.1333   21.7582 H   0  0  0  0  0  0  0  0  0  0  0  0
   10.7625    5.5872   22.2089 H   0  0  0  0  0  0  0  0  0  0  0  0
   14.4824    4.5113   24.0551 H   0  0  0  0  0  0  0  0  0  0  0  0
   13.9996    2.0697   23.5663 H   0  0  0  0  0  0  0  0  0  0  0  0
   13.2379   -0.1718   23.4153 H   0  0  0  0  0  0  0  0  0  0  0  0
   11.6064   -0.8173   23.1691 H   0  0  0  0  0  0  0  0  0  0  0  0
   11.8958    0.3721   24.4490 H   0  0  0  0  0  0  0  0  0  0  0  0
  1  2  1  0
  2  3  1  0
  3  4  1  0
  4  5  2  0
  4  6  1  0
  6  7  1  0
  7  8  2  0
  7  9  2  0
  7 10  1  0
 10 11  2  0
 11 12  1  0
 12 13  2  0
 13 14  1  0
 14 15  2  0
 15 16  1  0
 13 17  1  0
 12 18  1  0
 11 19  1  0
  6 20  1  0
  3 21  1  0
  3 22  1  0
  2 23  1  0
 23 24  2  0
 24 25  1  0
 25 26  2  0
 26 27  1  0
 26 28  1  0
 28 29  2  0
 29 30  1  0
 28 31  1  0
 25 32  1  0
 24 33  1  0
  1 34  1  0
  1 35  1  0
  1 36  1  0
 15 10  1  0
 29 23  1  0
M  END
>  <cnnaffinity>  (1) 
-4.80698

>  <filename>  (1) 
CN(CC(=O)NS(=O)(=O)c1cccnc1)c1ccc(Cl)cc1

$$$$
