
     RDKit          3D

 40 42  0  0  0  0  0  0  0  0999 V2000
    4.9505    1.8029   16.9583 H   0  0  0  0  0  0  0  0  0  0  0  0
    5.3920    1.3150   17.8240 C   0  0  0  0  0  0  0  0  0  0  0  0
    6.5574    0.6845   17.6109 N   0  0  0  0  0  0  0  0  0  0  0  0
    7.1438    0.1004   18.6569 C   0  0  0  0  0  0  0  0  0  0  0  0
    8.0677   -0.4482   18.4789 H   0  0  0  0  0  0  0  0  0  0  0  0
    6.6230    0.1469   19.9557 C   0  0  0  0  0  0  0  0  0  0  0  0
    7.3766   -0.5445   21.0228 C   0  0  0  0  0  0  0  0  0  0  0  0
    8.0271   -1.6128   20.6344 N   0  0  0  0  0  0  0  0  0  0  0  0
    8.5338   -2.4199   21.6065 C   0  0  0  0  0  0  0  0  0  0  0  0
    8.7690   -3.5998   21.4730 O   0  0  0  0  0  0  0  0  0  0  0  0
    8.7852   -1.8526   22.8585 N   0  0  0  0  0  0  0  0  0  0  0  0
    9.1005   -2.5547   23.5032 H   0  0  0  0  0  0  0  0  0  0  0  0
    8.0381   -0.8042   23.2922 C   0  0  0  0  0  0  0  0  0  0  0  0
    8.0425   -0.5512   24.6108 N   0  0  0  0  0  0  0  0  0  0  0  0
    8.9411   -1.1401   25.5989 C   0  0  0  0  0  0  0  0  0  0  0  0
    8.6523   -2.1766   25.8219 H   0  0  0  0  0  0  0  0  0  0  0  0
    9.9762   -1.1502   25.2298 H   0  0  0  0  0  0  0  0  0  0  0  0
    8.7868   -0.2309   26.8200 C   0  0  0  0  0  0  0  0  0  0  0  0
    9.5550    0.5452   26.7796 H   0  0  0  0  0  0  0  0  0  0  0  0
    8.9005   -0.7747   27.7635 H   0  0  0  0  0  0  0  0  0  0  0  0
    7.4070    0.4318   26.6843 C   0  0  1  0  0  0  0  0  0  0  0  0
    6.6361   -0.2770   27.0594 H   0  0  0  0  0  0  0  0  0  0  0  0
    7.3032    1.7388   27.3521 N   0  0  0  0  0  0  0  0  0  0  0  0
    6.0306    2.4031   27.0844 C   0  0  0  0  0  0  0  0  0  0  0  0
    6.0237    3.3897   27.5587 H   0  0  0  0  0  0  0  0  0  0  0  0
    5.8933    2.5744   26.0121 H   0  0  0  0  0  0  0  0  0  0  0  0
    5.1594    1.8292   27.4550 H   0  0  0  0  0  0  0  0  0  0  0  0
    7.5371    1.6588   28.7866 C   0  0  0  0  0  0  0  0  0  0  0  0
    6.7864    1.0414   29.3117 H   0  0  0  0  0  0  0  0  0  0  0  0
    7.5153    2.6656   29.2132 H   0  0  0  0  0  0  0  0  0  0  0  0
    8.5249    1.2482   29.0029 H   0  0  0  0  0  0  0  0  0  0  0  0
    7.2433    0.5362   25.1614 C   0  0  0  0  0  0  0  0  0  0  0  0
    7.6017    1.5196   24.8162 H   0  0  0  0  0  0  0  0  0  0  0  0
    6.1863    0.4366   24.8777 H   0  0  0  0  0  0  0  0  0  0  0  0
    7.3268   -0.0854   22.3521 C   0  0  0  0  0  0  0  0  0  0  0  0
    6.7640    0.7824   22.6480 H   0  0  0  0  0  0  0  0  0  0  0  0
    5.3809    0.7589   20.1589 C   0  0  0  0  0  0  0  0  0  0  0  0
    4.9010    0.7285   21.1388 H   0  0  0  0  0  0  0  0  0  0  0  0
    4.7539    1.3600   19.0686 C   0  0  0  0  0  0  0  0  0  0  0  0
    3.8025    1.8712   19.1727 H   0  0  0  0  0  0  0  0  0  0  0  0
  1  2  1  0
  2  3  2  0
  3  4  1  0
  4  5  1  0
  4  6  2  0
  6  7  1  0
  7  8  2  0
  8  9  1  0
  9 10  2  0
  9 11  1  0
 11 12  1  0
 11 13  1  0
 13 14  1  0
 14 15  1  0
 15 16  1  0
 15 17  1  0
 15 18  1  0
 18 19  1  0
 18 20  1  0
 18 21  1  0
 21 22  1  1
 21 23  1  0
 23 24  1  0
 24 25  1  0
 24 26  1  0
 24 27  1  0
 23 28  1  0
 28 29  1  0
 28 30  1  0
 28 31  1  0
 21 32  1  0
 32 33  1  0
 32 34  1  0
 13 35  2  0
 35 36  1  0
  6 37  1  0
 37 38  1  0
 37 39  2  0
 39 40  1  0
 39  2  1  0
 35  7  1  0
 32 14  1  0
M  END
>  <cnnaffinity>  (1) 
-4.99805

>  <filename>  (1) 
CN(C)[C@@H]1CCN(c2cc(-c3cccnc3)nc(=O)[nH]2)C1

$$$$
