
     RDKit          3D

 32 33  0  0  0  0  0  0  0  0999 V2000
    7.3569    2.2449   25.6688 H   0  0  0  0  0  0  0  0  0  0  0  0
    7.4325    3.1717   25.9504 O   0  0  0  0  0  0  0  0  0  0  0  0
    7.8338    3.9057   24.8843 C   0  0  0  0  0  0  0  0  0  0  0  0
    8.0304    5.2690   25.0845 C   0  0  0  0  0  0  0  0  0  0  0  0
    7.8336    5.6781   26.0698 H   0  0  0  0  0  0  0  0  0  0  0  0
    8.4582    6.0786   24.0310 C   0  0  0  0  0  0  0  0  0  0  0  0
    8.6839    7.7748   24.3072 Cl  0  0  0  0  0  0  0  0  0  0  0  0
    8.7146    5.5449   22.7692 C   0  0  0  0  0  0  0  0  0  0  0  0
    9.0511    6.1860   21.9616 H   0  0  0  0  0  0  0  0  0  0  0  0
    8.5161    4.1762   22.5638 C   0  0  0  0  0  0  0  0  0  0  0  0
    8.7341    3.7406   21.5971 H   0  0  0  0  0  0  0  0  0  0  0  0
    8.0503    3.3538   23.5930 C   0  0  0  0  0  0  0  0  0  0  0  0
    7.7340    2.0165   23.4809 O   0  0  0  0  0  0  0  0  0  0  0  0
    7.9563    1.4356   22.2069 N   0  0  0  0  0  0  0  0  0  0  0  0
    7.2528    1.7988   21.5725 H   0  0  0  0  0  0  0  0  0  0  0  0
    7.7718    0.0342   22.2590 C   0  0  0  0  0  0  0  0  0  0  0  0
    7.9738   -0.6513   23.2299 O   0  0  0  0  0  0  0  0  0  0  0  0
    7.4440   -0.5136   21.0027 N   0  0  0  0  0  0  0  0  0  0  0  0
    6.7148    0.1315   19.9458 C   0  0  0  0  0  0  0  0  0  0  0  0
    7.1864    0.1048   18.6117 C   0  0  0  0  0  0  0  0  0  0  0  0
    8.1168   -0.4187   18.3893 H   0  0  0  0  0  0  0  0  0  0  0  0
    6.5685    0.6872   17.5760 N   0  0  0  0  0  0  0  0  0  0  0  0
    5.4017    1.3053   17.8258 C   0  0  0  0  0  0  0  0  0  0  0  0
    4.9197    1.7828   16.9753 H   0  0  0  0  0  0  0  0  0  0  0  0
    4.8077    1.3322   19.0915 C   0  0  0  0  0  0  0  0  0  0  0  0
    3.8544    1.8303   19.2261 H   0  0  0  0  0  0  0  0  0  0  0  0
    5.4651    0.7302   20.1751 C   0  0  0  0  0  0  0  0  0  0  0  0
    5.0080    0.6817   21.1650 H   0  0  0  0  0  0  0  0  0  0  0  0
    7.7256   -1.9449   20.8336 C   0  0  0  0  0  0  0  0  0  0  0  0
    7.0910   -2.3373   20.0370 H   0  0  0  0  0  0  0  0  0  0  0  0
    8.7811   -2.1232   20.5839 H   0  0  0  0  0  0  0  0  0  0  0  0
    7.4925   -2.4874   21.7538 H   0  0  0  0  0  0  0  0  0  0  0  0
  1  2  1  0
  2  3  1  0
  3  4  2  0
  4  5  1  0
  4  6  1  0
  6  7  1  0
  6  8  2  0
  8  9  1  0
  8 10  1  0
 10 11  1  0
 10 12  2  0
 12 13  1  0
 13 14  1  0
 14 15  1  0
 14 16  1  0
 16 17  2  0
 16 18  1  0
 18 19  1  0
 19 20  2  0
 20 21  1  0
 20 22  1  0
 22 23  2  0
 23 24  1  0
 23 25  1  0
 25 26  1  0
 25 27  2  0
 27 28  1  0
 18 29  1  0
 29 30  1  0
 29 31  1  0
 29 32  1  0
 12  3  1  0
 27 19  1  0
M  END
>  <cnnaffinity>  (1) 
-5.13668

>  <filename>  (1) 
CN(C(=O)NOc1ccc(Cl)cc1O)c1cccnc1

$$$$
