
     RDKit          3D

 41 43  0  0  0  0  0  0  0  0999 V2000
    5.0562    1.8969   16.9732 H   0  0  0  0  0  0  0  0  0  0  0  0
    5.5203    1.3445   17.7880 C   0  0  0  0  0  0  0  0  0  0  0  0
    6.6864    0.7378   17.5075 N   0  0  0  0  0  0  0  0  0  0  0  0
    7.2879    0.0695   18.5021 C   0  0  0  0  0  0  0  0  0  0  0  0
    8.2342   -0.4162   18.2636 H   0  0  0  0  0  0  0  0  0  0  0  0
    6.7572   -0.0552   19.8029 C   0  0  0  0  0  0  0  0  0  0  0  0
    7.4473   -0.7490   20.8603 N   0  0  0  0  0  0  0  0  0  0  0  0
    6.8052   -1.7133   21.6281 C   0  0  0  0  0  0  0  0  0  0  0  0
    5.7196   -2.1915   21.3850 O   0  0  0  0  0  0  0  0  0  0  0  0
    7.6458   -2.1149   22.8241 C   0  0  0  0  0  0  0  0  0  0  0  0
    7.5816   -3.1967   22.9402 H   0  0  0  0  0  0  0  0  0  0  0  0
    7.2213   -1.6392   23.7122 H   0  0  0  0  0  0  0  0  0  0  0  0
    9.3438   -1.5723   22.5211 S   0  0  0  0  0  0  0  0  0  0  0  0
    8.7997   -0.3344   21.2687 C   0  0  2  0  0  0  0  0  0  0  0  0
    9.4780   -0.4182   20.4126 H   0  0  0  0  0  0  0  0  0  0  0  0
    8.7971    1.1211   21.7953 C   0  0  0  0  0  0  0  0  0  0  0  0
    8.0764    1.1279   22.6217 H   0  0  0  0  0  0  0  0  0  0  0  0
    8.3577    1.7555   21.0022 H   0  0  0  0  0  0  0  0  0  0  0  0
   10.1002    1.6064   22.2615 N   0  0  0  0  0  0  0  0  0  0  0  0
   11.0631    2.0232   21.2544 C   0  0  0  0  0  0  0  0  0  0  0  0
   10.7223    1.7452   20.2608 H   0  0  0  0  0  0  0  0  0  0  0  0
   12.0432    1.5475   21.4118 H   0  0  0  0  0  0  0  0  0  0  0  0
   11.2208    3.1113   21.2261 H   0  0  0  0  0  0  0  0  0  0  0  0
   10.0144    2.4847   23.4280 C   0  0  0  0  0  0  0  0  0  0  0  0
    9.2787    3.2980   23.2781 H   0  0  0  0  0  0  0  0  0  0  0  0
   10.9804    2.9839   23.5970 H   0  0  0  0  0  0  0  0  0  0  0  0
    9.6626    1.6979   24.6681 C   0  0  0  0  0  0  0  0  0  0  0  0
   10.5944    0.7932   25.2018 C   0  0  0  0  0  0  0  0  0  0  0  0
   11.5689    0.6858   24.7271 H   0  0  0  0  0  0  0  0  0  0  0  0
   10.2618    0.0281   26.3184 C   0  0  0  0  0  0  0  0  0  0  0  0
   10.9821   -0.6408   26.7560 H   0  0  0  0  0  0  0  0  0  0  0  0
    9.0146    0.1684   26.9349 C   0  0  0  0  0  0  0  0  0  0  0  0
    8.7735   -0.4244   27.8130 H   0  0  0  0  0  0  0  0  0  0  0  0
    8.1046    1.0967   26.4323 C   0  0  0  0  0  0  0  0  0  0  0  0
    7.1683    1.2770   26.9510 H   0  0  0  0  0  0  0  0  0  0  0  0
    8.4105    1.8284   25.2857 C   0  0  0  0  0  0  0  0  0  0  0  0
    7.6805    2.5171   24.8648 H   0  0  0  0  0  0  0  0  0  0  0  0
    5.5278    0.5628   20.0709 C   0  0  0  0  0  0  0  0  0  0  0  0
    5.0793    0.4652   21.0588 H   0  0  0  0  0  0  0  0  0  0  0  0
    4.9121    1.2868   19.0459 C   0  0  0  0  0  0  0  0  0  0  0  0
    3.9758    1.8097   19.2143 H   0  0  0  0  0  0  0  0  0  0  0  0
  1  2  1  0
  2  3  2  0
  3  4  1  0
  4  5  1  0
  4  6  2  0
  6  7  1  0
  7  8  1  0
  8  9  2  0
  8 10  1  0
 10 11  1  0
 10 12  1  0
 10 13  1  0
 13 14  1  0
 14 15  1  6
 14 16  1  0
 16 17  1  0
 16 18  1  0
 16 19  1  0
 19 20  1  0
 20 21  1  0
 20 22  1  0
 20 23  1  0
 19 24  1  0
 24 25  1  0
 24 26  1  0
 24 27  1  0
 27 28  2  0
 28 29  1  0
 28 30  1  0
 30 31  1  0
 30 32  2  0
 32 33  1  0
 32 34  1  0
 34 35  1  0
 34 36  2  0
 36 37  1  0
  6 38  1  0
 38 39  1  0
 38 40  2  0
 40 41  1  0
 40  2  1  0
 14  7  1  0
 36 27  1  0
M  END
>  <cnnaffinity>  (1) 
-5.07395

>  <filename>  (1) 
CN(Cc1ccccc1)C[C@H]1SCC(=O)N1c1cccnc1

$$$$
