
     RDKit          3D

 36 38  0  0  0  0  0  0  0  0999 V2000
    9.5956   -3.5958   24.8836 C   0  0  0  0  0  0  0  0  0  0  0  0
    8.3242   -2.8950   24.8450 N   0  0  0  0  0  0  0  0  0  0  0  0
    8.3249   -1.5210   24.3798 C   0  0  0  0  0  0  0  0  0  0  0  0
    8.0887   -1.3421   22.9053 C   0  0  0  0  0  0  0  0  0  0  0  0
    7.2330   -0.4762   22.2763 C   0  0  0  0  0  0  0  0  0  0  0  0
    7.3598   -0.6793   20.9344 N   0  0  0  0  0  0  0  0  0  0  0  0
    6.6612   -0.0026   19.9072 C   0  0  0  0  0  0  0  0  0  0  0  0
    5.4427    0.6440   20.1674 C   0  0  0  0  0  0  0  0  0  0  0  0
    4.8162    1.3006   19.1084 C   0  0  0  0  0  0  0  0  0  0  0  0
    5.4075    1.2882   17.8416 C   0  0  0  0  0  0  0  0  0  0  0  0
    6.5731    0.6690   17.5900 N   0  0  0  0  0  0  0  0  0  0  0  0
    7.1832    0.0457   18.6019 C   0  0  0  0  0  0  0  0  0  0  0  0
    8.1286   -0.4327   18.3664 H   0  0  0  0  0  0  0  0  0  0  0  0
    4.9310    1.7814   16.9970 H   0  0  0  0  0  0  0  0  0  0  0  0
    3.8866    1.8324   19.2623 H   0  0  0  0  0  0  0  0  0  0  0  0
    4.9884    0.6295   21.1603 H   0  0  0  0  0  0  0  0  0  0  0  0
    8.2834   -1.6241   20.6653 N   0  0  0  0  0  0  0  0  0  0  0  0
    8.7164   -2.0328   21.8454 C   0  0  0  0  0  0  0  0  0  0  0  0
    9.4817   -2.7993   21.8922 H   0  0  0  0  0  0  0  0  0  0  0  0
    6.5530    0.2718   22.6687 H   0  0  0  0  0  0  0  0  0  0  0  0
    7.5829   -0.9414   24.9415 H   0  0  0  0  0  0  0  0  0  0  0  0
    9.2917   -1.0705   24.6444 H   0  0  0  0  0  0  0  0  0  0  0  0
    7.1318   -3.5634   25.1216 C   0  0  0  0  0  0  0  0  0  0  0  0
    5.8778   -3.0804   24.6757 C   0  0  0  0  0  0  0  0  0  0  0  0
    4.6961   -3.7593   24.9978 C   0  0  0  0  0  0  0  0  0  0  0  0
    4.7212   -4.9242   25.7685 C   0  0  0  0  0  0  0  0  0  0  0  0
    5.9518   -5.4111   26.2112 C   0  0  0  0  0  0  0  0  0  0  0  0
    7.1399   -4.7493   25.8902 C   0  0  0  0  0  0  0  0  0  0  0  0
    8.0888   -5.1335   26.2451 H   0  0  0  0  0  0  0  0  0  0  0  0
    5.9953   -6.3153   26.8123 H   0  0  0  0  0  0  0  0  0  0  0  0
    3.7976   -5.4448   26.0217 H   0  0  0  0  0  0  0  0  0  0  0  0
    3.7465   -3.3632   24.6500 H   0  0  0  0  0  0  0  0  0  0  0  0
    5.8371   -2.1781   24.0751 H   0  0  0  0  0  0  0  0  0  0  0  0
    9.9193   -3.8114   25.9102 H   0  0  0  0  0  0  0  0  0  0  0  0
   10.3789   -2.9845   24.4230 H   0  0  0  0  0  0  0  0  0  0  0  0
    9.5589   -4.5503   24.3428 H   0  0  0  0  0  0  0  0  0  0  0  0
  1  2  1  0
  2  3  1  0
  3  4  1  0
  4  5  2  0
  5  6  1  0
  6  7  1  0
  7  8  2  0
  8  9  1  0
  9 10  2  0
 10 11  1  0
 11 12  2  0
 12 13  1  0
 10 14  1  0
  9 15  1  0
  8 16  1  0
  6 17  1  0
 17 18  2  0
 18 19  1  0
  5 20  1  0
  3 21  1  0
  3 22  1  0
  2 23  1  0
 23 24  2  0
 24 25  1  0
 25 26  2  0
 26 27  1  0
 27 28  2  0
 28 29  1  0
 27 30  1  0
 26 31  1  0
 25 32  1  0
 24 33  1  0
  1 34  1  0
  1 35  1  0
  1 36  1  0
 18  4  1  0
 28 23  1  0
 12  7  1  0
M  END
>  <cnnaffinity>  (1) 
-5.01625

>  <filename>  (1) 
CN(Cc1cnn(-c2cccnc2)c1)c1ccccc1

$$$$
