
     RDKit          3D

 45 47  0  0  0  0  0  0  0  0999 V2000
    7.9407   -2.6363   22.9236 C   0  0  0  0  0  0  0  0  0  0  0  0
    7.7326   -1.2254   23.2618 N   0  0  0  0  0  0  0  0  0  0  0  0
    7.3440   -0.2624   22.3402 C   0  0  0  0  0  0  0  0  0  0  0  0
    7.0659    0.8841   22.6642 O   0  0  0  0  0  0  0  0  0  0  0  0
    7.3008   -0.6946   21.0180 N   0  0  0  0  0  0  0  0  0  0  0  0
    6.6708   -0.0129   19.9376 C   0  0  0  0  0  0  0  0  0  0  0  0
    5.4583    0.6517   20.1736 C   0  0  0  0  0  0  0  0  0  0  0  0
    4.8171    1.2976   19.1126 C   0  0  0  0  0  0  0  0  0  0  0  0
    5.4140    1.2770   17.8481 C   0  0  0  0  0  0  0  0  0  0  0  0
    6.5776    0.6538   17.5992 N   0  0  0  0  0  0  0  0  0  0  0  0
    7.1866    0.0285   18.6172 C   0  0  0  0  0  0  0  0  0  0  0  0
    8.1357   -0.4456   18.3694 H   0  0  0  0  0  0  0  0  0  0  0  0
    4.9511    1.7822   17.0040 H   0  0  0  0  0  0  0  0  0  0  0  0
    3.8808    1.8311   19.2555 H   0  0  0  0  0  0  0  0  0  0  0  0
    5.0634    0.6525   21.1868 H   0  0  0  0  0  0  0  0  0  0  0  0
    7.9265   -1.4539   20.8242 H   0  0  0  0  0  0  0  0  0  0  0  0
    7.8015   -0.8262   24.6915 C   0  0  0  0  0  0  0  0  0  0  0  0
    8.8450    0.2945   24.9665 C   0  0  0  0  0  0  0  0  0  0  0  0
    8.2512    1.5588   25.6156 C   0  0  0  0  0  0  0  0  0  0  0  0
    7.4578    1.2265   26.7936 N   0  0  0  0  0  0  0  0  0  0  0  0
    7.4135    2.0728   27.9079 C   0  0  0  0  0  0  0  0  0  0  0  0
    7.3037    1.5447   29.2106 C   0  0  0  0  0  0  0  0  0  0  0  0
    7.2806    2.3817   30.3328 C   0  0  0  0  0  0  0  0  0  0  0  0
    7.3428    3.7666   30.1591 C   0  0  0  0  0  0  0  0  0  0  0  0
    7.3431    4.8118   31.5524 Cl  0  0  0  0  0  0  0  0  0  0  0  0
    7.4294    4.3200   28.8790 C   0  0  0  0  0  0  0  0  0  0  0  0
    7.4803    3.4742   27.7630 C   0  0  0  0  0  0  0  0  0  0  0  0
    7.5827    3.8830   26.7627 H   0  0  0  0  0  0  0  0  0  0  0  0
    7.5096    5.3977   28.7688 H   0  0  0  0  0  0  0  0  0  0  0  0
    7.2147    1.9705   31.3368 H   0  0  0  0  0  0  0  0  0  0  0  0
    7.2490    0.4675   29.3281 H   0  0  0  0  0  0  0  0  0  0  0  0
    6.5467    0.0873   26.7165 C   0  0  0  0  0  0  0  0  0  0  0  0
    6.4193   -0.4557   25.2822 C   0  0  0  0  0  0  0  0  0  0  0  0
    5.7807   -1.3445   25.2957 H   0  0  0  0  0  0  0  0  0  0  0  0
    5.9462    0.3004   24.6441 H   0  0  0  0  0  0  0  0  0  0  0  0
    6.8715   -0.7202   27.3996 H   0  0  0  0  0  0  0  0  0  0  0  0
    5.5529    0.4053   27.0743 H   0  0  0  0  0  0  0  0  0  0  0  0
    7.6488    2.0850   24.8561 H   0  0  0  0  0  0  0  0  0  0  0  0
    9.0753    2.2181   25.9212 H   0  0  0  0  0  0  0  0  0  0  0  0
    9.3298    0.5975   24.0344 H   0  0  0  0  0  0  0  0  0  0  0  0
    9.6142   -0.1110   25.6351 H   0  0  0  0  0  0  0  0  0  0  0  0
    8.1475   -1.7236   25.2282 H   0  0  0  0  0  0  0  0  0  0  0  0
    7.0985   -3.0589   22.3591 H   0  0  0  0  0  0  0  0  0  0  0  0
    8.0212   -3.2096   23.8538 H   0  0  0  0  0  0  0  0  0  0  0  0
    8.8655   -2.8161   22.3527 H   0  0  0  0  0  0  0  0  0  0  0  0
  1  2  1  0
  2  3  1  0
  3  4  2  0
  3  5  1  0
  5  6  1  0
  6  7  2  0
  7  8  1  0
  8  9  2  0
  9 10  1  0
 10 11  2  0
 11 12  1  0
  9 13  1  0
  8 14  1  0
  7 15  1  0
  5 16  1  0
  2 17  1  0
 17 18  1  0
 18 19  1  0
 19 20  1  0
 20 21  1  0
 21 22  2  0
 22 23  1  0
 23 24  2  0
 24 25  1  0
 24 26  1  0
 26 27  2  0
 27 28  1  0
 26 29  1  0
 23 30  1  0
 22 31  1  0
 20 32  1  0
 32 33  1  0
 33 34  1  0
 33 35  1  0
 32 36  1  0
 32 37  1  0
 19 38  1  0
 19 39  1  0
 18 40  1  0
 18 41  1  0
 17 42  1  0
  1 43  1  0
  1 44  1  0
  1 45  1  0
 11  6  1  0
 33 17  1  0
 27 21  1  0
M  END
>  <cnnaffinity>  (1) 
-5.20042

>  <filename>  (1) 
CN(C(=O)Nc1cccnc1)C1CCN(c2ccc(Cl)cc2)CC1

$$$$
