
     RDKit          3D

 34 35  0  0  0  0  0  0  0  0999 V2000
    5.1305    2.0579   16.5508 H   0  0  0  0  0  0  0  0  0  0  0  0
    5.6170    1.5585   17.3864 C   0  0  0  0  0  0  0  0  0  0  0  0
    6.7901    0.9664   17.1181 N   0  0  0  0  0  0  0  0  0  0  0  0
    7.4144    0.3385   18.1252 C   0  0  0  0  0  0  0  0  0  0  0  0
    8.3592   -0.1467   17.8824 H   0  0  0  0  0  0  0  0  0  0  0  0
    6.9042    0.2432   19.4452 C   0  0  0  0  0  0  0  0  0  0  0  0
    7.6190   -0.4594   20.4862 N   0  0  0  0  0  0  0  0  0  0  0  0
    8.9894   -0.0288   20.7792 C   0  0  0  0  0  0  0  0  0  0  0  0
    9.0831    1.0482   20.6046 H   0  0  0  0  0  0  0  0  0  0  0  0
    9.6985   -0.5498   20.1256 H   0  0  0  0  0  0  0  0  0  0  0  0
    9.2676   -0.2089   21.8229 H   0  0  0  0  0  0  0  0  0  0  0  0
    6.7762   -1.2476   21.6885 S   0  0  0  0  0  0  0  0  0  0  0  0
    5.5510   -1.7714   21.1448 O   0  0  0  0  0  0  0  0  0  0  0  0
    6.8507   -0.4937   22.9327 O   0  0  0  0  0  0  0  0  0  0  0  0
    7.8414   -2.5112   21.9832 N   0  0  0  0  0  0  0  0  0  0  0  0
    8.2435   -2.0180   22.7820 H   0  0  0  0  0  0  0  0  0  0  0  0
    7.1838   -3.7076   22.5480 C   0  0  0  0  0  0  0  0  0  0  0  0
    6.3633   -4.0079   21.8900 H   0  0  0  0  0  0  0  0  0  0  0  0
    8.1907   -4.8402   22.6826 C   0  0  0  0  0  0  0  0  0  0  0  0
    8.4889   -5.2282   21.7069 H   0  0  0  0  0  0  0  0  0  0  0  0
    9.0846   -4.4316   23.1697 H   0  0  0  0  0  0  0  0  0  0  0  0
    7.4972   -5.8640   23.5981 C   0  0  0  0  0  0  0  0  0  0  0  0
    6.8691   -6.5444   23.0091 H   0  0  0  0  0  0  0  0  0  0  0  0
    8.2169   -6.4845   24.1435 H   0  0  0  0  0  0  0  0  0  0  0  0
    6.6069   -5.0072   24.5405 C   0  0  0  0  0  0  0  0  0  0  0  0
    5.5751   -5.3724   24.5311 H   0  0  0  0  0  0  0  0  0  0  0  0
    6.9420   -5.0664   25.5813 H   0  0  0  0  0  0  0  0  0  0  0  0
    6.6628   -3.5597   23.9881 C   0  0  0  0  0  0  0  0  0  0  0  0
    7.3795   -2.9598   24.5667 H   0  0  0  0  0  0  0  0  0  0  0  0
    5.6997   -3.0424   24.0276 H   0  0  0  0  0  0  0  0  0  0  0  0
    5.6813    0.8773   19.7050 C   0  0  0  0  0  0  0  0  0  0  0  0
    5.2663    0.8639   20.7128 H   0  0  0  0  0  0  0  0  0  0  0  0
    5.0279    1.5397   18.6555 C   0  0  0  0  0  0  0  0  0  0  0  0
    4.0775    2.0370   18.8098 H   0  0  0  0  0  0  0  0  0  0  0  0
  1  2  1  0
  2  3  2  0
  3  4  1  0
  4  5  1  0
  4  6  2  0
  6  7  1  0
  7  8  1  0
  8  9  1  0
  8 10  1  0
  8 11  1  0
  7 12  1  0
 12 13  2  0
 12 14  2  0
 12 15  1  0
 15 16  1  0
 15 17  1  0
 17 18  1  0
 17 19  1  0
 19 20  1  0
 19 21  1  0
 19 22  1  0
 22 23  1  0
 22 24  1  0
 22 25  1  0
 25 26  1  0
 25 27  1  0
 25 28  1  0
 28 29  1  0
 28 30  1  0
  6 31  1  0
 31 32  1  0
 31 33  2  0
 33 34  1  0
 33  2  1  0
 28 17  1  0
M  END
>  <cnnaffinity>  (1) 
-4.35089

>  <filename>  (1) 
CN(c1cccnc1)S(=O)(=O)NC1CCCC1

$$$$
