
     RDKit          3D

 44 47  0  0  0  0  0  0  0  0999 V2000
    8.1227   -4.1926   24.5989 C   0  0  0  0  0  0  0  0  0  0  0  0
    7.1055   -3.1610   24.3875 N   0  0  0  0  0  0  0  0  0  0  0  0
    7.4583   -1.7256   24.3279 C   0  0  0  0  0  0  0  0  0  0  0  0
    7.5713   -1.1555   22.9222 C   0  0  0  0  0  0  0  0  0  0  0  0
    6.6977   -0.3955   22.2824 N   0  0  0  0  0  0  0  0  0  0  0  0
    7.1327   -0.4378   20.9981 C   0  0  0  0  0  0  0  0  0  0  0  0
    6.4465    0.1892   19.8707 C   0  0  0  0  0  0  0  0  0  0  0  0
    5.2295    0.8814   19.9761 C   0  0  0  0  0  0  0  0  0  0  0  0
    4.7324    1.4881   18.8236 C   0  0  0  0  0  0  0  0  0  0  0  0
    5.4413    1.3607   17.6235 C   0  0  0  0  0  0  0  0  0  0  0  0
    6.5784    0.6599   17.5059 N   0  0  0  0  0  0  0  0  0  0  0  0
    7.0629    0.0929   18.6122 C   0  0  0  0  0  0  0  0  0  0  0  0
    7.9910   -0.4661   18.5005 H   0  0  0  0  0  0  0  0  0  0  0  0
    5.0869    1.8509   16.7200 H   0  0  0  0  0  0  0  0  0  0  0  0
    3.8276    2.0846   18.8405 H   0  0  0  0  0  0  0  0  0  0  0  0
    4.6937    0.9465   20.9268 H   0  0  0  0  0  0  0  0  0  0  0  0
    8.2390   -1.1404   20.8228 N   0  0  0  0  0  0  0  0  0  0  0  0
    8.5373   -1.5649   22.0687 N   0  0  0  0  0  0  0  0  0  0  0  0
    9.7385   -2.3196   22.2975 C   0  0  0  0  0  0  0  0  0  0  0  0
   11.0802   -1.6742   22.1209 C   0  0  0  0  0  0  0  0  0  0  0  0
   10.6062   -2.0618   23.4916 C   0  0  0  0  0  0  0  0  0  0  0  0
   10.3718   -1.2377   24.1633 H   0  0  0  0  0  0  0  0  0  0  0  0
   11.0594   -2.9333   23.9626 H   0  0  0  0  0  0  0  0  0  0  0  0
   11.8633   -2.2610   21.6520 H   0  0  0  0  0  0  0  0  0  0  0  0
   11.1018   -0.6169   21.8732 H   0  0  0  0  0  0  0  0  0  0  0  0
    9.6516   -3.3366   21.9394 H   0  0  0  0  0  0  0  0  0  0  0  0
    8.4082   -1.5941   24.8524 H   0  0  0  0  0  0  0  0  0  0  0  0
    6.6933   -1.1571   24.8621 H   0  0  0  0  0  0  0  0  0  0  0  0
    5.7842   -3.4973   24.0499 C   0  0  0  0  0  0  0  0  0  0  0  0
    4.8289   -2.9309   24.5567 O   0  0  0  0  0  0  0  0  0  0  0  0
    5.6096   -4.5885   23.0143 C   0  0  0  0  0  0  0  0  0  0  0  0
    4.4808   -5.4247   23.0919 C   0  0  0  0  0  0  0  0  0  0  0  0
    4.3144   -6.4544   22.1629 C   0  0  0  0  0  0  0  0  0  0  0  0
    5.2715   -6.6542   21.1606 C   0  0  0  0  0  0  0  0  0  0  0  0
    6.3886   -5.8168   21.0580 C   0  0  0  0  0  0  0  0  0  0  0  0
    6.5362   -4.7628   21.9635 C   0  0  0  0  0  0  0  0  0  0  0  0
    7.3566   -4.0515   21.8310 H   0  0  0  0  0  0  0  0  0  0  0  0
    7.1413   -5.9805   20.2900 H   0  0  0  0  0  0  0  0  0  0  0  0
    5.1093   -7.4402   20.4308 H   0  0  0  0  0  0  0  0  0  0  0  0
    3.4298   -7.0913   22.2129 H   0  0  0  0  0  0  0  0  0  0  0  0
    3.7362   -5.2534   23.8697 H   0  0  0  0  0  0  0  0  0  0  0  0
    9.1095   -3.7288   24.6704 H   0  0  0  0  0  0  0  0  0  0  0  0
    7.9484   -4.7423   25.5346 H   0  0  0  0  0  0  0  0  0  0  0  0
    8.1504   -4.9437   23.7980 H   0  0  0  0  0  0  0  0  0  0  0  0
  1  2  1  0
  2  3  1  0
  3  4  1  0
  4  5  2  0
  5  6  1  0
  6  7  1  0
  7  8  2  0
  8  9  1  0
  9 10  2  0
 10 11  1  0
 11 12  2  0
 12 13  1  0
 10 14  1  0
  9 15  1  0
  8 16  1  0
  6 17  2  0
 17 18  1  0
 18 19  1  0
 19 20  1  0
 20 21  1  0
 21 22  1  0
 21 23  1  0
 20 24  1  0
 20 25  1  0
 19 26  1  0
  3 27  1  0
  3 28  1  0
  2 29  1  0
 29 30  2  0
 29 31  1  0
 31 32  2  0
 32 33  1  0
 33 34  2  0
 34 35  1  0
 35 36  2  0
 36 37  1  0
 35 38  1  0
 34 39  1  0
 33 40  1  0
 32 41  1  0
  1 42  1  0
  1 43  1  0
  1 44  1  0
 18  4  1  0
 21 19  1  0
 36 31  1  0
 12  7  1  0
M  END
>  <cnnaffinity>  (1) 
-5.84631

>  <filename>  (1) 
CN(Cc1nc(-c2cccnc2)nn1C1CC1)C(=O)c1ccccc1

$$$$
