
     RDKit          3D

 42 43  0  0  0  0  0  0  0  0999 V2000
    4.9441    1.8449   16.8965 H   0  0  0  0  0  0  0  0  0  0  0  0
    5.4037    1.3236   17.7402 C   0  0  0  0  0  0  0  0  0  0  0  0
    6.5736    0.7091   17.5073 N   0  0  0  0  0  0  0  0  0  0  0  0
    7.1698    0.0923   18.5424 C   0  0  0  0  0  0  0  0  0  0  0  0
    8.1172   -0.3957   18.3143 H   0  0  0  0  0  0  0  0  0  0  0  0
    6.6474    0.0306   19.8633 C   0  0  0  0  0  0  0  0  0  0  0  0
    7.2955   -0.5471   20.9797 N   0  0  0  0  0  0  0  0  0  0  0  0
    8.7581   -0.5688   21.0860 C   0  0  0  0  0  0  0  0  0  0  0  0
    9.1826   -1.4595   20.5848 H   0  0  0  0  0  0  0  0  0  0  0  0
    9.1751    0.3195   20.5989 H   0  0  0  0  0  0  0  0  0  0  0  0
    9.1802   -0.5895   22.5664 C   0  0  0  0  0  0  0  0  0  0  0  0
   10.2764   -0.6407   22.6166 H   0  0  0  0  0  0  0  0  0  0  0  0
    8.8664    0.3674   23.0324 H   0  0  0  0  0  0  0  0  0  0  0  0
    8.6019   -1.7500   23.2576 N   0  0  0  0  0  0  0  0  0  0  0  0
    9.1642   -2.0579   24.5684 C   0  0  0  0  0  0  0  0  0  0  0  0
    8.5733   -2.8774   24.9982 H   0  0  0  0  0  0  0  0  0  0  0  0
   10.1829   -2.4510   24.4088 H   0  0  0  0  0  0  0  0  0  0  0  0
    9.2276   -0.8948   25.5754 C   0  0  0  0  0  0  0  0  0  0  0  0
    9.9297   -0.1395   25.2019 H   0  0  0  0  0  0  0  0  0  0  0  0
    9.6599   -1.2612   26.5170 H   0  0  0  0  0  0  0  0  0  0  0  0
    7.8652   -0.2298   25.8330 C   0  0  0  0  0  0  0  0  0  0  0  0
    7.9605    0.5199   26.6448 H   0  0  0  0  0  0  0  0  0  0  0  0
    7.5839    0.3481   24.9388 H   0  0  0  0  0  0  0  0  0  0  0  0
    6.8098   -1.2063   26.1212 N   0  0  0  0  0  0  0  0  0  0  0  0
    7.0830   -1.9813   27.3266 C   0  0  0  0  0  0  0  0  0  0  0  0
    8.1119   -2.3588   27.3349 H   0  0  0  0  0  0  0  0  0  0  0  0
    6.4193   -2.8569   27.3725 H   0  0  0  0  0  0  0  0  0  0  0  0
    6.9298   -1.3666   28.2335 H   0  0  0  0  0  0  0  0  0  0  0  0
    5.4812   -0.6046   26.2014 C   0  0  0  0  0  0  0  0  0  0  0  0
    4.7366   -1.3793   26.4263 H   0  0  0  0  0  0  0  0  0  0  0  0
    5.4049    0.1611   27.0012 H   0  0  0  0  0  0  0  0  0  0  0  0
    5.2046   -0.1381   25.2437 H   0  0  0  0  0  0  0  0  0  0  0  0
    7.1328   -1.7538   23.1386 C   0  0  0  0  0  0  0  0  0  0  0  0
    6.6624   -0.9039   23.6574 H   0  0  0  0  0  0  0  0  0  0  0  0
    6.7380   -2.6689   23.5951 H   0  0  0  0  0  0  0  0  0  0  0  0
    6.7275   -1.7274   21.6552 C   0  0  0  0  0  0  0  0  0  0  0  0
    5.6368   -1.7335   21.5594 H   0  0  0  0  0  0  0  0  0  0  0  0
    7.0983   -2.6560   21.1853 H   0  0  0  0  0  0  0  0  0  0  0  0
    5.3966    0.6474   20.0567 C   0  0  0  0  0  0  0  0  0  0  0  0
    4.9622    0.6204   21.0553 H   0  0  0  0  0  0  0  0  0  0  0  0
    4.7780    1.3101   18.9908 C   0  0  0  0  0  0  0  0  0  0  0  0
    3.8353    1.8261   19.1292 H   0  0  0  0  0  0  0  0  0  0  0  0
  1  2  1  0
  2  3  2  0
  3  4  1  0
  4  5  1  0
  4  6  2  0
  6  7  1  0
  7  8  1  0
  8  9  1  0
  8 10  1  0
  8 11  1  0
 11 12  1  0
 11 13  1  0
 11 14  1  0
 14 15  1  0
 15 16  1  0
 15 17  1  0
 15 18  1  0
 18 19  1  0
 18 20  1  0
 18 21  1  0
 21 22  1  0
 21 23  1  0
 21 24  1  0
 24 25  1  0
 25 26  1  0
 25 27  1  0
 25 28  1  0
 24 29  1  0
 29 30  1  0
 29 31  1  0
 29 32  1  0
 14 33  1  0
 33 34  1  0
 33 35  1  0
 33 36  1  0
 36 37  1  0
 36 38  1  0
  6 39  1  0
 39 40  1  0
 39 41  2  0
 41 42  1  0
 41  2  1  0
 36  7  1  0
M  END
>  <cnnaffinity>  (1) 
-4.42652

>  <filename>  (1) 
CN(C)CCCN1CCN(c2cccnc2)CC1

$$$$
