
     RDKit          3D

 42 44  0  0  0  0  0  0  0  0999 V2000
    7.4064   -2.6891   26.4207 C   0  0  0  0  0  0  0  0  0  0  0  0
    7.7265   -2.5456   24.9944 N   0  0  0  0  0  0  0  0  0  0  0  0
    6.7508   -2.7133   24.0146 C   0  0  0  0  0  0  0  0  0  0  0  0
    5.1591   -3.0657   24.3779 S   0  0  0  0  0  0  0  0  0  0  0  0
    7.1740   -2.6140   22.7268 N   0  0  0  0  0  0  0  0  0  0  0  0
    6.4504   -2.0912   21.5761 C   0  0  0  0  0  0  0  0  0  0  0  0
    7.1484   -0.8041   21.1086 C   0  0  0  0  0  0  0  0  0  0  0  0
    6.5417   -0.0949   19.9169 C   0  0  0  0  0  0  0  0  0  0  0  0
    5.3432    0.6224   20.0443 C   0  0  0  0  0  0  0  0  0  0  0  0
    4.8447    1.3209   18.9414 C   0  0  0  0  0  0  0  0  0  0  0  0
    5.5535    1.2623   17.7372 C   0  0  0  0  0  0  0  0  0  0  0  0
    6.6806    0.5549   17.5761 N   0  0  0  0  0  0  0  0  0  0  0  0
    7.1531   -0.0947   18.6505 C   0  0  0  0  0  0  0  0  0  0  0  0
    8.0802   -0.6484   18.4978 H   0  0  0  0  0  0  0  0  0  0  0  0
    5.1984    1.8040   16.8614 H   0  0  0  0  0  0  0  0  0  0  0  0
    3.9410    1.9178   19.0038 H   0  0  0  0  0  0  0  0  0  0  0  0
    4.8165    0.6332   21.0018 H   0  0  0  0  0  0  0  0  0  0  0  0
    8.2018   -1.0440   20.9067 H   0  0  0  0  0  0  0  0  0  0  0  0
    7.1393   -0.1102   21.9627 H   0  0  0  0  0  0  0  0  0  0  0  0
    5.4136   -1.8988   21.8509 H   0  0  0  0  0  0  0  0  0  0  0  0
    6.4274   -2.8486   20.7816 H   0  0  0  0  0  0  0  0  0  0  0  0
    8.1752   -2.6199   22.6067 H   0  0  0  0  0  0  0  0  0  0  0  0
    9.1222   -2.5508   24.6585 C   0  0  0  0  0  0  0  0  0  0  0  0
    9.8526   -3.6884   24.9666 C   0  0  0  0  0  0  0  0  0  0  0  0
   11.0331   -3.9879   24.2653 C   0  0  0  0  0  0  0  0  0  0  0  0
   11.4511   -3.1238   23.2718 C   0  0  0  0  0  0  0  0  0  0  0  0
   10.8384   -1.8555   23.0730 C   0  0  0  0  0  0  0  0  0  0  0  0
   11.3587   -0.9347   22.1200 C   0  0  0  0  0  0  0  0  0  0  0  0
   10.8149    0.3201   21.9697 C   0  0  0  0  0  0  0  0  0  0  0  0
    9.7231    0.7059   22.7751 C   0  0  0  0  0  0  0  0  0  0  0  0
    9.1951   -0.1559   23.7259 C   0  0  0  0  0  0  0  0  0  0  0  0
    9.7001   -1.4916   23.8662 C   0  0  0  0  0  0  0  0  0  0  0  0
    8.3731    0.1728   24.3540 H   0  0  0  0  0  0  0  0  0  0  0  0
    9.3011    1.6970   22.6416 H   0  0  0  0  0  0  0  0  0  0  0  0
   11.2231    1.0008   21.2258 H   0  0  0  0  0  0  0  0  0  0  0  0
   12.2065   -1.2507   21.5261 H   0  0  0  0  0  0  0  0  0  0  0  0
   12.3504   -3.3089   22.7074 H   0  0  0  0  0  0  0  0  0  0  0  0
   11.5798   -4.9044   24.4902 H   0  0  0  0  0  0  0  0  0  0  0  0
    9.4414   -4.4021   25.6739 H   0  0  0  0  0  0  0  0  0  0  0  0
    6.5996   -3.4114   26.5715 H   0  0  0  0  0  0  0  0  0  0  0  0
    7.0925   -1.7258   26.8349 H   0  0  0  0  0  0  0  0  0  0  0  0
    8.2902   -3.0309   26.9698 H   0  0  0  0  0  0  0  0  0  0  0  0
  1  2  1  0
  2  3  1  0
  3  4  2  0
  3  5  1  0
  5  6  1  0
  6  7  1  0
  7  8  1  0
  8  9  2  0
  9 10  1  0
 10 11  2  0
 11 12  1  0
 12 13  2  0
 13 14  1  0
 11 15  1  0
 10 16  1  0
  9 17  1  0
  7 18  1  0
  7 19  1  0
  6 20  1  0
  6 21  1  0
  5 22  1  0
  2 23  1  0
 23 24  2  0
 24 25  1  0
 25 26  2  0
 26 27  1  0
 27 28  2  0
 28 29  1  0
 29 30  2  0
 30 31  1  0
 31 32  2  0
 31 33  1  0
 30 34  1  0
 29 35  1  0
 28 36  1  0
 26 37  1  0
 25 38  1  0
 24 39  1  0
  1 40  1  0
  1 41  1  0
  1 42  1  0
 13  8  1  0
 32 23  1  0
 32 27  1  0
M  END
>  <cnnaffinity>  (1) 
-5.69733

>  <filename>  (1) 
CN(C(=S)NCCc1cccnc1)c1cccc2ccccc12

$$$$
