
     RDKit          3D

 32 34  0  0  0  0  0  0  0  0999 V2000
    4.8999    1.8663   16.9545 H   0  0  0  0  0  0  0  0  0  0  0  0
    5.3533    1.3050   17.7711 C   0  0  0  0  0  0  0  0  0  0  0  0
    6.4887    0.6480   17.4860 N   0  0  0  0  0  0  0  0  0  0  0  0
    7.1014   -0.0070   18.4805 C   0  0  0  0  0  0  0  0  0  0  0  0
    8.0310   -0.5195   18.2293 H   0  0  0  0  0  0  0  0  0  0  0  0
    6.6095   -0.0345   19.7990 C   0  0  0  0  0  0  0  0  0  0  0  0
    7.5512   -0.7589   21.1455 S   0  0  0  0  0  0  0  0  0  0  0  0
    8.5111    0.6458   21.6389 C   0  0  0  0  0  0  0  0  0  0  0  0
    9.6783    0.9978   21.1407 N   0  0  0  0  0  0  0  0  0  0  0  0
   10.0211    2.1439   21.7816 N   0  0  0  0  0  0  0  0  0  0  0  0
    9.1294    2.4863   22.6347 N   0  0  0  0  0  0  0  0  0  0  0  0
    8.1538    1.5590   22.5904 N   0  0  0  0  0  0  0  0  0  0  0  0
    7.0117    1.7048   23.3670 N   0  0  0  0  0  0  0  0  0  0  0  0
    6.5816    0.6578   24.2070 C   0  0  0  0  0  0  0  0  0  0  0  0
    7.4840   -0.3277   24.6673 C   0  0  0  0  0  0  0  0  0  0  0  0
    8.5482   -0.1907   24.4932 H   0  0  0  0  0  0  0  0  0  0  0  0
    7.0150   -1.4160   25.4011 C   0  0  0  0  0  0  0  0  0  0  0  0
    7.7137   -2.1821   25.7336 H   0  0  0  0  0  0  0  0  0  0  0  0
    5.6607   -1.5227   25.7386 C   0  0  0  0  0  0  0  0  0  0  0  0
    5.3000   -2.3799   26.3002 H   0  0  0  0  0  0  0  0  0  0  0  0
    4.7791   -0.4997   25.3739 C   0  0  0  0  0  0  0  0  0  0  0  0
    3.7332   -0.5337   25.6653 H   0  0  0  0  0  0  0  0  0  0  0  0
    5.2319    0.5752   24.6029 C   0  0  0  0  0  0  0  0  0  0  0  0
    4.5442    1.3634   24.3157 H   0  0  0  0  0  0  0  0  0  0  0  0
    6.2809    2.9539   23.1897 C   0  0  0  0  0  0  0  0  0  0  0  0
    5.5560    2.9020   22.3640 H   0  0  0  0  0  0  0  0  0  0  0  0
    5.7637    3.2001   24.1187 H   0  0  0  0  0  0  0  0  0  0  0  0
    7.0093    3.7441   22.9849 H   0  0  0  0  0  0  0  0  0  0  0  0
    5.3934    0.5989   20.0671 C   0  0  0  0  0  0  0  0  0  0  0  0
    4.9617    0.5523   21.0667 H   0  0  0  0  0  0  0  0  0  0  0  0
    4.7622    1.2925   19.0355 C   0  0  0  0  0  0  0  0  0  0  0  0
    3.8435    1.8368   19.2079 H   0  0  0  0  0  0  0  0  0  0  0  0
  1  2  1  0
  2  3  2  0
  3  4  1  0
  4  5  1  0
  4  6  2  0
  6  7  1  0
  7  8  1  0
  8  9  2  0
  9 10  1  0
 10 11  2  0
 11 12  1  0
 12 13  1  0
 13 14  1  0
 14 15  2  0
 15 16  1  0
 15 17  1  0
 17 18  1  0
 17 19  2  0
 19 20  1  0
 19 21  1  0
 21 22  1  0
 21 23  2  0
 23 24  1  0
 13 25  1  0
 25 26  1  0
 25 27  1  0
 25 28  1  0
  6 29  1  0
 29 30  1  0
 29 31  2  0
 31 32  1  0
 31  2  1  0
 12  8  1  0
 23 14  1  0
M  END
>  <cnnaffinity>  (1) 
-4.61628

>  <filename>  (1) 
CN(c1ccccc1)n1nnnc1Sc1cccnc1

$$$$
