
     RDKit          3D

 33 34  0  0  0  0  0  0  0  0999 V2000
    8.2796   -0.2617   23.5615 C   0  0  0  0  0  0  0  0  0  0  0  0
    7.3336   -1.3257   23.1796 N   0  0  0  0  0  0  0  0  0  0  0  0
    6.8240   -2.2284   24.2226 C   0  0  0  0  0  0  0  0  0  0  0  0
    7.4590   -3.5594   23.9829 C   0  0  0  0  0  0  0  0  0  0  0  0
    6.7263   -4.5898   23.3705 C   0  0  0  0  0  0  0  0  0  0  0  0
    7.2958   -5.8418   23.1451 C   0  0  0  0  0  0  0  0  0  0  0  0
    6.2324   -7.2586   22.3973 Br  0  0  0  0  0  0  0  0  0  0  0  0
    8.6358   -6.0358   23.4910 C   0  0  0  0  0  0  0  0  0  0  0  0
    9.3874   -5.0015   24.0844 C   0  0  0  0  0  0  0  0  0  0  0  0
    8.7993   -3.7632   24.3427 C   0  0  0  0  0  0  0  0  0  0  0  0
    9.5181   -2.7766   24.9347 F   0  0  0  0  0  0  0  0  0  0  0  0
   10.4273   -5.1526   24.3580 H   0  0  0  0  0  0  0  0  0  0  0  0
    9.0917   -7.0023   23.3108 H   0  0  0  0  0  0  0  0  0  0  0  0
    5.7031   -4.4039   23.0585 H   0  0  0  0  0  0  0  0  0  0  0  0
    7.0709   -1.8740   25.2320 H   0  0  0  0  0  0  0  0  0  0  0  0
    5.7319   -2.2963   24.1642 H   0  0  0  0  0  0  0  0  0  0  0  0
    6.7959   -1.3791   21.8867 C   0  0  0  0  0  0  0  0  0  0  0  0
    5.6292   -2.5059   21.4747 S   0  0  0  0  0  0  0  0  0  0  0  0
    7.4023   -0.6490   20.8660 N   0  0  0  0  0  0  0  0  0  0  0  0
    6.7137   -0.0134   19.8148 C   0  0  0  0  0  0  0  0  0  0  0  0
    5.4602    0.5569   20.0503 C   0  0  0  0  0  0  0  0  0  0  0  0
    4.8272    1.2319   19.0018 C   0  0  0  0  0  0  0  0  0  0  0  0
    5.4382    1.3063   17.7437 C   0  0  0  0  0  0  0  0  0  0  0  0
    6.6361    0.7505   17.4938 N   0  0  0  0  0  0  0  0  0  0  0  0
    7.2581    0.1201   18.5131 C   0  0  0  0  0  0  0  0  0  0  0  0
    8.2325   -0.3155   18.3251 H   0  0  0  0  0  0  0  0  0  0  0  0
    4.9271    1.8293   16.9415 H   0  0  0  0  0  0  0  0  0  0  0  0
    3.8693    1.7168   19.1433 H   0  0  0  0  0  0  0  0  0  0  0  0
    5.0155    0.5001   21.0441 H   0  0  0  0  0  0  0  0  0  0  0  0
    8.4006   -0.4885   20.9763 H   0  0  0  0  0  0  0  0  0  0  0  0
    7.7956    0.7098   23.4506 H   0  0  0  0  0  0  0  0  0  0  0  0
    8.5812   -0.3639   24.6096 H   0  0  0  0  0  0  0  0  0  0  0  0
    9.1743   -0.2841   22.9298 H   0  0  0  0  0  0  0  0  0  0  0  0
  1  2  1  0
  2  3  1  0
  3  4  1  0
  4  5  2  0
  5  6  1  0
  6  7  1  0
  6  8  2  0
  8  9  1  0
  9 10  2  0
 10 11  1  0
  9 12  1  0
  8 13  1  0
  5 14  1  0
  3 15  1  0
  3 16  1  0
  2 17  1  0
 17 18  2  0
 17 19  1  0
 19 20  1  0
 20 21  2  0
 21 22  1  0
 22 23  2  0
 23 24  1  0
 24 25  2  0
 25 26  1  0
 23 27  1  0
 22 28  1  0
 21 29  1  0
 19 30  1  0
  1 31  1  0
  1 32  1  0
  1 33  1  0
 10  4  1  0
 25 20  1  0
M  END
>  <cnnaffinity>  (1) 
-5.20438

>  <filename>  (1) 
CN(Cc1cc(Br)ccc1F)C(=S)Nc1cccnc1

$$$$
