
     RDKit          3D

 37 39  0  0  0  0  0  0  0  0999 V2000
    4.9119    1.8096   16.9678 H   0  0  0  0  0  0  0  0  0  0  0  0
    5.3856    1.3095   17.8127 C   0  0  0  0  0  0  0  0  0  0  0  0
    6.5444    0.6840   17.5534 N   0  0  0  0  0  0  0  0  0  0  0  0
    7.1563    0.0717   18.5769 C   0  0  0  0  0  0  0  0  0  0  0  0
    8.0930   -0.4285   18.3322 H   0  0  0  0  0  0  0  0  0  0  0  0
    6.6573    0.0307   19.8972 C   0  0  0  0  0  0  0  0  0  0  0  0
    7.3100   -0.7015   20.9937 C   0  0  0  0  0  0  0  0  0  0  0  0
    6.7492   -1.6594   21.8066 C   0  0  0  0  0  0  0  0  0  0  0  0
    5.7093   -1.9484   21.7406 H   0  0  0  0  0  0  0  0  0  0  0  0
    7.7646   -2.1585   22.6634 C   0  0  0  0  0  0  0  0  0  0  0  0
    7.6484   -2.9015   23.4458 H   0  0  0  0  0  0  0  0  0  0  0  0
    8.9130   -1.4796   22.3541 C   0  0  0  0  0  0  0  0  0  0  0  0
    9.9148   -1.5242   22.7646 H   0  0  0  0  0  0  0  0  0  0  0  0
    8.6389   -0.5634   21.3652 N   0  0  0  0  0  0  0  0  0  0  0  0
    9.6232    0.3460   20.7848 C   0  0  0  0  0  0  0  0  0  0  0  0
   10.2258   -0.2613   20.0969 H   0  0  0  0  0  0  0  0  0  0  0  0
    9.0790    1.1097   20.2260 H   0  0  0  0  0  0  0  0  0  0  0  0
   10.5072    1.0129   21.7124 N   0  0  0  0  0  0  0  0  0  0  0  0
   10.0408    2.0667   22.5094 C   0  0  0  0  0  0  0  0  0  0  0  0
    8.6714    2.4094   22.5531 C   0  0  0  0  0  0  0  0  0  0  0  0
    7.9701    1.8157   21.9774 H   0  0  0  0  0  0  0  0  0  0  0  0
    8.2294    3.4766   23.3433 C   0  0  0  0  0  0  0  0  0  0  0  0
    7.1717    3.7327   23.3559 H   0  0  0  0  0  0  0  0  0  0  0  0
    9.1348    4.2229   24.1039 C   0  0  0  0  0  0  0  0  0  0  0  0
    8.7873    5.0569   24.7085 H   0  0  0  0  0  0  0  0  0  0  0  0
   10.4903    3.8901   24.0744 C   0  0  0  0  0  0  0  0  0  0  0  0
   11.2112    4.4643   24.6527 H   0  0  0  0  0  0  0  0  0  0  0  0
   10.9370    2.8225   23.2923 C   0  0  0  0  0  0  0  0  0  0  0  0
   11.9870    2.5629   23.2720 H   0  0  0  0  0  0  0  0  0  0  0  0
   11.8227    0.4352   21.9483 C   0  0  0  0  0  0  0  0  0  0  0  0
   11.9228   -0.4924   21.3736 H   0  0  0  0  0  0  0  0  0  0  0  0
   11.9777    0.1929   23.0090 H   0  0  0  0  0  0  0  0  0  0  0  0
   12.6325    1.1143   21.6429 H   0  0  0  0  0  0  0  0  0  0  0  0
    5.4294    0.6658   20.1307 C   0  0  0  0  0  0  0  0  0  0  0  0
    4.9986    0.6387   21.1310 H   0  0  0  0  0  0  0  0  0  0  0  0
    4.7940    1.3283   19.0804 C   0  0  0  0  0  0  0  0  0  0  0  0
    3.8603    1.8553   19.2310 H   0  0  0  0  0  0  0  0  0  0  0  0
  1  2  1  0
  2  3  2  0
  3  4  1  0
  4  5  1  0
  4  6  2  0
  6  7  1  0
  7  8  2  0
  8  9  1  0
  8 10  1  0
 10 11  1  0
 10 12  2  0
 12 13  1  0
 12 14  1  0
 14 15  1  0
 15 16  1  0
 15 17  1  0
 15 18  1  0
 18 19  1  0
 19 20  2  0
 20 21  1  0
 20 22  1  0
 22 23  1  0
 22 24  2  0
 24 25  1  0
 24 26  1  0
 26 27  1  0
 26 28  2  0
 28 29  1  0
 18 30  1  0
 30 31  1  0
 30 32  1  0
 30 33  1  0
  6 34  1  0
 34 35  1  0
 34 36  2  0
 36 37  1  0
 36  2  1  0
 14  7  1  0
 28 19  1  0
M  END
>  <cnnaffinity>  (1) 
-5.09494

>  <filename>  (1) 
CN(Cn1cccc1-c1cccnc1)c1ccccc1

$$$$
