
     RDKit          3D

 34 36  0  0  0  0  0  0  0  0999 V2000
    6.9896   -1.8903   20.7151 C   0  0  0  0  0  0  0  0  0  0  0  0
    7.0028   -0.4222   20.7389 N   0  0  0  0  0  0  0  0  0  0  0  0
    7.4456    0.3477   21.8244 C   0  0  0  0  0  0  0  0  0  0  0  0
    7.6552    1.5450   21.6939 O   0  0  0  0  0  0  0  0  0  0  0  0
    7.6867   -0.2797   23.1836 C   0  0  0  0  0  0  0  0  0  0  0  0
    8.2476    0.4066   24.2486 C   0  0  0  0  0  0  0  0  0  0  0  0
    8.3178   -0.4943   25.2774 N   0  0  0  0  0  0  0  0  0  0  0  0
    8.8536   -0.3751   26.5447 C   0  0  0  0  0  0  0  0  0  0  0  0
    8.8478   -1.4522   27.3758 C   0  0  0  0  0  0  0  0  0  0  0  0
    8.2641   -2.6875   26.9523 C   0  0  0  0  0  0  0  0  0  0  0  0
    7.6945   -2.7989   25.7025 C   0  0  0  0  0  0  0  0  0  0  0  0
    7.0063   -4.0328   25.2037 C   0  0  0  0  0  0  0  0  0  0  0  0
    5.7619   -3.7817   24.7609 F   0  0  0  0  0  0  0  0  0  0  0  0
    6.8863   -4.9602   26.1759 F   0  0  0  0  0  0  0  0  0  0  0  0
    7.6744   -4.6190   24.1914 F   0  0  0  0  0  0  0  0  0  0  0  0
    7.7606   -1.6796   24.8055 C   0  0  0  0  0  0  0  0  0  0  0  0
    7.3852   -1.5733   23.5511 N   0  0  0  0  0  0  0  0  0  0  0  0
    8.2781   -3.5449   27.6203 H   0  0  0  0  0  0  0  0  0  0  0  0
    9.2734   -1.3291   28.3666 H   0  0  0  0  0  0  0  0  0  0  0  0
    9.2773    0.5896   26.8028 H   0  0  0  0  0  0  0  0  0  0  0  0
    8.5992    1.4244   24.3768 H   0  0  0  0  0  0  0  0  0  0  0  0
    6.4457    0.2633   19.5906 C   0  0  0  0  0  0  0  0  0  0  0  0
    5.2592    0.9871   19.7493 C   0  0  0  0  0  0  0  0  0  0  0  0
    4.6698    1.5798   18.6300 C   0  0  0  0  0  0  0  0  0  0  0  0
    5.3084    1.4676   17.3903 C   0  0  0  0  0  0  0  0  0  0  0  0
    6.4560    0.7915   17.2144 N   0  0  0  0  0  0  0  0  0  0  0  0
    7.0039    0.2069   18.2907 C   0  0  0  0  0  0  0  0  0  0  0  0
    7.9561   -0.2949   18.1222 H   0  0  0  0  0  0  0  0  0  0  0  0
    4.8844    1.9343   16.5037 H   0  0  0  0  0  0  0  0  0  0  0  0
    3.7486    2.1446   18.7219 H   0  0  0  0  0  0  0  0  0  0  0  0
    4.8463    1.0909   20.7522 H   0  0  0  0  0  0  0  0  0  0  0  0
    6.5703   -2.2173   19.7624 H   0  0  0  0  0  0  0  0  0  0  0  0
    7.9986   -2.3054   20.8110 H   0  0  0  0  0  0  0  0  0  0  0  0
    6.3926   -2.3134   21.5290 H   0  0  0  0  0  0  0  0  0  0  0  0
  1  2  1  0
  2  3  1  0
  3  4  2  0
  3  5  1  0
  5  6  2  0
  6  7  1  0
  7  8  1  0
  8  9  2  0
  9 10  1  0
 10 11  2  0
 11 12  1  0
 12 13  1  0
 12 14  1  0
 12 15  1  0
 11 16  1  0
 16 17  2  0
 10 18  1  0
  9 19  1  0
  8 20  1  0
  6 21  1  0
  2 22  1  0
 22 23  2  0
 23 24  1  0
 24 25  2  0
 25 26  1  0
 26 27  2  0
 27 28  1  0
 25 29  1  0
 24 30  1  0
 23 31  1  0
  1 32  1  0
  1 33  1  0
  1 34  1  0
 17  5  1  0
 27 22  1  0
 16  7  1  0
M  END
>  <cnnaffinity>  (1) 
-5.10383

>  <filename>  (1) 
CN(C(=O)c1cn2cccc(C(F)(F)F)c2n1)c1cccnc1

$$$$
