
     RDKit          3D

 32 33  0  0  0  0  0  0  0  0999 V2000
    4.9061    1.7757   17.0015 H   0  0  0  0  0  0  0  0  0  0  0  0
    5.3992    1.2943   17.8414 C   0  0  0  0  0  0  0  0  0  0  0  0
    6.5660    0.6827   17.5773 N   0  0  0  0  0  0  0  0  0  0  0  0
    7.1837    0.0656   18.5940 C   0  0  0  0  0  0  0  0  0  0  0  0
    8.1267   -0.4375   18.3790 H   0  0  0  0  0  0  0  0  0  0  0  0
    6.6747    0.0137   19.9078 C   0  0  0  0  0  0  0  0  0  0  0  0
    7.3669   -0.6702   20.9589 N   0  0  0  0  0  0  0  0  0  0  0  0
    8.6480   -0.4448   21.4640 C   0  0  0  0  0  0  0  0  0  0  0  0
    9.5368    0.6459   20.9726 C   0  0  0  0  0  0  0  0  0  0  0  0
   10.5173    0.4795   21.4201 H   0  0  0  0  0  0  0  0  0  0  0  0
    9.6522    0.5804   19.8880 H   0  0  0  0  0  0  0  0  0  0  0  0
    8.9982    2.0319   21.3354 C   0  0  0  0  0  0  0  0  0  0  0  0
    8.1241    2.2329   20.7010 H   0  0  0  0  0  0  0  0  0  0  0  0
    9.7536    2.7945   21.0660 H   0  0  0  0  0  0  0  0  0  0  0  0
    8.6345    2.1316   22.7507 N   0  0  0  0  0  0  0  0  0  0  0  0
    7.6582    3.1906   22.9701 C   0  0  0  0  0  0  0  0  0  0  0  0
    7.3866    3.2548   24.0304 H   0  0  0  0  0  0  0  0  0  0  0  0
    8.0415    4.1791   22.6537 H   0  0  0  0  0  0  0  0  0  0  0  0
    6.7353    2.9817   22.4166 H   0  0  0  0  0  0  0  0  0  0  0  0
    9.8053    2.3391   23.5995 C   0  0  0  0  0  0  0  0  0  0  0  0
    9.5146    2.3727   24.6562 H   0  0  0  0  0  0  0  0  0  0  0  0
   10.5242    1.5192   23.4933 H   0  0  0  0  0  0  0  0  0  0  0  0
   10.3236    3.2884   23.3582 H   0  0  0  0  0  0  0  0  0  0  0  0
    8.9322   -1.2280   22.4516 N   0  0  0  0  0  0  0  0  0  0  0  0
    7.7847   -1.9763   22.6164 N   0  0  0  0  0  0  0  0  0  0  0  0
    7.6710   -2.6681   23.3336 H   0  0  0  0  0  0  0  0  0  0  0  0
    6.7819   -1.6809   21.7441 C   0  0  0  0  0  0  0  0  0  0  0  0
    5.6766   -2.1829   21.6367 O   0  0  0  0  0  0  0  0  0  0  0  0
    5.4515    0.6485   20.1632 C   0  0  0  0  0  0  0  0  0  0  0  0
    5.0176    0.6150   21.1641 H   0  0  0  0  0  0  0  0  0  0  0  0
    4.8092    1.3120   19.1112 C   0  0  0  0  0  0  0  0  0  0  0  0
    3.8728    1.8439   19.2660 H   0  0  0  0  0  0  0  0  0  0  0  0
  1  2  1  0
  2  3  2  0
  3  4  1  0
  4  5  1  0
  4  6  2  0
  6  7  1  0
  7  8  1  0
  8  9  1  0
  9 10  1  0
  9 11  1  0
  9 12  1  0
 12 13  1  0
 12 14  1  0
 12 15  1  0
 15 16  1  0
 16 17  1  0
 16 18  1  0
 16 19  1  0
 15 20  1  0
 20 21  1  0
 20 22  1  0
 20 23  1  0
  8 24  2  0
 24 25  1  0
 25 26  1  0
 25 27  1  0
 27 28  2  0
  6 29  1  0
 29 30  1  0
 29 31  2  0
 31 32  1  0
 31  2  1  0
 27  7  1  0
M  END
>  <cnnaffinity>  (1) 
-4.42582

>  <filename>  (1) 
CN(C)CCc1n[nH]c(=O)n1-c1cccnc1

$$$$
