
     RDKit          3D

 36 36  0  0  0  0  0  0  0  0999 V2000
    9.1804   -0.9251   21.5348 H   0  0  0  0  0  0  0  0  0  0  0  0
    8.6948   -0.2776   21.0068 O   0  0  0  0  0  0  0  0  0  0  0  0
    7.3123   -0.5518   21.1667 C   0  0  1  0  0  0  0  0  0  0  0  0
    6.9560   -0.1920   22.1478 H   0  0  0  0  0  0  0  0  0  0  0  0
    6.5929    0.1781   20.0475 C   0  0  0  0  0  0  0  0  0  0  0  0
    7.1671    0.1570   18.7647 C   0  0  0  0  0  0  0  0  0  0  0  0
    8.1271   -0.3372   18.6328 H   0  0  0  0  0  0  0  0  0  0  0  0
    6.6148    0.6899   17.6692 N   0  0  0  0  0  0  0  0  0  0  0  0
    5.4259    1.2953   17.8244 C   0  0  0  0  0  0  0  0  0  0  0  0
    4.9941    1.7478   16.9300 H   0  0  0  0  0  0  0  0  0  0  0  0
    4.7543    1.3587   19.0480 C   0  0  0  0  0  0  0  0  0  0  0  0
    3.7987    1.8616   19.1006 H   0  0  0  0  0  0  0  0  0  0  0  0
    5.3410    0.7879   20.1847 C   0  0  0  0  0  0  0  0  0  0  0  0
    4.8362    0.8247   21.1523 H   0  0  0  0  0  0  0  0  0  0  0  0
    6.9850   -2.0499   21.0423 C   0  0  0  0  0  0  0  0  0  0  0  0
    5.9094   -2.1592   21.2220 H   0  0  0  0  0  0  0  0  0  0  0  0
    7.1845   -2.3397   20.0043 H   0  0  0  0  0  0  0  0  0  0  0  0
    7.7316   -2.8475   21.9516 O   0  0  0  0  0  0  0  0  0  0  0  0
    7.4440   -4.2438   21.8905 C   0  0  0  0  0  0  0  0  0  0  0  0
    7.3342   -4.5805   20.8476 H   0  0  0  0  0  0  0  0  0  0  0  0
    8.3284   -4.7611   22.2935 H   0  0  0  0  0  0  0  0  0  0  0  0
    6.1996   -4.6276   22.6965 C   0  0  0  0  0  0  0  0  0  0  0  0
    5.3111   -4.1278   22.2862 H   0  0  0  0  0  0  0  0  0  0  0  0
    6.0212   -5.7078   22.5943 H   0  0  0  0  0  0  0  0  0  0  0  0
    6.3343   -4.2458   24.1794 C   0  0  0  0  0  0  0  0  0  0  0  0
    6.5607   -3.1702   24.2582 H   0  0  0  0  0  0  0  0  0  0  0  0
    7.2009   -4.7745   24.6075 H   0  0  0  0  0  0  0  0  0  0  0  0
    5.1794   -4.5311   25.0134 N   0  0  0  0  0  0  0  0  0  0  0  0
    4.0233   -3.6865   24.7669 C   0  0  0  0  0  0  0  0  0  0  0  0
    3.4667   -3.9211   23.8367 H   0  0  0  0  0  0  0  0  0  0  0  0
    3.3198   -3.7692   25.6066 H   0  0  0  0  0  0  0  0  0  0  0  0
    4.3502   -2.6388   24.7091 H   0  0  0  0  0  0  0  0  0  0  0  0
    4.8726   -5.9376   25.2214 C   0  0  0  0  0  0  0  0  0  0  0  0
    5.7889   -6.4855   25.4835 H   0  0  0  0  0  0  0  0  0  0  0  0
    4.4085   -6.4508   24.3541 H   0  0  0  0  0  0  0  0  0  0  0  0
    4.1805   -6.0392   26.0686 H   0  0  0  0  0  0  0  0  0  0  0  0
  1  2  1  0
  2  3  1  0
  3  4  1  1
  3  5  1  0
  5  6  2  0
  6  7  1  0
  6  8  1  0
  8  9  2  0
  9 10  1  0
  9 11  1  0
 11 12  1  0
 11 13  2  0
 13 14  1  0
  3 15  1  0
 15 16  1  0
 15 17  1  0
 15 18  1  0
 18 19  1  0
 19 20  1  0
 19 21  1  0
 19 22  1  0
 22 23  1  0
 22 24  1  0
 22 25  1  0
 25 26  1  0
 25 27  1  0
 25 28  1  0
 28 29  1  0
 29 30  1  0
 29 31  1  0
 29 32  1  0
 28 33  1  0
 33 34  1  0
 33 35  1  0
 33 36  1  0
 13  5  1  0
M  END
>  <cnnaffinity>  (1) 
-3.80276

>  <filename>  (1) 
CN(C)CCCOC[C@@H](O)c1cccnc1

$$$$
