
     RDKit          3D

 43 45  0  0  0  0  0  0  0  0999 V2000
    4.9901    1.7588   16.9968 H   0  0  0  0  0  0  0  0  0  0  0  0
    5.4565    1.2626   17.8463 C   0  0  0  0  0  0  0  0  0  0  0  0
    6.6196    0.6419   17.6030 N   0  0  0  0  0  0  0  0  0  0  0  0
    7.2176    0.0375   18.6329 C   0  0  0  0  0  0  0  0  0  0  0  0
    8.1728   -0.4389   18.4312 H   0  0  0  0  0  0  0  0  0  0  0  0
    6.6823   -0.0145   19.9224 C   0  0  0  0  0  0  0  0  0  0  0  0
    7.4379   -0.7444   20.9547 C   0  0  0  0  0  0  0  0  0  0  0  0
    8.7416   -0.6859   20.8884 N   0  0  0  0  0  0  0  0  0  0  0  0
    9.4531   -1.2896   21.8842 C   0  0  0  0  0  0  0  0  0  0  0  0
   10.6505   -1.4565   21.8797 O   0  0  0  0  0  0  0  0  0  0  0  0
    8.7649   -1.7488   23.0056 N   0  0  0  0  0  0  0  0  0  0  0  0
    9.3152   -2.4119   23.5184 H   0  0  0  0  0  0  0  0  0  0  0  0
    7.4497   -2.0431   22.9224 C   0  0  0  0  0  0  0  0  0  0  0  0
    6.9995   -2.8613   23.9205 N   0  0  0  0  0  0  0  0  0  0  0  0
    7.1840   -2.3854   25.3046 C   0  0  0  0  0  0  0  0  0  0  0  0
    6.3746   -1.6806   25.5851 H   0  0  0  0  0  0  0  0  0  0  0  0
    8.1195   -1.8221   25.3848 H   0  0  0  0  0  0  0  0  0  0  0  0
    7.2028   -3.5907   26.2320 C   0  0  0  0  0  0  0  0  0  0  0  0
    8.0529   -4.2284   25.9482 H   0  0  0  0  0  0  0  0  0  0  0  0
    7.3546   -3.2861   27.2731 H   0  0  0  0  0  0  0  0  0  0  0  0
    5.8957   -4.3996   26.0970 C   0  0  0  0  0  0  0  0  0  0  0  0
    5.0507   -3.7333   26.3647 H   0  0  0  0  0  0  0  0  0  0  0  0
    5.8097   -5.5688   26.9691 N   0  0  0  0  0  0  0  0  0  0  0  0
    6.9646   -6.4566   26.9883 C   0  0  0  0  0  0  0  0  0  0  0  0
    6.6873   -7.3206   27.6033 H   0  0  0  0  0  0  0  0  0  0  0  0
    7.2184   -6.8154   25.9840 H   0  0  0  0  0  0  0  0  0  0  0  0
    7.8823   -6.0094   27.4183 H   0  0  0  0  0  0  0  0  0  0  0  0
    5.3556   -5.3117   28.3276 C   0  0  0  0  0  0  0  0  0  0  0  0
    5.1994   -6.2667   28.8423 H   0  0  0  0  0  0  0  0  0  0  0  0
    6.0718   -4.7331   28.9388 H   0  0  0  0  0  0  0  0  0  0  0  0
    4.3889   -4.7981   28.3313 H   0  0  0  0  0  0  0  0  0  0  0  0
    5.7016   -4.7944   24.6227 C   0  0  0  0  0  0  0  0  0  0  0  0
    4.7664   -5.3473   24.4966 H   0  0  0  0  0  0  0  0  0  0  0  0
    6.5197   -5.4543   24.3035 H   0  0  0  0  0  0  0  0  0  0  0  0
    5.7174   -3.5506   23.7345 C   0  0  0  0  0  0  0  0  0  0  0  0
    5.5932   -3.8342   22.6832 H   0  0  0  0  0  0  0  0  0  0  0  0
    4.8602   -2.8964   23.9969 H   0  0  0  0  0  0  0  0  0  0  0  0
    6.7253   -1.4938   21.9117 C   0  0  0  0  0  0  0  0  0  0  0  0
    5.6629   -1.6479   21.8451 H   0  0  0  0  0  0  0  0  0  0  0  0
    5.4667    0.6390   20.1689 C   0  0  0  0  0  0  0  0  0  0  0  0
    5.0325    0.6599   21.1724 H   0  0  0  0  0  0  0  0  0  0  0  0
    4.8462    1.2930   19.1061 C   0  0  0  0  0  0  0  0  0  0  0  0
    3.9090    1.8230   19.2363 H   0  0  0  0  0  0  0  0  0  0  0  0
  1  2  1  0
  2  3  2  0
  3  4  1  0
  4  5  1  0
  4  6  2  0
  6  7  1  0
  7  8  2  0
  8  9  1  0
  9 10  2  0
  9 11  1  0
 11 12  1  0
 11 13  1  0
 13 14  1  0
 14 15  1  0
 15 16  1  0
 15 17  1  0
 15 18  1  0
 18 19  1  0
 18 20  1  0
 18 21  1  0
 21 22  1  0
 21 23  1  0
 23 24  1  0
 24 25  1  0
 24 26  1  0
 24 27  1  0
 23 28  1  0
 28 29  1  0
 28 30  1  0
 28 31  1  0
 21 32  1  0
 32 33  1  0
 32 34  1  0
 32 35  1  0
 35 36  1  0
 35 37  1  0
 13 38  2  0
 38 39  1  0
  6 40  1  0
 40 41  1  0
 40 42  2  0
 42 43  1  0
 42  2  1  0
 38  7  1  0
 35 14  1  0
M  END
>  <cnnaffinity>  (1) 
-5.2425

>  <filename>  (1) 
CN(C)C1CCN(c2cc(-c3cccnc3)nc(=O)[nH]2)CC1

$$$$
