
     RDKit          3D

 48 50  0  0  0  0  0  0  0  0999 V2000
    4.9806    1.7587   16.9415 H   0  0  0  0  0  0  0  0  0  0  0  0
    5.4362    1.2883   17.8114 C   0  0  0  0  0  0  0  0  0  0  0  0
    6.5945    0.6507   17.6041 N   0  0  0  0  0  0  0  0  0  0  0  0
    7.1715    0.0674   18.6657 C   0  0  0  0  0  0  0  0  0  0  0  0
    8.0811   -0.4794   18.4264 H   0  0  0  0  0  0  0  0  0  0  0  0
    6.6806    0.0942   19.9899 C   0  0  0  0  0  0  0  0  0  0  0  0
    7.4884   -0.5817   21.1369 C   0  0  0  0  0  0  0  0  0  0  0  0
    8.7342    0.2629   21.5549 C   0  0  0  0  0  0  0  0  0  0  0  0
    9.3252   -0.3368   22.2534 H   0  0  0  0  0  0  0  0  0  0  0  0
    9.3727    0.3661   20.6573 H   0  0  0  0  0  0  0  0  0  0  0  0
    8.4346    1.5704   22.1384 N   0  0  0  0  0  0  0  0  0  0  0  0
    8.6000    2.6333   21.1655 C   0  0  0  0  0  0  0  0  0  0  0  0
    8.0882    2.3473   20.2451 H   0  0  0  0  0  0  0  0  0  0  0  0
    8.1493    3.5646   21.5218 H   0  0  0  0  0  0  0  0  0  0  0  0
    9.6510    2.8336   20.9044 H   0  0  0  0  0  0  0  0  0  0  0  0
    9.0699    1.8447   23.4366 C   0  0  0  0  0  0  0  0  0  0  0  0
    8.6735    2.8002   23.8022 H   0  0  0  0  0  0  0  0  0  0  0  0
    8.7111    1.0837   24.1387 H   0  0  0  0  0  0  0  0  0  0  0  0
   10.5935    1.8853   23.4744 C   0  0  0  0  0  0  0  0  0  0  0  0
   11.2847    3.0421   23.0727 C   0  0  0  0  0  0  0  0  0  0  0  0
   10.7258    3.9554   22.8696 H   0  0  0  0  0  0  0  0  0  0  0  0
   12.6738    3.0239   22.9101 C   0  0  0  0  0  0  0  0  0  0  0  0
   13.1829    3.9082   22.5403 H   0  0  0  0  0  0  0  0  0  0  0  0
   13.3954    1.8638   23.1982 C   0  0  0  0  0  0  0  0  0  0  0  0
   14.4679    1.8341   23.0338 H   0  0  0  0  0  0  0  0  0  0  0  0
   12.7336    0.7402   23.6969 C   0  0  0  0  0  0  0  0  0  0  0  0
   13.2964   -0.1522   23.9451 H   0  0  0  0  0  0  0  0  0  0  0  0
   11.3435    0.7566   23.8502 C   0  0  0  0  0  0  0  0  0  0  0  0
   10.8392   -0.1168   24.2647 H   0  0  0  0  0  0  0  0  0  0  0  0
    6.5731   -0.8594   22.3572 C   0  0  0  0  0  0  0  0  0  0  0  0
    6.2036    0.0818   22.7786 H   0  0  0  0  0  0  0  0  0  0  0  0
    5.7130   -1.4115   21.9536 H   0  0  0  0  0  0  0  0  0  0  0  0
    7.2058   -1.7186   23.4636 C   0  0  0  0  0  0  0  0  0  0  0  0
    8.0922   -1.2197   23.8848 H   0  0  0  0  0  0  0  0  0  0  0  0
    6.5069   -1.8257   24.3020 H   0  0  0  0  0  0  0  0  0  0  0  0
    7.5848   -3.0945   22.9106 C   0  0  0  0  0  0  0  0  0  0  0  0
    8.0487   -3.7230   23.6837 H   0  0  0  0  0  0  0  0  0  0  0  0
    6.6594   -3.6074   22.6135 H   0  0  0  0  0  0  0  0  0  0  0  0
    8.5046   -2.9663   21.6925 C   0  0  0  0  0  0  0  0  0  0  0  0
    8.6124   -3.9495   21.2229 H   0  0  0  0  0  0  0  0  0  0  0  0
    9.5119   -2.6750   22.0133 H   0  0  0  0  0  0  0  0  0  0  0  0
    7.9983   -1.9666   20.6368 C   0  0  0  0  0  0  0  0  0  0  0  0
    7.1570   -2.4252   20.1019 H   0  0  0  0  0  0  0  0  0  0  0  0
    8.8024   -1.7946   19.9106 H   0  0  0  0  0  0  0  0  0  0  0  0
    5.4462    0.7553   20.1606 C   0  0  0  0  0  0  0  0  0  0  0  0
    4.9661    0.7838   21.1386 H   0  0  0  0  0  0  0  0  0  0  0  0
    4.8162    1.3550   19.0614 C   0  0  0  0  0  0  0  0  0  0  0  0
    3.8672    1.8724   19.1684 H   0  0  0  0  0  0  0  0  0  0  0  0
  1  2  1  0
  2  3  2  0
  3  4  1  0
  4  5  1  0
  4  6  2  0
  6  7  1  0
  7  8  1  0
  8  9  1  0
  8 10  1  0
  8 11  1  0
 11 12  1  0
 12 13  1  0
 12 14  1  0
 12 15  1  0
 11 16  1  0
 16 17  1  0
 16 18  1  0
 16 19  1  0
 19 20  2  0
 20 21  1  0
 20 22  1  0
 22 23  1  0
 22 24  2  0
 24 25  1  0
 24 26  1  0
 26 27  1  0
 26 28  2  0
 28 29  1  0
  7 30  1  0
 30 31  1  0
 30 32  1  0
 30 33  1  0
 33 34  1  0
 33 35  1  0
 33 36  1  0
 36 37  1  0
 36 38  1  0
 36 39  1  0
 39 40  1  0
 39 41  1  0
 39 42  1  0
 42 43  1  0
 42 44  1  0
  6 45  1  0
 45 46  1  0
 45 47  2  0
 47 48  1  0
 47  2  1  0
 42  7  1  0
 28 19  1  0
M  END
>  <cnnaffinity>  (1) 
-5.03624

>  <filename>  (1) 
CN(Cc1ccccc1)CC1(c2cccnc2)CCCCC1

$$$$
