
     RDKit          3D

 27 27  0  0  0  0  0  0  0  0999 V2000
    4.9648    1.8126   17.0026 H   0  0  0  0  0  0  0  0  0  0  0  0
    5.4381    1.3074   17.8437 C   0  0  0  0  0  0  0  0  0  0  0  0
    6.6094    0.7020   17.5917 N   0  0  0  0  0  0  0  0  0  0  0  0
    7.2198    0.0650   18.6023 C   0  0  0  0  0  0  0  0  0  0  0  0
    8.1655   -0.4233   18.3677 H   0  0  0  0  0  0  0  0  0  0  0  0
    6.6988    0.0151   19.9129 C   0  0  0  0  0  0  0  0  0  0  0  0
    7.3664   -0.6647   20.9897 N   0  0  0  0  0  0  0  0  0  0  0  0
    7.1663   -2.0512   21.1124 C   0  0  0  0  0  0  0  0  0  0  0  0
    6.2972   -2.6880   20.5591 O   0  0  0  0  0  0  0  0  0  0  0  0
    8.1075   -2.5919   22.0049 N   0  0  0  0  0  0  0  0  0  0  0  0
    8.9424   -2.0275   21.9811 H   0  0  0  0  0  0  0  0  0  0  0  0
    8.4747   -3.9222   21.7435 O   0  0  0  0  0  0  0  0  0  0  0  0
    7.6945   -4.7779   22.5478 C   0  0  0  0  0  0  0  0  0  0  0  0
    7.8699   -5.7843   22.1620 H   0  0  0  0  0  0  0  0  0  0  0  0
    6.6356   -4.5218   22.4526 H   0  0  0  0  0  0  0  0  0  0  0  0
    8.0983   -4.7599   24.0140 C   0  0  0  0  0  0  0  0  0  0  0  0
    8.1813   -3.5439   24.5566 F   0  0  0  0  0  0  0  0  0  0  0  0
    7.1677   -5.4521   24.6999 F   0  0  0  0  0  0  0  0  0  0  0  0
    9.2873   -5.3620   24.1901 F   0  0  0  0  0  0  0  0  0  0  0  0
    7.7582    0.1366   22.1616 C   0  0  0  0  0  0  0  0  0  0  0  0
    8.8498    0.2386   22.2396 H   0  0  0  0  0  0  0  0  0  0  0  0
    7.3946   -0.3200   23.0908 H   0  0  0  0  0  0  0  0  0  0  0  0
    7.3405    1.1443   22.0878 H   0  0  0  0  0  0  0  0  0  0  0  0
    5.4853    0.6628   20.1560 C   0  0  0  0  0  0  0  0  0  0  0  0
    5.0776    0.6358   21.1654 H   0  0  0  0  0  0  0  0  0  0  0  0
    4.8333    1.3150   19.1035 C   0  0  0  0  0  0  0  0  0  0  0  0
    3.8926    1.8293   19.2573 H   0  0  0  0  0  0  0  0  0  0  0  0
  1  2  1  0
  2  3  2  0
  3  4  1  0
  4  5  1  0
  4  6  2  0
  6  7  1  0
  7  8  1  0
  8  9  2  0
  8 10  1  0
 10 11  1  0
 10 12  1  0
 12 13  1  0
 13 14  1  0
 13 15  1  0
 13 16  1  0
 16 17  1  0
 16 18  1  0
 16 19  1  0
  7 20  1  0
 20 21  1  0
 20 22  1  0
 20 23  1  0
  6 24  1  0
 24 25  1  0
 24 26  2  0
 26 27  1  0
 26  2  1  0
M  END
>  <cnnaffinity>  (1) 
-4.78681

>  <filename>  (1) 
CN(C(=O)NOCC(F)(F)F)c1cccnc1

$$$$
