
     RDKit          3D

 44 47  0  0  0  0  0  0  0  0999 V2000
    5.0789    1.9144   16.7812 H   0  0  0  0  0  0  0  0  0  0  0  0
    5.4738    1.3642   17.6362 C   0  0  0  0  0  0  0  0  0  0  0  0
    6.6101    0.6806   17.4295 N   0  0  0  0  0  0  0  0  0  0  0  0
    7.1244    0.0183   18.4691 C   0  0  0  0  0  0  0  0  0  0  0  0
    8.0510   -0.5239   18.2984 H   0  0  0  0  0  0  0  0  0  0  0  0
    6.5383   -0.0171   19.7482 C   0  0  0  0  0  0  0  0  0  0  0  0
    7.1883   -0.8129   20.8043 C   0  0  0  0  0  0  0  0  0  0  0  0
    8.1830   -1.6213   20.5812 N   0  0  0  0  0  0  0  0  0  0  0  0
    8.6351   -2.2375   21.7108 N   0  0  0  0  0  0  0  0  0  0  0  0
    7.9926   -1.8694   22.7822 C   0  0  0  0  0  0  0  0  0  0  0  0
    8.4056   -2.3710   24.1238 C   0  0  0  0  0  0  0  0  0  0  0  0
    8.3761   -3.8988   24.2314 C   0  0  0  0  0  0  0  0  0  0  0  0
    9.1627   -4.3066   23.5797 H   0  0  0  0  0  0  0  0  0  0  0  0
    8.6458   -4.1898   25.2603 H   0  0  0  0  0  0  0  0  0  0  0  0
    7.1270   -4.5657   23.8869 N   0  0  0  0  0  0  0  0  0  0  0  0
    6.8643   -4.7495   22.4633 C   0  0  0  0  0  0  0  0  0  0  0  0
    7.8019   -5.0100   21.9566 H   0  0  0  0  0  0  0  0  0  0  0  0
    6.1692   -5.5868   22.3208 H   0  0  0  0  0  0  0  0  0  0  0  0
    6.4500   -3.8612   21.9553 H   0  0  0  0  0  0  0  0  0  0  0  0
    5.9692   -4.1312   24.6631 C   0  0  0  0  0  0  0  0  0  0  0  0
    5.7887   -3.0451   24.5664 H   0  0  0  0  0  0  0  0  0  0  0  0
    5.0791   -4.6203   24.2379 H   0  0  0  0  0  0  0  0  0  0  0  0
    6.0027   -4.4792   26.1497 C   0  0  0  0  0  0  0  0  0  0  0  0
    5.3891   -3.6170   27.0758 C   0  0  0  0  0  0  0  0  0  0  0  0
    4.9595   -2.6742   26.7362 H   0  0  0  0  0  0  0  0  0  0  0  0
    5.3057   -3.9575   28.4303 C   0  0  0  0  0  0  0  0  0  0  0  0
    4.8463   -3.2705   29.1369 H   0  0  0  0  0  0  0  0  0  0  0  0
    5.8063   -5.1886   28.8703 C   0  0  0  0  0  0  0  0  0  0  0  0
    5.6874   -5.4828   29.9105 H   0  0  0  0  0  0  0  0  0  0  0  0
    6.4425   -6.0427   27.9636 C   0  0  0  0  0  0  0  0  0  0  0  0
    6.8638   -6.9865   28.3076 H   0  0  0  0  0  0  0  0  0  0  0  0
    6.5647   -5.6771   26.6205 C   0  0  0  0  0  0  0  0  0  0  0  0
    7.1018   -6.3257   25.9277 H   0  0  0  0  0  0  0  0  0  0  0  0
    9.6103   -1.6751   24.7123 C   0  0  0  0  0  0  0  0  0  0  0  0
    9.9804   -0.7801   24.2156 H   0  0  0  0  0  0  0  0  0  0  0  0
   10.3892   -2.3215   25.0991 H   0  0  0  0  0  0  0  0  0  0  0  0
    8.2826   -1.5671   25.3976 C   0  0  0  0  0  0  0  0  0  0  0  0
    7.7669   -0.6101   25.3649 H   0  0  0  0  0  0  0  0  0  0  0  0
    8.1492   -2.1326   26.3201 H   0  0  0  0  0  0  0  0  0  0  0  0
    6.7226   -0.7392   22.4753 S   0  0  0  0  0  0  0  0  0  0  0  0
    5.3537    0.7078   19.9533 C   0  0  0  0  0  0  0  0  0  0  0  0
    4.8681    0.7209   20.9315 H   0  0  0  0  0  0  0  0  0  0  0  0
    4.8161    1.4039   18.8698 C   0  0  0  0  0  0  0  0  0  0  0  0
    3.9094    1.9893   18.9741 H   0  0  0  0  0  0  0  0  0  0  0  0
  1  2  1  0
  2  3  2  0
  3  4  1  0
  4  5  1  0
  4  6  2  0
  6  7  1  0
  7  8  2  0
  8  9  1  0
  9 10  2  0
 10 11  1  0
 11 12  1  0
 12 13  1  0
 12 14  1  0
 12 15  1  0
 15 16  1  0
 16 17  1  0
 16 18  1  0
 16 19  1  0
 15 20  1  0
 20 21  1  0
 20 22  1  0
 20 23  1  0
 23 24  2  0
 24 25  1  0
 24 26  1  0
 26 27  1  0
 26 28  2  0
 28 29  1  0
 28 30  1  0
 30 31  1  0
 30 32  2  0
 32 33  1  0
 11 34  1  0
 34 35  1  0
 34 36  1  0
 34 37  1  0
 37 38  1  0
 37 39  1  0
 10 40  1  0
  6 41  1  0
 41 42  1  0
 41 43  2  0
 43 44  1  0
 43  2  1  0
 40  7  1  0
 37 11  1  0
 32 23  1  0
M  END
>  <cnnaffinity>  (1) 
-5.59324

>  <filename>  (1) 
CN(Cc1ccccc1)CC1(c2nnc(-c3cccnc3)s2)CC1

$$$$
