
     RDKit          3D

 31 32  0  0  0  0  0  0  0  0999 V2000
   10.4201   -1.0696   25.7319 H   0  0  0  0  0  0  0  0  0  0  0  0
   10.0584   -0.3905   24.9790 C   0  0  0  0  0  0  0  0  0  0  0  0
    8.7847   -0.5646   24.6003 N   0  0  0  0  0  0  0  0  0  0  0  0
    8.2857    0.2912   23.6935 C   0  0  0  0  0  0  0  0  0  0  0  0
    6.8562    0.0846   23.2742 C   0  0  0  0  0  0  0  0  0  0  0  0
    6.4511    1.0111   22.8577 H   0  0  0  0  0  0  0  0  0  0  0  0
    6.2522   -0.1795   24.1474 H   0  0  0  0  0  0  0  0  0  0  0  0
    6.7409   -1.0275   22.2228 C   0  0  0  0  0  0  0  0  0  0  0  0
    5.7048   -1.2924   22.0032 H   0  0  0  0  0  0  0  0  0  0  0  0
    7.1865   -1.9475   22.6215 H   0  0  0  0  0  0  0  0  0  0  0  0
    7.3740   -0.6986   20.9587 N   0  0  0  0  0  0  0  0  0  0  0  0
    6.6929   -0.0147   19.9494 C   0  0  0  0  0  0  0  0  0  0  0  0
    7.1784    0.0637   18.6088 C   0  0  0  0  0  0  0  0  0  0  0  0
    8.1196   -0.4209   18.3610 H   0  0  0  0  0  0  0  0  0  0  0  0
    6.5655    0.6754   17.5866 N   0  0  0  0  0  0  0  0  0  0  0  0
    5.4032    1.2910   17.8405 C   0  0  0  0  0  0  0  0  0  0  0  0
    4.9129    1.7806   16.9977 H   0  0  0  0  0  0  0  0  0  0  0  0
    4.8219    1.3012   19.1129 C   0  0  0  0  0  0  0  0  0  0  0  0
    3.8862    1.8324   19.2653 H   0  0  0  0  0  0  0  0  0  0  0  0
    5.4561    0.6381   20.1705 C   0  0  0  0  0  0  0  0  0  0  0  0
    5.0075    0.6270   21.1630 H   0  0  0  0  0  0  0  0  0  0  0  0
    8.7568   -1.0967   20.7672 C   0  0  0  0  0  0  0  0  0  0  0  0
    8.8521   -1.8800   20.0096 H   0  0  0  0  0  0  0  0  0  0  0  0
    9.1737   -1.4775   21.7015 H   0  0  0  0  0  0  0  0  0  0  0  0
    9.3731   -0.2520   20.4366 H   0  0  0  0  0  0  0  0  0  0  0  0
    9.0714    1.3079   23.1235 C   0  0  0  0  0  0  0  0  0  0  0  0
    8.6273    1.9582   22.3802 H   0  0  0  0  0  0  0  0  0  0  0  0
   10.4027    1.4662   23.5075 C   0  0  0  0  0  0  0  0  0  0  0  0
   11.0232    2.2478   23.0735 H   0  0  0  0  0  0  0  0  0  0  0  0
   10.9119    0.5908   24.4663 C   0  0  0  0  0  0  0  0  0  0  0  0
   11.9392    0.6583   24.8086 H   0  0  0  0  0  0  0  0  0  0  0  0
  1  2  1  0
  2  3  2  0
  3  4  1  0
  4  5  1  0
  5  6  1  0
  5  7  1  0
  5  8  1  0
  8  9  1  0
  8 10  1  0
  8 11  1  0
 11 12  1  0
 12 13  2  0
 13 14  1  0
 13 15  1  0
 15 16  2  0
 16 17  1  0
 16 18  1  0
 18 19  1  0
 18 20  2  0
 20 21  1  0
 11 22  1  0
 22 23  1  0
 22 24  1  0
 22 25  1  0
  4 26  2  0
 26 27  1  0
 26 28  1  0
 28 29  1  0
 28 30  2  0
 30 31  1  0
 30  2  1  0
 20 12  1  0
M  END
>  <cnnaffinity>  (1) 
-4.54722

>  <filename>  (1) 
CN(CCc1ccccn1)c1cccnc1

$$$$
