
     RDKit          3D

 39 41  0  0  0  0  0  0  0  0999 V2000
    8.9660   -4.0966   24.2854 C   0  0  0  0  0  0  0  0  0  0  0  0
    7.6613   -3.4580   24.4275 N   0  0  0  0  0  0  0  0  0  0  0  0
    6.9241   -2.8986   23.3904 C   0  0  0  0  0  0  0  0  0  0  0  0
    5.7289   -2.7727   23.4298 O   0  0  0  0  0  0  0  0  0  0  0  0
    7.7699   -2.5251   22.3240 N   0  0  0  0  0  0  0  0  0  0  0  0
    7.1233   -2.0934   21.1506 O   0  0  0  0  0  0  0  0  0  0  0  0
    7.4086   -0.6935   21.0146 C   0  0  0  0  0  0  0  0  0  0  0  0
    6.6332   -0.0545   19.8964 C   0  0  0  0  0  0  0  0  0  0  0  0
    5.4236    0.6107   20.1297 C   0  0  0  0  0  0  0  0  0  0  0  0
    4.8067    1.2819   19.0727 C   0  0  0  0  0  0  0  0  0  0  0  0
    5.4267    1.2692   17.8193 C   0  0  0  0  0  0  0  0  0  0  0  0
    6.5773    0.6254   17.5707 N   0  0  0  0  0  0  0  0  0  0  0  0
    7.1533   -0.0153   18.5961 C   0  0  0  0  0  0  0  0  0  0  0  0
    8.1020   -0.5060   18.3822 H   0  0  0  0  0  0  0  0  0  0  0  0
    4.9780    1.7930   16.9770 H   0  0  0  0  0  0  0  0  0  0  0  0
    3.8815    1.8287   19.2129 H   0  0  0  0  0  0  0  0  0  0  0  0
    4.9871    0.6211   21.1313 H   0  0  0  0  0  0  0  0  0  0  0  0
    8.4887   -0.5876   20.8393 H   0  0  0  0  0  0  0  0  0  0  0  0
    7.1405   -0.1986   21.9585 H   0  0  0  0  0  0  0  0  0  0  0  0
    8.2842   -3.3573   22.0881 H   0  0  0  0  0  0  0  0  0  0  0  0
    6.9871   -3.3795   25.6570 C   0  0  0  0  0  0  0  0  0  0  0  0
    6.8681   -2.1691   26.1579 N   0  0  0  0  0  0  0  0  0  0  0  0
    6.2315   -2.0470   27.3512 C   0  0  0  0  0  0  0  0  0  0  0  0
    5.6814   -3.0977   28.0384 C   0  0  0  0  0  0  0  0  0  0  0  0
    5.8396   -4.4198   27.5382 C   0  0  0  0  0  0  0  0  0  0  0  0
    5.3976   -5.5715   28.2549 C   0  0  0  0  0  0  0  0  0  0  0  0
    5.5083   -6.8171   27.6872 C   0  0  0  0  0  0  0  0  0  0  0  0
    6.0278   -6.9486   26.3762 C   0  0  0  0  0  0  0  0  0  0  0  0
    6.4874   -5.8680   25.6699 C   0  0  0  0  0  0  0  0  0  0  0  0
    6.4609   -4.5756   26.2643 C   0  0  0  0  0  0  0  0  0  0  0  0
    6.8820   -5.9961   24.6663 H   0  0  0  0  0  0  0  0  0  0  0  0
    6.0739   -7.9125   25.9158 H   0  0  0  0  0  0  0  0  0  0  0  0
    5.1888   -7.7121   28.2163 H   0  0  0  0  0  0  0  0  0  0  0  0
    4.9944   -5.4481   29.2564 H   0  0  0  0  0  0  0  0  0  0  0  0
    5.1782   -2.9414   28.9847 H   0  0  0  0  0  0  0  0  0  0  0  0
    6.1516   -1.0375   27.7464 H   0  0  0  0  0  0  0  0  0  0  0  0
    9.2203   -4.6052   25.2215 H   0  0  0  0  0  0  0  0  0  0  0  0
    9.7293   -3.3430   24.0525 H   0  0  0  0  0  0  0  0  0  0  0  0
    8.9673   -4.8508   23.4810 H   0  0  0  0  0  0  0  0  0  0  0  0
  1  2  1  0
  2  3  1  0
  3  4  2  0
  3  5  1  0
  5  6  1  0
  6  7  1  0
  7  8  1  0
  8  9  2  0
  9 10  1  0
 10 11  2  0
 11 12  1  0
 12 13  2  0
 13 14  1  0
 11 15  1  0
 10 16  1  0
  9 17  1  0
  7 18  1  0
  7 19  1  0
  5 20  1  0
  2 21  1  0
 21 22  2  0
 22 23  1  0
 23 24  2  0
 24 25  1  0
 25 26  2  0
 26 27  1  0
 27 28  2  0
 28 29  1  0
 29 30  2  0
 29 31  1  0
 28 32  1  0
 27 33  1  0
 26 34  1  0
 24 35  1  0
 23 36  1  0
  1 37  1  0
  1 38  1  0
  1 39  1  0
 13  8  1  0
 30 21  1  0
 30 25  1  0
M  END
>  <cnnaffinity>  (1) 
-5.21503

>  <filename>  (1) 
CN(C(=O)NOCc1cccnc1)c1nccc2ccccc12

$$$$
