
     RDKit          3D

 34 35  0  0  0  0  0  0  0  0999 V2000
    5.0394    2.0211   16.8291 H   0  0  0  0  0  0  0  0  0  0  0  0
    5.4654    1.4096   17.6270 C   0  0  0  0  0  0  0  0  0  0  0  0
    6.6187    0.7782   17.3462 N   0  0  0  0  0  0  0  0  0  0  0  0
    7.1809    0.0222   18.2988 C   0  0  0  0  0  0  0  0  0  0  0  0
    8.1469   -0.4266   18.0692 H   0  0  0  0  0  0  0  0  0  0  0  0
    6.5897   -0.1808   19.5596 C   0  0  0  0  0  0  0  0  0  0  0  0
    7.2907   -0.9489   20.4811 O   0  0  0  0  0  0  0  0  0  0  0  0
    6.6730   -1.6763   21.4629 C   0  0  0  0  0  0  0  0  0  0  0  0
    5.5423   -2.1022   21.4026 O   0  0  0  0  0  0  0  0  0  0  0  0
    7.5397   -1.8954   22.5340 N   0  0  0  0  0  0  0  0  0  0  0  0
    8.8908   -1.5384   22.5099 N   0  0  0  0  0  0  0  0  0  0  0  0
    9.3777   -0.5993   23.4349 C   0  0  0  0  0  0  0  0  0  0  0  0
    8.4767    0.2641   24.1064 C   0  0  0  0  0  0  0  0  0  0  0  0
    7.4330    0.2668   23.8123 H   0  0  0  0  0  0  0  0  0  0  0  0
    8.9165    1.0789   25.1463 C   0  0  0  0  0  0  0  0  0  0  0  0
    8.1797    1.6574   25.6966 H   0  0  0  0  0  0  0  0  0  0  0  0
   10.2717    1.1367   25.4803 C   0  0  0  0  0  0  0  0  0  0  0  0
   10.6008    1.7397   26.3205 H   0  0  0  0  0  0  0  0  0  0  0  0
   11.1861    0.3966   24.7259 C   0  0  0  0  0  0  0  0  0  0  0  0
   12.2512    0.4929   24.9032 H   0  0  0  0  0  0  0  0  0  0  0  0
   10.7523   -0.4718   23.7165 C   0  0  0  0  0  0  0  0  0  0  0  0
   11.4836   -1.0621   23.1703 H   0  0  0  0  0  0  0  0  0  0  0  0
    9.7628   -2.4156   21.7439 C   0  0  0  0  0  0  0  0  0  0  0  0
    9.1671   -3.0026   21.0396 H   0  0  0  0  0  0  0  0  0  0  0  0
   10.3193   -3.1120   22.3879 H   0  0  0  0  0  0  0  0  0  0  0  0
   10.4655   -1.8155   21.1575 H   0  0  0  0  0  0  0  0  0  0  0  0
    7.0251   -2.4935   23.7651 C   0  0  0  0  0  0  0  0  0  0  0  0
    6.2556   -3.2282   23.5225 H   0  0  0  0  0  0  0  0  0  0  0  0
    6.5921   -1.7520   24.4527 H   0  0  0  0  0  0  0  0  0  0  0  0
    7.8561   -2.9837   24.2795 H   0  0  0  0  0  0  0  0  0  0  0  0
    5.3985    0.4785   19.8582 C   0  0  0  0  0  0  0  0  0  0  0  0
    4.9524    0.3604   20.8426 H   0  0  0  0  0  0  0  0  0  0  0  0
    4.8350    1.2966   18.8692 C   0  0  0  0  0  0  0  0  0  0  0  0
    3.9329    1.8653   19.0582 H   0  0  0  0  0  0  0  0  0  0  0  0
  1  2  1  0
  2  3  2  0
  3  4  1  0
  4  5  1  0
  4  6  2  0
  6  7  1  0
  7  8  1  0
  8  9  2  0
  8 10  1  0
 10 11  1  0
 11 12  1  0
 12 13  2  0
 13 14  1  0
 13 15  1  0
 15 16  1  0
 15 17  2  0
 17 18  1  0
 17 19  1  0
 19 20  1  0
 19 21  2  0
 21 22  1  0
 11 23  1  0
 23 24  1  0
 23 25  1  0
 23 26  1  0
 10 27  1  0
 27 28  1  0
 27 29  1  0
 27 30  1  0
  6 31  1  0
 31 32  1  0
 31 33  2  0
 33 34  1  0
 33  2  1  0
 21 12  1  0
M  END
>  <cnnaffinity>  (1) 
-4.55777

>  <filename>  (1) 
CN(C(=O)Oc1cccnc1)N(C)c1ccccc1

$$$$
