
     RDKit          3D

 38 40  0  0  0  0  0  0  0  0999 V2000
    8.7548   -0.3902   21.1904 C   0  0  0  0  0  0  0  0  0  0  0  0
    7.3398   -0.7000   20.9817 N   0  0  0  0  0  0  0  0  0  0  0  0
    6.6475   -1.7403   21.6421 C   0  0  0  0  0  0  0  0  0  0  0  0
    5.5524   -2.0876   21.2578 O   0  0  0  0  0  0  0  0  0  0  0  0
    7.3618   -2.4086   22.8461 C   0  0  0  0  0  0  0  0  0  0  0  0
    6.5478   -3.4510   23.3636 O   0  0  0  0  0  0  0  0  0  0  0  0
    6.9047   -4.2159   24.4364 C   0  0  0  0  0  0  0  0  0  0  0  0
    8.0909   -4.0719   25.1279 C   0  0  0  0  0  0  0  0  0  0  0  0
    8.3872   -4.9163   26.2363 C   0  0  0  0  0  0  0  0  0  0  0  0
    7.5103   -5.8902   26.6459 C   0  0  0  0  0  0  0  0  0  0  0  0
    6.2711   -6.0713   25.9576 C   0  0  0  0  0  0  0  0  0  0  0  0
    5.3473   -7.0807   26.3735 C   0  0  0  0  0  0  0  0  0  0  0  0
    4.1545   -7.2567   25.7070 C   0  0  0  0  0  0  0  0  0  0  0  0
    3.8293   -6.4311   24.5969 C   0  0  0  0  0  0  0  0  0  0  0  0
    4.6984   -5.4447   24.1695 C   0  0  0  0  0  0  0  0  0  0  0  0
    5.9473   -5.2334   24.8352 C   0  0  0  0  0  0  0  0  0  0  0  0
    4.4572   -4.8064   23.3236 H   0  0  0  0  0  0  0  0  0  0  0  0
    2.8838   -6.5768   24.0808 H   0  0  0  0  0  0  0  0  0  0  0  0
    3.4541   -8.0267   26.0285 H   0  0  0  0  0  0  0  0  0  0  0  0
    5.6074   -7.7106   27.2245 H   0  0  0  0  0  0  0  0  0  0  0  0
    7.7414   -6.5352   27.4940 H   0  0  0  0  0  0  0  0  0  0  0  0
    9.3295   -4.7763   26.7581 H   0  0  0  0  0  0  0  0  0  0  0  0
    8.8078   -3.3130   24.8351 H   0  0  0  0  0  0  0  0  0  0  0  0
    7.5430   -1.6419   23.6117 H   0  0  0  0  0  0  0  0  0  0  0  0
    8.3287   -2.8052   22.5094 H   0  0  0  0  0  0  0  0  0  0  0  0
    6.6643   -0.0007   19.9144 C   0  0  0  0  0  0  0  0  0  0  0  0
    5.4461    0.6463   20.1631 C   0  0  0  0  0  0  0  0  0  0  0  0
    4.8128    1.3133   19.1083 C   0  0  0  0  0  0  0  0  0  0  0  0
    5.4030    1.2939   17.8373 C   0  0  0  0  0  0  0  0  0  0  0  0
    6.5685    0.6793   17.5759 N   0  0  0  0  0  0  0  0  0  0  0  0
    7.1811    0.0689   18.6010 C   0  0  0  0  0  0  0  0  0  0  0  0
    8.1230   -0.4269   18.3766 H   0  0  0  0  0  0  0  0  0  0  0  0
    4.9114    1.7795   16.9956 H   0  0  0  0  0  0  0  0  0  0  0  0
    3.8753    1.8429   19.2629 H   0  0  0  0  0  0  0  0  0  0  0  0
    5.0120    0.6153   21.1641 H   0  0  0  0  0  0  0  0  0  0  0  0
    9.4221   -1.1799   20.8228 H   0  0  0  0  0  0  0  0  0  0  0  0
    8.9631   -0.2079   22.2471 H   0  0  0  0  0  0  0  0  0  0  0  0
    9.0174    0.5300   20.6583 H   0  0  0  0  0  0  0  0  0  0  0  0
  1  2  1  0
  2  3  1  0
  3  4  2  0
  3  5  1  0
  5  6  1  0
  6  7  1  0
  7  8  2  0
  8  9  1  0
  9 10  2  0
 10 11  1  0
 11 12  2  0
 12 13  1  0
 13 14  2  0
 14 15  1  0
 15 16  2  0
 15 17  1  0
 14 18  1  0
 13 19  1  0
 12 20  1  0
 10 21  1  0
  9 22  1  0
  8 23  1  0
  5 24  1  0
  5 25  1  0
  2 26  1  0
 26 27  2  0
 27 28  1  0
 28 29  2  0
 29 30  1  0
 30 31  2  0
 31 32  1  0
 29 33  1  0
 28 34  1  0
 27 35  1  0
  1 36  1  0
  1 37  1  0
  1 38  1  0
 16  7  1  0
 31 26  1  0
 16 11  1  0
M  END
>  <cnnaffinity>  (1) 
-5.02455

>  <filename>  (1) 
CN(C(=O)COc1cccc2ccccc12)c1cccnc1

$$$$
