
     RDKit          3D

 31 32  0  0  0  0  0  0  0  0999 V2000
    4.9448    1.7751   17.0096 H   0  0  0  0  0  0  0  0  0  0  0  0
    5.4207    1.2747   17.8473 C   0  0  0  0  0  0  0  0  0  0  0  0
    6.5805    0.6550   17.5810 N   0  0  0  0  0  0  0  0  0  0  0  0
    7.2075    0.0605   18.5983 C   0  0  0  0  0  0  0  0  0  0  0  0
    8.1591   -0.4213   18.3763 H   0  0  0  0  0  0  0  0  0  0  0  0
    6.6984    0.0213   19.9034 C   0  0  0  0  0  0  0  0  0  0  0  0
    7.4769   -0.6916   20.9373 C   0  0  0  0  0  0  0  0  0  0  0  0
    8.7754   -0.6291   20.8487 N   0  0  0  0  0  0  0  0  0  0  0  0
    9.5092   -1.2556   21.8141 C   0  0  0  0  0  0  0  0  0  0  0  0
   10.7165   -1.3024   21.8900 O   0  0  0  0  0  0  0  0  0  0  0  0
    8.8175   -1.9588   22.8398 N   0  0  0  0  0  0  0  0  0  0  0  0
    9.5559   -2.3757   23.3932 H   0  0  0  0  0  0  0  0  0  0  0  0
    7.4439   -2.0691   22.9489 C   0  0  0  0  0  0  0  0  0  0  0  0
    6.5653   -2.9865   24.3883 S   0  0  0  0  0  0  0  0  0  0  0  0
    5.2242   -3.3571   23.9715 O   0  0  0  0  0  0  0  0  0  0  0  0
    7.4990   -3.9669   24.9119 O   0  0  0  0  0  0  0  0  0  0  0  0
    6.4120   -1.7941   25.5595 N   0  0  0  0  0  0  0  0  0  0  0  0
    5.4490   -0.7354   25.2600 C   0  0  0  0  0  0  0  0  0  0  0  0
    4.4790   -1.1766   25.0282 H   0  0  0  0  0  0  0  0  0  0  0  0
    5.3249   -0.1198   26.1611 H   0  0  0  0  0  0  0  0  0  0  0  0
    5.7641   -0.0889   24.4220 H   0  0  0  0  0  0  0  0  0  0  0  0
    7.6720   -1.3216   26.1353 C   0  0  0  0  0  0  0  0  0  0  0  0
    8.2520   -0.6861   25.4457 H   0  0  0  0  0  0  0  0  0  0  0  0
    8.2829   -2.1760   26.4277 H   0  0  0  0  0  0  0  0  0  0  0  0
    7.4366   -0.7478   27.0422 H   0  0  0  0  0  0  0  0  0  0  0  0
    6.7496   -1.4204   21.9517 C   0  0  0  0  0  0  0  0  0  0  0  0
    5.6726   -1.4478   21.8542 H   0  0  0  0  0  0  0  0  0  0  0  0
    5.4698    0.6508   20.1629 C   0  0  0  0  0  0  0  0  0  0  0  0
    5.0353    0.6470   21.1669 H   0  0  0  0  0  0  0  0  0  0  0  0
    4.8245    1.3004   19.1131 C   0  0  0  0  0  0  0  0  0  0  0  0
    3.8844    1.8255   19.2603 H   0  0  0  0  0  0  0  0  0  0  0  0
  1  2  1  0
  2  3  2  0
  3  4  1  0
  4  5  1  0
  4  6  2  0
  6  7  1  0
  7  8  2  0
  8  9  1  0
  9 10  2  0
  9 11  1  0
 11 12  1  0
 11 13  1  0
 13 14  1  0
 14 15  2  0
 14 16  2  0
 14 17  1  0
 17 18  1  0
 18 19  1  0
 18 20  1  0
 18 21  1  0
 17 22  1  0
 22 23  1  0
 22 24  1  0
 22 25  1  0
 13 26  2  0
 26 27  1  0
  6 28  1  0
 28 29  1  0
 28 30  2  0
 30 31  1  0
 30  2  1  0
 26  7  1  0
M  END
>  <cnnaffinity>  (1) 
-4.78069

>  <filename>  (1) 
CN(C)S(=O)(=O)c1cc(-c2cccnc2)nc(=O)[nH]1

$$$$
