
     RDKit          3D

 36 38  0  0  0  0  0  0  0  0999 V2000
    8.0318   -2.2028   26.8754 C   0  0  0  0  0  0  0  0  0  0  0  0
    6.7521   -1.7318   26.3539 N   0  0  0  0  0  0  0  0  0  0  0  0
    6.6135   -1.2287   25.0519 C   0  0  0  0  0  0  0  0  0  0  0  0
    5.7101   -0.5102   24.7066 O   0  0  0  0  0  0  0  0  0  0  0  0
    7.6427   -1.6619   24.2425 N   0  0  0  0  0  0  0  0  0  0  0  0
    7.7688   -1.4153   22.8891 C   0  0  0  0  0  0  0  0  0  0  0  0
    6.8745   -0.7195   22.2153 N   0  0  0  0  0  0  0  0  0  0  0  0
    7.3552   -0.6988   20.9778 N   0  0  0  0  0  0  0  0  0  0  0  0
    6.6653   -0.0239   19.9543 C   0  0  0  0  0  0  0  0  0  0  0  0
    5.4479    0.6283   20.2074 C   0  0  0  0  0  0  0  0  0  0  0  0
    4.8380    1.2776   19.1378 C   0  0  0  0  0  0  0  0  0  0  0  0
    5.4554    1.2556   17.8815 C   0  0  0  0  0  0  0  0  0  0  0  0
    6.6189    0.6218   17.6463 N   0  0  0  0  0  0  0  0  0  0  0  0
    7.2097    0.0016   18.6683 C   0  0  0  0  0  0  0  0  0  0  0  0
    8.1572   -0.4964   18.4757 H   0  0  0  0  0  0  0  0  0  0  0  0
    5.0041    1.7626   17.0311 H   0  0  0  0  0  0  0  0  0  0  0  0
    3.9043    1.8098   19.2725 H   0  0  0  0  0  0  0  0  0  0  0  0
    5.0294    0.6213   21.2182 H   0  0  0  0  0  0  0  0  0  0  0  0
    8.4992   -1.3327   20.7942 N   0  0  0  0  0  0  0  0  0  0  0  0
    8.7925   -1.8039   21.9976 C   0  0  0  0  0  0  0  0  0  0  0  0
    9.6928   -2.3804   22.1621 H   0  0  0  0  0  0  0  0  0  0  0  0
    8.2957   -2.2583   24.6984 H   0  0  0  0  0  0  0  0  0  0  0  0
    5.6238   -1.5923   27.2259 C   0  0  0  0  0  0  0  0  0  0  0  0
    5.7056   -0.8048   28.3842 C   0  0  0  0  0  0  0  0  0  0  0  0
    4.5734   -0.6138   29.1856 C   0  0  0  0  0  0  0  0  0  0  0  0
    3.3613   -1.2221   28.8378 C   0  0  0  0  0  0  0  0  0  0  0  0
    3.2801   -2.0180   27.6879 C   0  0  0  0  0  0  0  0  0  0  0  0
    4.4025   -2.1917   26.8749 C   0  0  0  0  0  0  0  0  0  0  0  0
    4.3400   -2.7547   25.9476 H   0  0  0  0  0  0  0  0  0  0  0  0
    2.3389   -2.4869   27.4083 H   0  0  0  0  0  0  0  0  0  0  0  0
    2.4798   -1.0718   29.4552 H   0  0  0  0  0  0  0  0  0  0  0  0
    4.6421    0.0085   30.0763 H   0  0  0  0  0  0  0  0  0  0  0  0
    6.6485   -0.3161   28.6187 H   0  0  0  0  0  0  0  0  0  0  0  0
    8.0074   -2.2140   27.9557 H   0  0  0  0  0  0  0  0  0  0  0  0
    8.8518   -1.5297   26.5928 H   0  0  0  0  0  0  0  0  0  0  0  0
    8.2604   -3.2320   26.5578 H   0  0  0  0  0  0  0  0  0  0  0  0
  1  2  1  0
  2  3  1  0
  3  4  2  0
  3  5  1  0
  5  6  1  0
  6  7  2  0
  7  8  1  0
  8  9  1  0
  9 10  2  0
 10 11  1  0
 11 12  2  0
 12 13  1  0
 13 14  2  0
 14 15  1  0
 12 16  1  0
 11 17  1  0
 10 18  1  0
  8 19  1  0
 19 20  2  0
 20 21  1  0
  5 22  1  0
  2 23  1  0
 23 24  2  0
 24 25  1  0
 25 26  2  0
 26 27  1  0
 27 28  2  0
 28 29  1  0
 27 30  1  0
 26 31  1  0
 25 32  1  0
 24 33  1  0
  1 34  1  0
  1 35  1  0
  1 36  1  0
 20  6  1  0
 28 23  1  0
 14  9  1  0
M  END
>  <cnnaffinity>  (1) 
-4.91037

>  <filename>  (1) 
CN(C(=O)Nc1cnn(-c2cccnc2)n1)c1ccccc1

$$$$
