
     RDKit          3D

 37 39  0  0  0  0  0  0  0  0999 V2000
    4.9726    1.7930   16.9038 H   0  0  0  0  0  0  0  0  0  0  0  0
    5.4277    1.3103   17.7662 C   0  0  0  0  0  0  0  0  0  0  0  0
    6.6008    0.6918   17.5456 N   0  0  0  0  0  0  0  0  0  0  0  0
    7.1779    0.0853   18.5897 C   0  0  0  0  0  0  0  0  0  0  0  0
    8.1309   -0.3978   18.3763 H   0  0  0  0  0  0  0  0  0  0  0  0
    6.6379    0.0612   19.8921 C   0  0  0  0  0  0  0  0  0  0  0  0
    7.2949   -0.6275   21.0016 C   0  0  0  0  0  0  0  0  0  0  0  0
    7.1988   -0.4666   22.3412 C   0  0  0  0  0  0  0  0  0  0  0  0
    6.7146    0.2968   22.9268 H   0  0  0  0  0  0  0  0  0  0  0  0
    7.9047   -1.4949   22.9650 N   0  0  0  0  0  0  0  0  0  0  0  0
    8.1090   -1.6415   24.3479 N   0  0  0  0  0  0  0  0  0  0  0  0
    7.0992   -1.0354   25.2089 C   0  0  0  0  0  0  0  0  0  0  0  0
    6.1049   -1.4346   24.9654 H   0  0  0  0  0  0  0  0  0  0  0  0
    7.0724    0.0653   25.1549 H   0  0  0  0  0  0  0  0  0  0  0  0
    7.3166   -1.3260   26.2403 H   0  0  0  0  0  0  0  0  0  0  0  0
    9.5262   -1.5762   24.7445 C   0  0  0  0  0  0  0  0  0  0  0  0
    9.9578   -2.5466   24.4595 H   0  0  0  0  0  0  0  0  0  0  0  0
    9.5507   -1.5335   25.8389 H   0  0  0  0  0  0  0  0  0  0  0  0
   10.4225   -0.4775   24.1623 C   0  0  0  0  0  0  0  0  0  0  0  0
   11.3306   -0.8103   23.1365 C   0  0  0  0  0  0  0  0  0  0  0  0
   11.2387   -1.7800   22.6451 H   0  0  0  0  0  0  0  0  0  0  0  0
   12.3596    0.0643   22.7792 C   0  0  0  0  0  0  0  0  0  0  0  0
   13.0909   -0.2402   22.0315 H   0  0  0  0  0  0  0  0  0  0  0  0
   12.4717    1.3008   23.4185 C   0  0  0  0  0  0  0  0  0  0  0  0
   13.3132    1.9495   23.1854 H   0  0  0  0  0  0  0  0  0  0  0  0
   11.5013    1.6934   24.3501 C   0  0  0  0  0  0  0  0  0  0  0  0
   11.5509    2.6801   24.7976 H   0  0  0  0  0  0  0  0  0  0  0  0
   10.4593    0.8233   24.6950 C   0  0  0  0  0  0  0  0  0  0  0  0
    9.7072    1.1369   25.4221 H   0  0  0  0  0  0  0  0  0  0  0  0
    8.5119   -2.2908   21.9735 C   0  0  0  0  0  0  0  0  0  0  0  0
    9.2256   -3.2719   22.0762 O   0  0  0  0  0  0  0  0  0  0  0  0
    8.1447   -1.7017   20.7927 N   0  0  0  0  0  0  0  0  0  0  0  0
    8.3838   -2.1629   19.9354 H   0  0  0  0  0  0  0  0  0  0  0  0
    5.4123    0.7180   20.0964 C   0  0  0  0  0  0  0  0  0  0  0  0
    4.9541    0.7181   21.0870 H   0  0  0  0  0  0  0  0  0  0  0  0
    4.7968    1.3448   19.0151 C   0  0  0  0  0  0  0  0  0  0  0  0
    3.8491    1.8613   19.1233 H   0  0  0  0  0  0  0  0  0  0  0  0
  1  2  1  0
  2  3  2  0
  3  4  1  0
  4  5  1  0
  4  6  2  0
  6  7  1  0
  7  8  2  0
  8  9  1  0
  8 10  1  0
 10 11  1  0
 11 12  1  0
 12 13  1  0
 12 14  1  0
 12 15  1  0
 11 16  1  0
 16 17  1  0
 16 18  1  0
 16 19  1  0
 19 20  2  0
 20 21  1  0
 20 22  1  0
 22 23  1  0
 22 24  2  0
 24 25  1  0
 24 26  1  0
 26 27  1  0
 26 28  2  0
 28 29  1  0
 10 30  1  0
 30 31  2  0
 30 32  1  0
 32 33  1  0
  6 34  1  0
 34 35  1  0
 34 36  2  0
 36 37  1  0
 36  2  1  0
 32  7  1  0
 28 19  1  0
M  END
>  <cnnaffinity>  (1) 
-5.5743

>  <filename>  (1) 
CN(Cc1ccccc1)n1cc(-c2cccnc2)[nH]c1=O

$$$$
