
     RDKit          3D

 38 40  0  0  0  0  0  0  0  0999 V2000
    4.9085    1.7973   17.0017 H   0  0  0  0  0  0  0  0  0  0  0  0
    5.3855    1.2874   17.8349 C   0  0  0  0  0  0  0  0  0  0  0  0
    6.5379    0.6593   17.5566 N   0  0  0  0  0  0  0  0  0  0  0  0
    7.1761    0.0640   18.5710 C   0  0  0  0  0  0  0  0  0  0  0  0
    8.1247   -0.4237   18.3538 H   0  0  0  0  0  0  0  0  0  0  0  0
    6.7045    0.0407   19.9098 C   0  0  0  0  0  0  0  0  0  0  0  0
    7.4329   -0.6173   20.9635 N   0  0  0  0  0  0  0  0  0  0  0  0
    6.7797   -1.7154   21.6677 C   0  0  0  0  0  0  0  0  0  0  0  0
    5.8798   -1.3372   22.1572 H   0  0  0  0  0  0  0  0  0  0  0  0
    7.4291   -2.1823   22.4141 H   0  0  0  0  0  0  0  0  0  0  0  0
    6.4696   -2.4822   20.9507 H   0  0  0  0  0  0  0  0  0  0  0  0
    8.9961   -0.1750   21.3685 S   0  0  0  0  0  0  0  0  0  0  0  0
    9.4545    0.7833   20.3812 O   0  0  0  0  0  0  0  0  0  0  0  0
    9.7207   -1.4002   21.6487 O   0  0  0  0  0  0  0  0  0  0  0  0
    8.8797    0.6974   22.9232 C   0  0  0  0  0  0  0  0  0  0  0  0
    8.7660   -0.0956   23.6670 H   0  0  0  0  0  0  0  0  0  0  0  0
    9.8752    1.1445   23.0190 H   0  0  0  0  0  0  0  0  0  0  0  0
    7.7741    1.7096   22.9281 C   0  0  0  0  0  0  0  0  0  0  0  0
    7.9393    2.9384   22.2354 C   0  0  0  0  0  0  0  0  0  0  0  0
    8.8937    3.1462   21.7523 H   0  0  0  0  0  0  0  0  0  0  0  0
    6.9053    3.8393   22.1575 C   0  0  0  0  0  0  0  0  0  0  0  0
    7.0283    4.7789   21.6234 H   0  0  0  0  0  0  0  0  0  0  0  0
    5.6369    3.5535   22.7580 C   0  0  0  0  0  0  0  0  0  0  0  0
    4.5303    4.4535   22.6742 C   0  0  0  0  0  0  0  0  0  0  0  0
    4.6712    5.3862   22.1326 H   0  0  0  0  0  0  0  0  0  0  0  0
    3.3228    4.1387   23.2576 C   0  0  0  0  0  0  0  0  0  0  0  0
    2.4882    4.8330   23.1859 H   0  0  0  0  0  0  0  0  0  0  0  0
    3.1551    2.9137   23.9548 C   0  0  0  0  0  0  0  0  0  0  0  0
    2.1948    2.6819   24.4092 H   0  0  0  0  0  0  0  0  0  0  0  0
    4.2043    2.0241   24.0563 C   0  0  0  0  0  0  0  0  0  0  0  0
    4.0963    1.0775   24.5822 H   0  0  0  0  0  0  0  0  0  0  0  0
    5.4664    2.3158   23.4580 C   0  0  0  0  0  0  0  0  0  0  0  0
    6.5668    1.4124   23.5225 C   0  0  0  0  0  0  0  0  0  0  0  0
    6.4385    0.4705   24.0486 H   0  0  0  0  0  0  0  0  0  0  0  0
    5.4740    0.6506   20.1637 C   0  0  0  0  0  0  0  0  0  0  0  0
    5.0659    0.6348   21.1725 H   0  0  0  0  0  0  0  0  0  0  0  0
    4.8142    1.3031   19.1100 C   0  0  0  0  0  0  0  0  0  0  0  0
    3.8819    1.8284   19.2685 H   0  0  0  0  0  0  0  0  0  0  0  0
  1  2  1  0
  2  3  2  0
  3  4  1  0
  4  5  1  0
  4  6  2  0
  6  7  1  0
  7  8  1  0
  8  9  1  0
  8 10  1  0
  8 11  1  0
  7 12  1  0
 12 13  2  0
 12 14  2  0
 12 15  1  0
 15 16  1  0
 15 17  1  0
 15 18  1  0
 18 19  2  0
 19 20  1  0
 19 21  1  0
 21 22  1  0
 21 23  2  0
 23 24  1  0
 24 25  1  0
 24 26  2  0
 26 27  1  0
 26 28  1  0
 28 29  1  0
 28 30  2  0
 30 31  1  0
 30 32  1  0
 32 33  2  0
 33 34  1  0
  6 35  1  0
 35 36  1  0
 35 37  2  0
 37 38  1  0
 37  2  1  0
 33 18  1  0
 32 23  1  0
M  END
>  <cnnaffinity>  (1) 
-4.91616

>  <filename>  (1) 
CN(c1cccnc1)S(=O)(=O)Cc1ccc2ccccc2c1

$$$$
