
     RDKit          3D

 35 36  0  0  0  0  0  0  0  0999 V2000
    4.9604    1.8258   16.9788 H   0  0  0  0  0  0  0  0  0  0  0  0
    5.4194    1.3104   17.8201 C   0  0  0  0  0  0  0  0  0  0  0  0
    6.5844    0.6880   17.5885 N   0  0  0  0  0  0  0  0  0  0  0  0
    7.1678    0.0696   18.6262 C   0  0  0  0  0  0  0  0  0  0  0  0
    8.1114   -0.4236   18.3952 H   0  0  0  0  0  0  0  0  0  0  0  0
    6.6393    0.0091   19.9294 C   0  0  0  0  0  0  0  0  0  0  0  0
    7.3856   -0.7441   21.0254 C   0  0  0  0  0  0  0  0  0  0  0  0
    6.7498   -0.8165   21.9205 H   0  0  0  0  0  0  0  0  0  0  0  0
    7.5392   -1.7819   20.7039 H   0  0  0  0  0  0  0  0  0  0  0  0
    8.7303   -0.1492   21.3885 C   0  0  0  0  0  0  0  0  0  0  0  0
   10.0327   -0.5850   21.0452 C   0  0  0  0  0  0  0  0  0  0  0  0
   10.3097   -1.5180   20.5773 H   0  0  0  0  0  0  0  0  0  0  0  0
   10.9735    0.2876   21.3848 N   0  0  0  0  0  0  0  0  0  0  0  0
   10.2855    1.2743   21.9800 N   0  0  0  0  0  0  0  0  0  0  0  0
   10.7741    2.1138   22.2627 H   0  0  0  0  0  0  0  0  0  0  0  0
    8.9471    1.0429   22.0506 C   0  0  0  0  0  0  0  0  0  0  0  0
    7.9972    2.0251   22.6664 C   0  0  0  0  0  0  0  0  0  0  0  0
    8.4412    2.4817   23.5617 H   0  0  0  0  0  0  0  0  0  0  0  0
    7.0850    1.5029   22.9798 H   0  0  0  0  0  0  0  0  0  0  0  0
    7.6641    3.1141   21.6420 C   0  0  0  0  0  0  0  0  0  0  0  0
    8.6209    3.5452   21.3328 H   0  0  0  0  0  0  0  0  0  0  0  0
    7.2536    2.6049   20.7493 H   0  0  0  0  0  0  0  0  0  0  0  0
    6.7980    4.1976   22.1164 N   0  0  0  0  0  0  0  0  0  0  0  0
    5.3873    3.8651   21.9174 C   0  0  0  0  0  0  0  0  0  0  0  0
    4.7490    4.7131   22.1879 H   0  0  0  0  0  0  0  0  0  0  0  0
    5.0904    3.0290   22.5576 H   0  0  0  0  0  0  0  0  0  0  0  0
    5.1689    3.6017   20.8641 H   0  0  0  0  0  0  0  0  0  0  0  0
    7.0882    5.4772   21.4598 C   0  0  0  0  0  0  0  0  0  0  0  0
    6.5217    6.2755   21.9504 H   0  0  0  0  0  0  0  0  0  0  0  0
    6.8275    5.5107   20.3849 H   0  0  0  0  0  0  0  0  0  0  0  0
    8.1500    5.7289   21.5515 H   0  0  0  0  0  0  0  0  0  0  0  0
    5.4103    0.6549   20.1343 C   0  0  0  0  0  0  0  0  0  0  0  0
    4.9485    0.6714   21.1222 H   0  0  0  0  0  0  0  0  0  0  0  0
    4.7964    1.3188   19.0691 C   0  0  0  0  0  0  0  0  0  0  0  0
    3.8607    1.8552   19.1930 H   0  0  0  0  0  0  0  0  0  0  0  0
  1  2  1  0
  2  3  2  0
  3  4  1  0
  4  5  1  0
  4  6  2  0
  6  7  1  0
  7  8  1  0
  7  9  1  0
  7 10  1  0
 10 11  1  0
 11 12  1  0
 11 13  2  0
 13 14  1  0
 14 15  1  0
 14 16  1  0
 16 17  1  0
 17 18  1  0
 17 19  1  0
 17 20  1  0
 20 21  1  0
 20 22  1  0
 20 23  1  0
 23 24  1  0
 24 25  1  0
 24 26  1  0
 24 27  1  0
 23 28  1  0
 28 29  1  0
 28 30  1  0
 28 31  1  0
  6 32  1  0
 32 33  1  0
 32 34  2  0
 34 35  1  0
 34  2  1  0
 16 10  2  0
M  END
>  <cnnaffinity>  (1) 
-4.61405

>  <filename>  (1) 
CN(C)CCc1[nH]ncc1Cc1cccnc1

$$$$
