
     RDKit          3D

 43 45  0  0  0  0  0  0  0  0999 V2000
   14.8854   -0.4917   21.9605 H   0  0  0  0  0  0  0  0  0  0  0  0
   14.1717    0.1383   22.4582 C   0  0  0  0  0  0  0  0  0  0  0  0
   13.0324   -0.4866   22.7239 N   0  0  0  0  0  0  0  0  0  0  0  0
   12.0814    0.1974   23.3729 C   0  0  0  0  0  0  0  0  0  0  0  0
   10.9197   -0.4985   23.5956 N   0  0  0  0  0  0  0  0  0  0  0  0
   10.6609   -1.7091   22.7826 C   0  0  0  0  0  0  0  0  0  0  0  0
   11.5117   -2.3935   22.8471 H   0  0  0  0  0  0  0  0  0  0  0  0
   10.5637   -1.4291   21.7217 H   0  0  0  0  0  0  0  0  0  0  0  0
    9.3932   -2.4224   23.2373 C   0  0  0  0  0  0  0  0  0  0  0  0
    9.1358   -3.2186   22.5343 H   0  0  0  0  0  0  0  0  0  0  0  0
    9.5629   -2.8994   24.2170 H   0  0  0  0  0  0  0  0  0  0  0  0
    8.3197   -1.4362   23.3006 N   0  0  0  0  0  0  0  0  0  0  0  0
    7.0329   -1.8750   23.0363 N   0  0  0  0  0  0  0  0  0  0  0  0
    6.4630   -1.7447   21.7429 C   0  0  0  0  0  0  0  0  0  0  0  0
    5.4687   -2.3591   21.4054 O   0  0  0  0  0  0  0  0  0  0  0  0
    7.1606   -0.8813   20.9081 N   0  0  0  0  0  0  0  0  0  0  0  0
    7.8854   -0.4039   21.4254 H   0  0  0  0  0  0  0  0  0  0  0  0
    6.5678   -0.1467   19.8311 C   0  0  0  0  0  0  0  0  0  0  0  0
    7.2042   -0.0342   18.5760 C   0  0  0  0  0  0  0  0  0  0  0  0
    8.1518   -0.5468   18.4097 H   0  0  0  0  0  0  0  0  0  0  0  0
    6.7078    0.6670   17.5466 N   0  0  0  0  0  0  0  0  0  0  0  0
    5.5471    1.3190   17.7388 C   0  0  0  0  0  0  0  0  0  0  0  0
    5.1763    1.8944   16.8919 H   0  0  0  0  0  0  0  0  0  0  0  0
    4.8394    1.2791   18.9434 C   0  0  0  0  0  0  0  0  0  0  0  0
    3.9180    1.8448   19.0473 H   0  0  0  0  0  0  0  0  0  0  0  0
    5.3527    0.5249   20.0070 C   0  0  0  0  0  0  0  0  0  0  0  0
    4.8359    0.4507   20.9629 H   0  0  0  0  0  0  0  0  0  0  0  0
    6.3560   -2.7390   24.0087 C   0  0  0  0  0  0  0  0  0  0  0  0
    6.0874   -3.7035   23.5607 H   0  0  0  0  0  0  0  0  0  0  0  0
    5.4310   -2.2801   24.3793 H   0  0  0  0  0  0  0  0  0  0  0  0
    7.0182   -2.9202   24.8622 H   0  0  0  0  0  0  0  0  0  0  0  0
    8.5131   -0.2977   24.2128 C   0  0  0  0  0  0  0  0  0  0  0  0
    8.2288    0.6231   23.6851 H   0  0  0  0  0  0  0  0  0  0  0  0
    7.8603   -0.3983   25.0930 H   0  0  0  0  0  0  0  0  0  0  0  0
    9.9825   -0.2237   24.6885 C   0  0  0  0  0  0  0  0  0  0  0  0
   10.1063   -0.9762   25.4819 H   0  0  0  0  0  0  0  0  0  0  0  0
   10.1733    0.7477   25.1459 H   0  0  0  0  0  0  0  0  0  0  0  0
   12.2599    1.5341   23.7922 C   0  0  0  0  0  0  0  0  0  0  0  0
   11.4452    2.0190   24.3113 H   0  0  0  0  0  0  0  0  0  0  0  0
   13.4535    2.1734   23.4846 C   0  0  0  0  0  0  0  0  0  0  0  0
   13.6275    3.2045   23.7884 H   0  0  0  0  0  0  0  0  0  0  0  0
   14.4387    1.4564   22.7978 C   0  0  0  0  0  0  0  0  0  0  0  0
   15.3719    1.9158   22.4918 H   0  0  0  0  0  0  0  0  0  0  0  0
  1  2  1  0
  2  3  2  0
  3  4  1  0
  4  5  1  0
  5  6  1  0
  6  7  1  0
  6  8  1  0
  6  9  1  0
  9 10  1  0
  9 11  1  0
  9 12  1  0
 12 13  1  0
 13 14  1  0
 14 15  2  0
 14 16  1  0
 16 17  1  0
 16 18  1  0
 18 19  2  0
 19 20  1  0
 19 21  1  0
 21 22  2  0
 22 23  1  0
 22 24  1  0
 24 25  1  0
 24 26  2  0
 26 27  1  0
 13 28  1  0
 28 29  1  0
 28 30  1  0
 28 31  1  0
 12 32  1  0
 32 33  1  0
 32 34  1  0
 32 35  1  0
 35 36  1  0
 35 37  1  0
  4 38  2  0
 38 39  1  0
 38 40  1  0
 40 41  1  0
 40 42  2  0
 42 43  1  0
 42  2  1  0
 35  5  1  0
 26 18  1  0
M  END
>  <cnnaffinity>  (1) 
-5.57956

>  <filename>  (1) 
CN(C(=O)Nc1cccnc1)N1CCN(c2ccccn2)CC1

$$$$
