
     RDKit          3D

 35 37  0  0  0  0  0  0  0  0999 V2000
    4.9956    1.8125   16.9846 H   0  0  0  0  0  0  0  0  0  0  0  0
    5.4303    1.2917   17.8354 C   0  0  0  0  0  0  0  0  0  0  0  0
    6.5837    0.6449   17.6093 N   0  0  0  0  0  0  0  0  0  0  0  0
    7.1349    0.0080   18.6469 C   0  0  0  0  0  0  0  0  0  0  0  0
    8.0757   -0.4973   18.4386 H   0  0  0  0  0  0  0  0  0  0  0  0
    6.5816   -0.0450   19.9360 C   0  0  0  0  0  0  0  0  0  0  0  0
    7.3187   -0.7946   20.9998 C   0  0  0  0  0  0  0  0  0  0  0  0
    6.6043   -1.4628   21.8789 N   0  0  0  0  0  0  0  0  0  0  0  0
    7.2561   -1.9983   22.9579 N   0  0  0  0  0  0  0  0  0  0  0  0
    6.4073   -2.5285   23.8872 N   0  0  0  0  0  0  0  0  0  0  0  0
    6.4602   -2.1164   25.2356 C   0  0  0  0  0  0  0  0  0  0  0  0
    6.0453   -3.0089   26.2459 C   0  0  0  0  0  0  0  0  0  0  0  0
    5.8061   -4.0325   25.9660 H   0  0  0  0  0  0  0  0  0  0  0  0
    5.9653   -2.5838   27.5729 C   0  0  0  0  0  0  0  0  0  0  0  0
    5.6174   -3.2745   28.3370 H   0  0  0  0  0  0  0  0  0  0  0  0
    6.3417   -1.2829   27.9186 C   0  0  0  0  0  0  0  0  0  0  0  0
    6.2742   -0.9591   28.9543 H   0  0  0  0  0  0  0  0  0  0  0  0
    6.8232   -0.4135   26.9335 C   0  0  0  0  0  0  0  0  0  0  0  0
    7.1773    0.5776   27.2028 H   0  0  0  0  0  0  0  0  0  0  0  0
    6.8727   -0.8152   25.5954 C   0  0  0  0  0  0  0  0  0  0  0  0
    7.2192   -0.1458   24.8119 H   0  0  0  0  0  0  0  0  0  0  0  0
    5.4553   -3.5142   23.4015 C   0  0  0  0  0  0  0  0  0  0  0  0
    5.3160   -3.3422   22.3319 H   0  0  0  0  0  0  0  0  0  0  0  0
    5.8168   -4.5395   23.5686 H   0  0  0  0  0  0  0  0  0  0  0  0
    4.5057   -3.3619   23.9198 H   0  0  0  0  0  0  0  0  0  0  0  0
    8.6908   -2.1817   23.1177 C   0  0  0  0  0  0  0  0  0  0  0  0
    9.1827   -2.8209   24.0246 O   0  0  0  0  0  0  0  0  0  0  0  0
    9.3905   -1.4844   22.0759 C   0  0  0  0  0  0  0  0  0  0  0  0
   10.4646   -1.5411   22.1727 H   0  0  0  0  0  0  0  0  0  0  0  0
    8.7389   -0.8097   21.0847 C   0  0  0  0  0  0  0  0  0  0  0  0
    9.3148   -0.2565   20.3511 H   0  0  0  0  0  0  0  0  0  0  0  0
    5.3655    0.6323   20.1530 C   0  0  0  0  0  0  0  0  0  0  0  0
    4.8958    0.6378   21.1403 H   0  0  0  0  0  0  0  0  0  0  0  0
    4.7920    1.3165   19.0813 C   0  0  0  0  0  0  0  0  0  0  0  0
    3.8676    1.8764   19.1958 H   0  0  0  0  0  0  0  0  0  0  0  0
  1  2  1  0
  2  3  2  0
  3  4  1  0
  4  5  1  0
  4  6  2  0
  6  7  1  0
  7  8  2  0
  8  9  1  0
  9 10  1  0
 10 11  1  0
 11 12  2  0
 12 13  1  0
 12 14  1  0
 14 15  1  0
 14 16  2  0
 16 17  1  0
 16 18  1  0
 18 19  1  0
 18 20  2  0
 20 21  1  0
 10 22  1  0
 22 23  1  0
 22 24  1  0
 22 25  1  0
  9 26  1  0
 26 27  2  0
 26 28  1  0
 28 29  1  0
 28 30  2  0
 30 31  1  0
  6 32  1  0
 32 33  1  0
 32 34  2  0
 34 35  1  0
 34  2  1  0
 30  7  1  0
 20 11  1  0
M  END
>  <cnnaffinity>  (1) 
-5.18757

>  <filename>  (1) 
CN(c1ccccc1)n1nc(-c2cccnc2)ccc1=O

$$$$
