
     RDKit          3D

 42 44  0  0  0  0  0  0  0  0999 V2000
    9.1420   -0.2457   20.0217 H   0  0  0  0  0  0  0  0  0  0  0  0
    8.5279   -0.6295   20.8323 C   0  0  0  0  0  0  0  0  0  0  0  0
    9.1858   -1.1956   21.8525 N   0  0  0  0  0  0  0  0  0  0  0  0
    8.4365   -1.6129   22.9006 C   0  0  0  0  0  0  0  0  0  0  0  0
    9.1414   -2.1685   23.9529 N   0  0  0  0  0  0  0  0  0  0  0  0
    8.6162   -2.1793   25.3199 C   0  0  0  0  0  0  0  0  0  0  0  0
    7.8935   -1.3707   25.4665 H   0  0  0  0  0  0  0  0  0  0  0  0
    9.4424   -1.9669   26.0131 H   0  0  0  0  0  0  0  0  0  0  0  0
    8.0321   -3.5547   25.6389 C   0  0  0  0  0  0  0  0  0  0  0  0
    7.1007   -3.6867   25.0757 H   0  0  0  0  0  0  0  0  0  0  0  0
    7.7639   -3.6311   26.6952 H   0  0  0  0  0  0  0  0  0  0  0  0
    9.0211   -4.6856   25.2638 C   0  0  0  0  0  0  0  0  0  0  0  0
    8.5600   -5.2368   24.4296 H   0  0  0  0  0  0  0  0  0  0  0  0
    9.1737   -5.6545   26.3500 N   0  0  0  0  0  0  0  0  0  0  0  0
    9.8378   -5.1906   27.5698 C   0  0  0  0  0  0  0  0  0  0  0  0
    9.7160   -4.1127   27.7321 H   0  0  0  0  0  0  0  0  0  0  0  0
    9.4205   -5.7095   28.4405 H   0  0  0  0  0  0  0  0  0  0  0  0
   10.9226   -5.4087   27.5681 H   0  0  0  0  0  0  0  0  0  0  0  0
    9.7351   -6.9285   25.9175 C   0  0  0  0  0  0  0  0  0  0  0  0
   10.8216   -7.0183   26.1145 H   0  0  0  0  0  0  0  0  0  0  0  0
    9.2416   -7.7592   26.4249 H   0  0  0  0  0  0  0  0  0  0  0  0
    9.5809   -7.0658   24.8456 H   0  0  0  0  0  0  0  0  0  0  0  0
   10.3772   -4.1702   24.7456 C   0  0  0  0  0  0  0  0  0  0  0  0
   10.9348   -3.7119   25.5623 H   0  0  0  0  0  0  0  0  0  0  0  0
   10.9744   -5.0254   24.4180 H   0  0  0  0  0  0  0  0  0  0  0  0
   10.1736   -3.1700   23.6151 C   0  0  0  0  0  0  0  0  0  0  0  0
    9.8469   -3.7298   22.7283 H   0  0  0  0  0  0  0  0  0  0  0  0
   11.1125   -2.6661   23.3444 H   0  0  0  0  0  0  0  0  0  0  0  0
    7.0058   -1.4937   22.8477 C   0  0  0  0  0  0  0  0  0  0  0  0
    6.4005   -1.8581   23.6714 H   0  0  0  0  0  0  0  0  0  0  0  0
    6.3566   -0.9618   21.7973 N   0  0  0  0  0  0  0  0  0  0  0  0
    7.1131   -0.5135   20.7661 C   0  0  0  0  0  0  0  0  0  0  0  0
    6.4190    0.1220   19.6121 C   0  0  0  0  0  0  0  0  0  0  0  0
    6.9870    0.0696   18.3244 C   0  0  0  0  0  0  0  0  0  0  0  0
    7.8802   -0.5248   18.1375 H   0  0  0  0  0  0  0  0  0  0  0  0
    6.5048    0.7115   17.2551 N   0  0  0  0  0  0  0  0  0  0  0  0
    5.4024    1.4536   17.4278 C   0  0  0  0  0  0  0  0  0  0  0  0
    5.0443    1.9952   16.5529 H   0  0  0  0  0  0  0  0  0  0  0  0
    4.7193    1.5343   18.6449 C   0  0  0  0  0  0  0  0  0  0  0  0
    3.8288    2.1475   18.7151 H   0  0  0  0  0  0  0  0  0  0  0  0
    5.2206    0.8441   19.7503 C   0  0  0  0  0  0  0  0  0  0  0  0
    4.6990    0.8707   20.7062 H   0  0  0  0  0  0  0  0  0  0  0  0
  1  2  1  0
  2  3  2  0
  3  4  1  0
  4  5  1  0
  5  6  1  0
  6  7  1  0
  6  8  1  0
  6  9  1  0
  9 10  1  0
  9 11  1  0
  9 12  1  0
 12 13  1  0
 12 14  1  0
 14 15  1  0
 15 16  1  0
 15 17  1  0
 15 18  1  0
 14 19  1  0
 19 20  1  0
 19 21  1  0
 19 22  1  0
 12 23  1  0
 23 24  1  0
 23 25  1  0
 23 26  1  0
 26 27  1  0
 26 28  1  0
  4 29  2  0
 29 30  1  0
 29 31  1  0
 31 32  2  0
 32 33  1  0
 33 34  2  0
 34 35  1  0
 34 36  1  0
 36 37  2  0
 37 38  1  0
 37 39  1  0
 39 40  1  0
 39 41  2  0
 41 42  1  0
 32  2  1  0
 41 33  1  0
 26  5  1  0
M  END
>  <cnnaffinity>  (1) 
-5.17431

>  <filename>  (1) 
CN(C)C1CCN(c2cnc(-c3cccnc3)cn2)CC1

$$$$
