
     RDKit          3D

 34 35  0  0  0  0  0  0  0  0999 V2000
    6.7779   -1.6526   21.7465 C   0  0  0  0  0  0  0  0  0  0  0  0
    7.4732   -0.6908   20.8821 N   0  0  0  0  0  0  0  0  0  0  0  0
    8.7874   -0.2701   21.1412 C   0  0  0  0  0  0  0  0  0  0  0  0
    9.2821    0.7075   20.6047 O   0  0  0  0  0  0  0  0  0  0  0  0
    9.4869   -1.1097   21.9950 N   0  0  0  0  0  0  0  0  0  0  0  0
   10.7227   -0.6063   22.5781 C   0  0  0  0  0  0  0  0  0  0  0  0
   10.4267    0.5363   23.5592 C   0  0  0  0  0  0  0  0  0  0  0  0
    9.5754    0.0696   24.7009 C   0  0  0  0  0  0  0  0  0  0  0  0
   10.1351   -0.3683   25.8967 C   0  0  0  0  0  0  0  0  0  0  0  0
    9.2619   -0.8930   26.8381 C   0  0  0  0  0  0  0  0  0  0  0  0
    7.9412   -0.9537   26.6350 N   0  0  0  0  0  0  0  0  0  0  0  0
    7.5085   -0.4859   25.4696 C   0  0  0  0  0  0  0  0  0  0  0  0
    8.2549   -0.0082   24.4790 N   0  0  0  0  0  0  0  0  0  0  0  0
    6.4302   -0.5255   25.3121 H   0  0  0  0  0  0  0  0  0  0  0  0
    9.5954   -1.2915   27.7965 H   0  0  0  0  0  0  0  0  0  0  0  0
   11.2020   -0.2896   26.0582 H   0  0  0  0  0  0  0  0  0  0  0  0
   11.3670    0.9687   23.9101 H   0  0  0  0  0  0  0  0  0  0  0  0
    9.8794    1.3073   23.0120 H   0  0  0  0  0  0  0  0  0  0  0  0
   11.2076   -1.4537   23.0772 H   0  0  0  0  0  0  0  0  0  0  0  0
   11.4028   -0.2787   21.7824 H   0  0  0  0  0  0  0  0  0  0  0  0
    8.8637   -1.4356   22.7180 H   0  0  0  0  0  0  0  0  0  0  0  0
    6.7325   -0.0297   19.8342 C   0  0  0  0  0  0  0  0  0  0  0  0
    5.5139    0.6055   20.1138 C   0  0  0  0  0  0  0  0  0  0  0  0
    4.8415    1.2839   19.0877 C   0  0  0  0  0  0  0  0  0  0  0  0
    5.3987    1.2864   17.8050 C   0  0  0  0  0  0  0  0  0  0  0  0
    6.5482    0.6595   17.5052 N   0  0  0  0  0  0  0  0  0  0  0  0
    7.1978    0.0365   18.4975 C   0  0  0  0  0  0  0  0  0  0  0  0
    8.1449   -0.4283   18.2305 H   0  0  0  0  0  0  0  0  0  0  0  0
    4.9165    1.8102   16.9810 H   0  0  0  0  0  0  0  0  0  0  0  0
    3.9150    1.8175   19.2711 H   0  0  0  0  0  0  0  0  0  0  0  0
    5.1383    0.5897   21.1372 H   0  0  0  0  0  0  0  0  0  0  0  0
    5.7173   -1.6596   21.4919 H   0  0  0  0  0  0  0  0  0  0  0  0
    6.8577   -1.3744   22.8058 H   0  0  0  0  0  0  0  0  0  0  0  0
    7.1548   -2.6787   21.6197 H   0  0  0  0  0  0  0  0  0  0  0  0
  1  2  1  0
  2  3  1  0
  3  4  2  0
  3  5  1  0
  5  6  1  0
  6  7  1  0
  7  8  1  0
  8  9  2  0
  9 10  1  0
 10 11  2  0
 11 12  1  0
 12 13  2  0
 12 14  1  0
 10 15  1  0
  9 16  1  0
  7 17  1  0
  7 18  1  0
  6 19  1  0
  6 20  1  0
  5 21  1  0
  2 22  1  0
 22 23  2  0
 23 24  1  0
 24 25  2  0
 25 26  1  0
 26 27  2  0
 27 28  1  0
 25 29  1  0
 24 30  1  0
 23 31  1  0
  1 32  1  0
  1 33  1  0
  1 34  1  0
 13  8  1  0
 27 22  1  0
M  END
>  <cnnaffinity>  (1) 
-4.96448

>  <filename>  (1) 
CN(C(=O)NCCc1ccncn1)c1cccnc1

$$$$
