
     RDKit          3D

 36 37  0  0  0  0  0  0  0  0999 V2000
    5.3029    1.8218   16.9594 H   0  0  0  0  0  0  0  0  0  0  0  0
    5.6190    1.2397   17.8198 C   0  0  0  0  0  0  0  0  0  0  0  0
    6.7003    0.4634   17.6429 N   0  0  0  0  0  0  0  0  0  0  0  0
    7.1364   -0.2455   18.6945 C   0  0  0  0  0  0  0  0  0  0  0  0
    8.0277   -0.8556   18.5503 H   0  0  0  0  0  0  0  0  0  0  0  0
    6.5108   -0.2178   19.9633 C   0  0  0  0  0  0  0  0  0  0  0  0
    6.9430   -0.9782   21.0692 N   0  0  0  0  0  0  0  0  0  0  0  0
    6.9768   -0.4638   21.9419 H   0  0  0  0  0  0  0  0  0  0  0  0
    8.1627   -1.6565   20.9257 N   0  0  0  0  0  0  0  0  0  0  0  0
    9.0823   -1.0256   21.8516 N   0  0  0  0  0  0  0  0  0  0  0  0
   10.3118   -1.8224   21.9930 C   0  0  0  0  0  0  0  0  0  0  0  0
   11.0011   -1.3161   22.6719 H   0  0  0  0  0  0  0  0  0  0  0  0
   10.1030   -2.7947   22.4449 H   0  0  0  0  0  0  0  0  0  0  0  0
   10.8149   -1.9669   21.0213 H   0  0  0  0  0  0  0  0  0  0  0  0
    9.4527    0.3331   21.3417 C   0  0  0  0  0  0  0  0  0  0  0  0
    8.5599    0.9105   21.0524 H   0  0  0  0  0  0  0  0  0  0  0  0
   10.0562    0.2135   20.4289 H   0  0  0  0  0  0  0  0  0  0  0  0
   10.2251    1.1051   22.3925 C   0  0  0  0  0  0  0  0  0  0  0  0
   11.5478    1.5410   22.2008 C   0  0  0  0  0  0  0  0  0  0  0  0
   12.0043    1.4974   21.2154 H   0  0  0  0  0  0  0  0  0  0  0  0
   12.2918    2.0244   23.2827 C   0  0  0  0  0  0  0  0  0  0  0  0
   13.3268    2.3257   23.1527 H   0  0  0  0  0  0  0  0  0  0  0  0
   11.6956    2.1090   24.5388 C   0  0  0  0  0  0  0  0  0  0  0  0
   12.2520    2.4106   25.4006 H   0  0  0  0  0  0  0  0  0  0  0  0
   10.3538    1.7978   24.7170 C   0  0  0  0  0  0  0  0  0  0  0  0
    9.8886    1.9181   25.6914 H   0  0  0  0  0  0  0  0  0  0  0  0
    9.6212    1.3129   23.6409 C   0  0  0  0  0  0  0  0  0  0  0  0
    8.5754    1.0585   23.7745 H   0  0  0  0  0  0  0  0  0  0  0  0
    7.8849   -3.0601   21.2694 C   0  0  0  0  0  0  0  0  0  0  0  0
    8.7151   -3.7083   20.9803 H   0  0  0  0  0  0  0  0  0  0  0  0
    7.6736   -3.1745   22.3458 H   0  0  0  0  0  0  0  0  0  0  0  0
    7.0140   -3.3791   20.6969 H   0  0  0  0  0  0  0  0  0  0  0  0
    5.3700    0.5767   20.1222 C   0  0  0  0  0  0  0  0  0  0  0  0
    4.8671    0.5849   21.0903 H   0  0  0  0  0  0  0  0  0  0  0  0
    4.9231    1.3235   19.0319 C   0  0  0  0  0  0  0  0  0  0  0  0
    4.0603    1.9738   19.1092 H   0  0  0  0  0  0  0  0  0  0  0  0
  1  2  1  0
  2  3  2  0
  3  4  1  0
  4  5  1  0
  4  6  2  0
  6  7  1  0
  7  8  1  0
  7  9  1  0
  9 10  1  0
 10 11  1  0
 11 12  1  0
 11 13  1  0
 11 14  1  0
 10 15  1  0
 15 16  1  0
 15 17  1  0
 15 18  1  0
 18 19  2  0
 19 20  1  0
 19 21  1  0
 21 22  1  0
 21 23  2  0
 23 24  1  0
 23 25  1  0
 25 26  1  0
 25 27  2  0
 27 28  1  0
  9 29  1  0
 29 30  1  0
 29 31  1  0
 29 32  1  0
  6 33  1  0
 33 34  1  0
 33 35  2  0
 35 36  1  0
 35  2  1  0
 27 18  1  0
M  END
>  <cnnaffinity>  (1) 
-4.62915

>  <filename>  (1) 
CN(Cc1ccccc1)N(C)Nc1cccnc1

$$$$
