
     RDKit          3D

 30 31  0  0  0  0  0  0  0  0999 V2000
    6.4334   -0.7321   21.8346 H   0  0  0  0  0  0  0  0  0  0  0  0
    7.0882   -0.4813   21.0026 C   0  0  0  0  0  0  0  0  0  0  0  0
    8.4137   -0.5533   21.1709 C   0  0  0  0  0  0  0  0  0  0  0  0
    9.0743   -0.2033   20.3710 H   0  0  0  0  0  0  0  0  0  0  0  0
    9.0763   -0.9802   22.3164 N   0  0  0  0  0  0  0  0  0  0  0  0
   10.4835   -0.7836   22.3297 C   0  0  0  0  0  0  0  0  0  0  0  0
   11.3524   -1.8823   22.3139 C   0  0  0  0  0  0  0  0  0  0  0  0
   10.9234   -2.8784   22.3807 H   0  0  0  0  0  0  0  0  0  0  0  0
   12.7276   -1.6913   22.1464 C   0  0  0  0  0  0  0  0  0  0  0  0
   13.3728   -2.5616   22.0709 H   0  0  0  0  0  0  0  0  0  0  0  0
   13.2644   -0.4021   22.0691 C   0  0  0  0  0  0  0  0  0  0  0  0
   14.3335   -0.2405   21.9355 H   0  0  0  0  0  0  0  0  0  0  0  0
   12.3993    0.6981   22.1075 C   0  0  0  0  0  0  0  0  0  0  0  0
   12.7935    1.7036   21.9985 H   0  0  0  0  0  0  0  0  0  0  0  0
   11.0206    0.5133   22.2259 C   0  0  0  0  0  0  0  0  0  0  0  0
   10.3553    1.3725   22.2389 H   0  0  0  0  0  0  0  0  0  0  0  0
    8.4025   -1.8475   23.2674 C   0  0  0  0  0  0  0  0  0  0  0  0
    7.9555   -2.7253   22.7807 H   0  0  0  0  0  0  0  0  0  0  0  0
    9.1004   -2.1876   24.0379 H   0  0  0  0  0  0  0  0  0  0  0  0
    7.5844   -1.3203   23.7740 H   0  0  0  0  0  0  0  0  0  0  0  0
    6.4415    0.0671   19.7904 C   0  0  0  0  0  0  0  0  0  0  0  0
    7.0382    0.0716   18.5082 C   0  0  0  0  0  0  0  0  0  0  0  0
    7.9606   -0.4843   18.3376 H   0  0  0  0  0  0  0  0  0  0  0  0
    6.5341    0.7029   17.4396 N   0  0  0  0  0  0  0  0  0  0  0  0
    5.3775    1.3656   17.6114 C   0  0  0  0  0  0  0  0  0  0  0  0
    5.0076    1.9165   16.7509 H   0  0  0  0  0  0  0  0  0  0  0  0
    4.6556    1.3645   18.8090 C   0  0  0  0  0  0  0  0  0  0  0  0
    3.7206    1.9109   18.8789 H   0  0  0  0  0  0  0  0  0  0  0  0
    5.1858    0.6865   19.9059 C   0  0  0  0  0  0  0  0  0  0  0  0
    4.6546    0.6490   20.8564 H   0  0  0  0  0  0  0  0  0  0  0  0
  1  2  1  0
  2  3  2  3
  3  4  1  0
  3  5  1  0
  5  6  1  0
  6  7  2  0
  7  8  1  0
  7  9  1  0
  9 10  1  0
  9 11  2  0
 11 12  1  0
 11 13  1  0
 13 14  1  0
 13 15  2  0
 15 16  1  0
  5 17  1  0
 17 18  1  0
 17 19  1  0
 17 20  1  0
  2 21  1  0
 21 22  2  0
 22 23  1  0
 22 24  1  0
 24 25  2  0
 25 26  1  0
 25 27  1  0
 27 28  1  0
 27 29  2  0
 29 30  1  0
 15  6  1  0
 29 21  1  0
M  END
>  <cnnaffinity>  (1) 
-4.3836

>  <filename>  (1) 
CN(C=Cc1cccnc1)c1ccccc1

$$$$
