
     RDKit          3D

 35 37  0  0  0  0  0  0  0  0999 V2000
    8.6204    1.4140   24.0326 C   0  0  0  0  0  0  0  0  0  0  0  0
    8.3018    0.2194   23.2404 N   0  0  0  0  0  0  0  0  0  0  0  0
    8.2318    0.3725   21.8676 C   0  0  0  0  0  0  0  0  0  0  0  0
    8.7663    1.3101   21.3009 O   0  0  0  0  0  0  0  0  0  0  0  0
    7.3859   -0.6707   21.0116 C   0  0  0  0  0  0  0  0  0  0  0  0
    8.2674   -1.6025   20.5227 F   0  0  0  0  0  0  0  0  0  0  0  0
    6.5076   -1.3713   21.7928 F   0  0  0  0  0  0  0  0  0  0  0  0
    6.6311   -0.0183   19.8820 C   0  0  0  0  0  0  0  0  0  0  0  0
    5.4307    0.6462   20.1550 C   0  0  0  0  0  0  0  0  0  0  0  0
    4.8049    1.3151   19.1049 C   0  0  0  0  0  0  0  0  0  0  0  0
    5.4042    1.2922   17.8404 C   0  0  0  0  0  0  0  0  0  0  0  0
    6.5656    0.6759   17.5769 N   0  0  0  0  0  0  0  0  0  0  0  0
    7.1653    0.0419   18.5909 C   0  0  0  0  0  0  0  0  0  0  0  0
    8.1214   -0.4290   18.3725 H   0  0  0  0  0  0  0  0  0  0  0  0
    4.9207    1.7803   16.9977 H   0  0  0  0  0  0  0  0  0  0  0  0
    3.8742    1.8466   19.2579 H   0  0  0  0  0  0  0  0  0  0  0  0
    5.0099    0.6314   21.1641 H   0  0  0  0  0  0  0  0  0  0  0  0
    8.3765   -1.0621   23.8597 C   0  0  0  0  0  0  0  0  0  0  0  0
    9.3299   -2.0157   23.3940 C   0  0  0  0  0  0  0  0  0  0  0  0
    9.4307   -3.2632   23.9950 C   0  0  0  0  0  0  0  0  0  0  0  0
    8.5736   -3.5830   25.0648 C   0  0  0  0  0  0  0  0  0  0  0  0
    8.3964   -4.7468   25.8878 C   0  0  0  0  0  0  0  0  0  0  0  0
    7.4028   -4.4692   26.7811 C   0  0  0  0  0  0  0  0  0  0  0  0
    6.9462   -3.1809   26.5579 N   0  0  0  0  0  0  0  0  0  0  0  0
    7.6383   -2.6186   25.5145 C   0  0  0  0  0  0  0  0  0  0  0  0
    7.5312   -1.3479   24.9281 C   0  0  0  0  0  0  0  0  0  0  0  0
    6.8100   -0.6150   25.2857 H   0  0  0  0  0  0  0  0  0  0  0  0
    6.2171   -2.7073   27.0590 H   0  0  0  0  0  0  0  0  0  0  0  0
    6.9788   -5.0928   27.5648 H   0  0  0  0  0  0  0  0  0  0  0  0
    8.9623   -5.6627   25.7962 H   0  0  0  0  0  0  0  0  0  0  0  0
   10.1464   -4.0069   23.6555 H   0  0  0  0  0  0  0  0  0  0  0  0
   10.0016   -1.7557   22.5764 H   0  0  0  0  0  0  0  0  0  0  0  0
    8.3826    1.2380   25.0845 H   0  0  0  0  0  0  0  0  0  0  0  0
    8.0204    2.2590   23.6828 H   0  0  0  0  0  0  0  0  0  0  0  0
    9.6800    1.6818   23.9444 H   0  0  0  0  0  0  0  0  0  0  0  0
  1  2  1  0
  2  3  1  0
  3  4  2  0
  3  5  1  0
  5  6  1  0
  5  7  1  0
  5  8  1  0
  8  9  2  0
  9 10  1  0
 10 11  2  0
 11 12  1  0
 12 13  2  0
 13 14  1  0
 11 15  1  0
 10 16  1  0
  9 17  1  0
  2 18  1  0
 18 19  2  0
 19 20  1  0
 20 21  2  0
 21 22  1  0
 22 23  2  0
 23 24  1  0
 24 25  1  0
 25 26  2  0
 26 27  1  0
 24 28  1  0
 23 29  1  0
 22 30  1  0
 20 31  1  0
 19 32  1  0
  1 33  1  0
  1 34  1  0
  1 35  1  0
 13  8  1  0
 26 18  1  0
 25 21  1  0
M  END
>  <cnnaffinity>  (1) 
-5.38173

>  <filename>  (1) 
CN(C(=O)C(F)(F)c1cccnc1)c1ccc2cc[nH]c2c1

$$$$
