
     RDKit          3D

 36 38  0  0  0  0  0  0  0  0999 V2000
    6.6549   -1.6533   21.7574 C   0  0  0  0  0  0  0  0  0  0  0  0
    7.4004   -0.6706   20.9643 N   0  0  0  0  0  0  0  0  0  0  0  0
    8.6935   -0.2546   21.2752 C   0  0  0  0  0  0  0  0  0  0  0  0
    9.2142    0.6974   20.7253 O   0  0  0  0  0  0  0  0  0  0  0  0
    9.4917   -1.0571   22.2726 C   0  0  0  0  0  0  0  0  0  0  0  0
    9.0393   -0.7850   23.6448 C   0  0  0  0  0  0  0  0  0  0  0  0
    8.7223   -1.6670   24.5199 N   0  0  0  0  0  0  0  0  0  0  0  0
    8.3823   -0.9688   25.6638 N   0  0  0  0  0  0  0  0  0  0  0  0
    8.5278    0.2908   25.3976 C   0  0  0  0  0  0  0  0  0  0  0  0
    8.2693    1.4322   26.3065 C   0  0  0  0  0  0  0  0  0  0  0  0
    8.4571    2.7672   25.8989 C   0  0  0  0  0  0  0  0  0  0  0  0
    8.1737    3.8154   26.7802 C   0  0  0  0  0  0  0  0  0  0  0  0
    7.6838    3.5469   28.0653 C   0  0  0  0  0  0  0  0  0  0  0  0
    7.5371    2.2225   28.4948 C   0  0  0  0  0  0  0  0  0  0  0  0
    7.8163    1.1704   27.6200 C   0  0  0  0  0  0  0  0  0  0  0  0
    7.6802    0.1383   27.9427 H   0  0  0  0  0  0  0  0  0  0  0  0
    7.2185    2.0056   29.5141 H   0  0  0  0  0  0  0  0  0  0  0  0
    7.5306    4.3621   28.7688 H   0  0  0  0  0  0  0  0  0  0  0  0
    8.3452    4.8440   26.4686 H   0  0  0  0  0  0  0  0  0  0  0  0
    8.8071    2.9891   24.8915 H   0  0  0  0  0  0  0  0  0  0  0  0
    8.9514    0.4806   24.1068 O   0  0  0  0  0  0  0  0  0  0  0  0
   10.5276   -0.7461   22.1487 H   0  0  0  0  0  0  0  0  0  0  0  0
    9.4284   -2.1290   22.1000 H   0  0  0  0  0  0  0  0  0  0  0  0
    6.6866    0.0146   19.9105 C   0  0  0  0  0  0  0  0  0  0  0  0
    5.4558    0.6382   20.1627 C   0  0  0  0  0  0  0  0  0  0  0  0
    4.8143    1.3066   19.1106 C   0  0  0  0  0  0  0  0  0  0  0  0
    5.3977    1.2944   17.8383 C   0  0  0  0  0  0  0  0  0  0  0  0
    6.5563    0.6698   17.5701 N   0  0  0  0  0  0  0  0  0  0  0  0
    7.1799    0.0656   18.5884 C   0  0  0  0  0  0  0  0  0  0  0  0
    8.1237   -0.4185   18.3608 H   0  0  0  0  0  0  0  0  0  0  0  0
    4.9136    1.7853   16.9947 H   0  0  0  0  0  0  0  0  0  0  0  0
    3.8798    1.8370   19.2637 H   0  0  0  0  0  0  0  0  0  0  0  0
    5.0267    0.6158   21.1686 H   0  0  0  0  0  0  0  0  0  0  0  0
    7.2112   -2.5899   21.8767 H   0  0  0  0  0  0  0  0  0  0  0  0
    6.3826   -1.2738   22.7504 H   0  0  0  0  0  0  0  0  0  0  0  0
    5.7332   -1.9023   21.2260 H   0  0  0  0  0  0  0  0  0  0  0  0
  1  2  1  0
  2  3  1  0
  3  4  2  0
  3  5  1  0
  5  6  1  0
  6  7  2  0
  7  8  1  0
  8  9  2  0
  9 10  1  0
 10 11  2  0
 11 12  1  0
 12 13  2  0
 13 14  1  0
 14 15  2  0
 15 16  1  0
 14 17  1  0
 13 18  1  0
 12 19  1  0
 11 20  1  0
  9 21  1  0
  5 22  1  0
  5 23  1  0
  2 24  1  0
 24 25  2  0
 25 26  1  0
 26 27  2  0
 27 28  1  0
 28 29  2  0
 29 30  1  0
 27 31  1  0
 26 32  1  0
 25 33  1  0
  1 34  1  0
  1 35  1  0
  1 36  1  0
 21  6  1  0
 29 24  1  0
 15 10  1  0
M  END
>  <cnnaffinity>  (1) 
-5.15238

>  <filename>  (1) 
CN(C(=O)Cc1nnc(-c2ccccc2)o1)c1cccnc1

$$$$
