
     RDKit          3D

 38 40  0  0  0  0  0  0  0  0999 V2000
    4.9877    1.8162   16.8890 H   0  0  0  0  0  0  0  0  0  0  0  0
    5.4270    1.3199   17.7519 C   0  0  0  0  0  0  0  0  0  0  0  0
    6.5859    0.6811   17.5353 N   0  0  0  0  0  0  0  0  0  0  0  0
    7.1525    0.0619   18.5720 C   0  0  0  0  0  0  0  0  0  0  0  0
    8.0931   -0.4525   18.3831 H   0  0  0  0  0  0  0  0  0  0  0  0
    6.5960    0.0339   19.8606 C   0  0  0  0  0  0  0  0  0  0  0  0
    7.3515   -0.6837   20.8778 C   0  0  0  0  0  0  0  0  0  0  0  0
    8.5948   -1.0754   20.7320 N   0  0  0  0  0  0  0  0  0  0  0  0
    8.9321   -1.7035   21.9027 C   0  0  0  0  0  0  0  0  0  0  0  0
    9.9117   -2.1453   22.0630 H   0  0  0  0  0  0  0  0  0  0  0  0
    7.8605   -1.7043   22.7650 C   0  0  0  0  0  0  0  0  0  0  0  0
    7.6647   -2.1955   24.0251 N   0  0  0  0  0  0  0  0  0  0  0  0
    6.3514   -2.2559   24.6443 C   0  0  0  0  0  0  0  0  0  0  0  0
    6.0762   -1.2681   25.0398 H   0  0  0  0  0  0  0  0  0  0  0  0
    5.5856   -2.5421   23.9080 H   0  0  0  0  0  0  0  0  0  0  0  0
    6.4951   -3.3050   25.7464 C   0  0  0  0  0  0  0  0  0  0  0  0
    6.1545   -4.2758   25.3739 H   0  0  0  0  0  0  0  0  0  0  0  0
    5.8839   -3.0447   26.6144 H   0  0  0  0  0  0  0  0  0  0  0  0
    7.9986   -3.3744   26.0673 C   0  0  1  0  0  0  0  0  0  0  0  0
    8.2280   -2.5490   26.7733 H   0  0  0  0  0  0  0  0  0  0  0  0
    8.4636   -4.6690   26.5909 N   0  0  0  0  0  0  0  0  0  0  0  0
    9.8770   -4.6234   26.9470 C   0  0  0  0  0  0  0  0  0  0  0  0
   10.2458   -5.6114   27.2578 H   0  0  0  0  0  0  0  0  0  0  0  0
   10.0512   -3.9196   27.7725 H   0  0  0  0  0  0  0  0  0  0  0  0
   10.4895   -4.3175   26.0889 H   0  0  0  0  0  0  0  0  0  0  0  0
    7.6559   -5.2137   27.6776 C   0  0  0  0  0  0  0  0  0  0  0  0
    8.1532   -6.0992   28.0862 H   0  0  0  0  0  0  0  0  0  0  0  0
    7.4821   -4.5057   28.5059 H   0  0  0  0  0  0  0  0  0  0  0  0
    6.6867   -5.5496   27.2961 H   0  0  0  0  0  0  0  0  0  0  0  0
    8.6453   -3.0367   24.7043 C   0  0  0  0  0  0  0  0  0  0  0  0
    8.8392   -3.9770   24.1627 H   0  0  0  0  0  0  0  0  0  0  0  0
    9.6109   -2.5269   24.8412 H   0  0  0  0  0  0  0  0  0  0  0  0
    6.8550   -1.0316   22.1007 N   0  0  0  0  0  0  0  0  0  0  0  0
    5.8963   -1.0011   22.4048 H   0  0  0  0  0  0  0  0  0  0  0  0
    5.3805    0.7044   20.0759 C   0  0  0  0  0  0  0  0  0  0  0  0
    4.9097    0.7310   21.0619 H   0  0  0  0  0  0  0  0  0  0  0  0
    4.7889    1.3598   18.9978 C   0  0  0  0  0  0  0  0  0  0  0  0
    3.8552    1.9013   19.1087 H   0  0  0  0  0  0  0  0  0  0  0  0
  1  2  1  0
  2  3  2  0
  3  4  1  0
  4  5  1  0
  4  6  2  0
  6  7  1  0
  7  8  2  0
  8  9  1  0
  9 10  1  0
  9 11  2  0
 11 12  1  0
 12 13  1  0
 13 14  1  0
 13 15  1  0
 13 16  1  0
 16 17  1  0
 16 18  1  0
 16 19  1  0
 19 20  1  1
 19 21  1  0
 21 22  1  0
 22 23  1  0
 22 24  1  0
 22 25  1  0
 21 26  1  0
 26 27  1  0
 26 28  1  0
 26 29  1  0
 19 30  1  0
 30 31  1  0
 30 32  1  0
 11 33  1  0
 33 34  1  0
  6 35  1  0
 35 36  1  0
 35 37  2  0
 37 38  1  0
 37  2  1  0
 33  7  1  0
 30 12  1  0
M  END
>  <cnnaffinity>  (1) 
-4.98119

>  <filename>  (1) 
CN(C)[C@@H]1CCN(c2cnc(-c3cccnc3)[nH]2)C1

$$$$
