
     RDKit          3D

 43 45  0  0  0  0  0  0  0  0999 V2000
    4.9380    1.7570   16.9200 H   0  0  0  0  0  0  0  0  0  0  0  0
    5.4295    1.3073   17.7814 C   0  0  0  0  0  0  0  0  0  0  0  0
    6.6076    0.7070   17.5507 N   0  0  0  0  0  0  0  0  0  0  0  0
    7.2351    0.1415   18.5923 C   0  0  0  0  0  0  0  0  0  0  0  0
    8.1808   -0.3501   18.3710 H   0  0  0  0  0  0  0  0  0  0  0  0
    6.7463    0.1649   19.9217 C   0  0  0  0  0  0  0  0  0  0  0  0
    7.4279   -0.4886   21.0054 N   0  0  0  0  0  0  0  0  0  0  0  0
    7.5777    0.0407   22.3022 C   0  0  0  0  0  0  0  0  0  0  0  0
    7.8158   -0.6797   23.2544 O   0  0  0  0  0  0  0  0  0  0  0  0
    7.4858    1.4073   22.4132 N   0  0  0  0  0  0  0  0  0  0  0  0
    7.4182    1.9362   21.5613 H   0  0  0  0  0  0  0  0  0  0  0  0
    7.4106    2.1023   23.6419 C   0  0  0  0  0  0  0  0  0  0  0  0
    6.7624    1.5314   24.7493 C   0  0  0  0  0  0  0  0  0  0  0  0
    6.3668    0.5244   24.6691 H   0  0  0  0  0  0  0  0  0  0  0  0
    6.6275    2.2680   25.9215 C   0  0  0  0  0  0  0  0  0  0  0  0
    6.0969    1.8662   26.7788 H   0  0  0  0  0  0  0  0  0  0  0  0
    7.1933    3.5501   26.0438 C   0  0  0  0  0  0  0  0  0  0  0  0
    7.0226    4.2257   27.2712 N   0  0  0  0  0  0  0  0  0  0  0  0
    7.9339    5.3046   27.6505 C   0  0  0  0  0  0  0  0  0  0  0  0
    8.9647    5.0279   27.3983 H   0  0  0  0  0  0  0  0  0  0  0  0
    7.6956    6.2450   27.1211 H   0  0  0  0  0  0  0  0  0  0  0  0
    7.7955    5.5607   29.1574 C   0  0  0  0  0  0  0  0  0  0  0  0
    8.4199    6.4059   29.4579 H   0  0  0  0  0  0  0  0  0  0  0  0
    8.1135    4.6679   29.7155 H   0  0  0  0  0  0  0  0  0  0  0  0
    6.4566    5.8901   29.5105 O   0  0  0  0  0  0  0  0  0  0  0  0
    5.5520    4.8616   29.1209 C   0  0  0  0  0  0  0  0  0  0  0  0
    4.5535    5.2201   29.3798 H   0  0  0  0  0  0  0  0  0  0  0  0
    5.7453    3.9317   29.6826 H   0  0  0  0  0  0  0  0  0  0  0  0
    5.6408    4.5724   27.6228 C   0  0  0  0  0  0  0  0  0  0  0  0
    5.2990    5.4544   27.0514 H   0  0  0  0  0  0  0  0  0  0  0  0
    4.9735    3.7414   27.3742 H   0  0  0  0  0  0  0  0  0  0  0  0
    7.8674    4.0964   24.9403 C   0  0  0  0  0  0  0  0  0  0  0  0
    8.2956    5.0877   25.0318 H   0  0  0  0  0  0  0  0  0  0  0  0
    7.9584    3.3851   23.7380 C   0  0  0  0  0  0  0  0  0  0  0  0
    8.4591    3.8115   22.8729 H   0  0  0  0  0  0  0  0  0  0  0  0
    7.7255   -1.9264   20.8523 C   0  0  0  0  0  0  0  0  0  0  0  0
    7.6405   -2.4380   21.8149 H   0  0  0  0  0  0  0  0  0  0  0  0
    7.0034   -2.3689   20.1612 H   0  0  0  0  0  0  0  0  0  0  0  0
    8.7430   -2.0940   20.4762 H   0  0  0  0  0  0  0  0  0  0  0  0
    5.5134    0.8003   20.1372 C   0  0  0  0  0  0  0  0  0  0  0  0
    5.1072    0.8476   21.1477 H   0  0  0  0  0  0  0  0  0  0  0  0
    4.8377    1.3663   19.0492 C   0  0  0  0  0  0  0  0  0  0  0  0
    3.8828    1.8651   19.1814 H   0  0  0  0  0  0  0  0  0  0  0  0
  1  2  1  0
  2  3  2  0
  3  4  1  0
  4  5  1  0
  4  6  2  0
  6  7  1  0
  7  8  1  0
  8  9  2  0
  8 10  1  0
 10 11  1  0
 10 12  1  0
 12 13  2  0
 13 14  1  0
 13 15  1  0
 15 16  1  0
 15 17  2  0
 17 18  1  0
 18 19  1  0
 19 20  1  0
 19 21  1  0
 19 22  1  0
 22 23  1  0
 22 24  1  0
 22 25  1  0
 25 26  1  0
 26 27  1  0
 26 28  1  0
 26 29  1  0
 29 30  1  0
 29 31  1  0
 17 32  1  0
 32 33  1  0
 32 34  2  0
 34 35  1  0
  7 36  1  0
 36 37  1  0
 36 38  1  0
 36 39  1  0
  6 40  1  0
 40 41  1  0
 40 42  2  0
 42 43  1  0
 42  2  1  0
 34 12  1  0
 29 18  1  0
M  END
>  <cnnaffinity>  (1) 
-4.33498

>  <filename>  (1) 
CN(C(=O)Nc1ccc(N2CCOCC2)cc1)c1cccnc1

$$$$
