
     RDKit          3D

 37 39  0  0  0  0  0  0  0  0999 V2000
    4.9488    1.7990   16.9975 H   0  0  0  0  0  0  0  0  0  0  0  0
    5.4241    1.2919   17.8338 C   0  0  0  0  0  0  0  0  0  0  0  0
    6.5920    0.6799   17.5749 N   0  0  0  0  0  0  0  0  0  0  0  0
    7.1994    0.0458   18.5907 C   0  0  0  0  0  0  0  0  0  0  0  0
    8.1414   -0.4536   18.3719 H   0  0  0  0  0  0  0  0  0  0  0  0
    6.6779   -0.0208   19.9039 C   0  0  0  0  0  0  0  0  0  0  0  0
    7.2827   -0.7437   20.9219 N   0  0  0  0  0  0  0  0  0  0  0  0
    6.9036   -0.6025   21.8564 H   0  0  0  0  0  0  0  0  0  0  0  0
    8.6053   -1.1730   20.7998 N   0  0  0  0  0  0  0  0  0  0  0  0
    8.7620   -2.4708   21.4396 C   0  0  0  0  0  0  0  0  0  0  0  0
    9.7923   -2.8137   21.2935 H   0  0  0  0  0  0  0  0  0  0  0  0
    8.5441   -2.4563   22.5234 H   0  0  0  0  0  0  0  0  0  0  0  0
    8.0783   -3.1698   20.9536 H   0  0  0  0  0  0  0  0  0  0  0  0
    9.5985   -0.1664   21.2194 C   0  0  0  0  0  0  0  0  0  0  0  0
   10.5885   -0.6029   21.0397 H   0  0  0  0  0  0  0  0  0  0  0  0
    9.5008    0.6932   20.5455 H   0  0  0  0  0  0  0  0  0  0  0  0
    9.4614    0.2924   22.6648 C   0  0  0  0  0  0  0  0  0  0  0  0
   10.1248   -0.4094   23.7174 C   0  0  0  0  0  0  0  0  0  0  0  0
   10.7766   -1.2483   23.4742 H   0  0  0  0  0  0  0  0  0  0  0  0
    9.8905   -0.0882   25.0333 C   0  0  0  0  0  0  0  0  0  0  0  0
   10.3925   -0.6099   25.8410 H   0  0  0  0  0  0  0  0  0  0  0  0
    8.9643    0.9372   25.3829 C   0  0  0  0  0  0  0  0  0  0  0  0
    8.6489    1.2341   26.7409 C   0  0  0  0  0  0  0  0  0  0  0  0
    9.0325    0.5782   27.5219 H   0  0  0  0  0  0  0  0  0  0  0  0
    7.8715    2.3235   27.0502 C   0  0  0  0  0  0  0  0  0  0  0  0
    7.7450    2.6231   28.0849 H   0  0  0  0  0  0  0  0  0  0  0  0
    7.2589    3.0895   26.0192 C   0  0  0  0  0  0  0  0  0  0  0  0
    6.6059    3.9151   26.2861 H   0  0  0  0  0  0  0  0  0  0  0  0
    7.4595    2.7644   24.6963 C   0  0  0  0  0  0  0  0  0  0  0  0
    6.9342    3.3024   23.9097 H   0  0  0  0  0  0  0  0  0  0  0  0
    8.3396    1.6954   24.3409 C   0  0  0  0  0  0  0  0  0  0  0  0
    8.6012    1.3264   22.9862 C   0  0  0  0  0  0  0  0  0  0  0  0
    8.0620    1.8371   22.1934 H   0  0  0  0  0  0  0  0  0  0  0  0
    5.4591    0.6335   20.1505 C   0  0  0  0  0  0  0  0  0  0  0  0
    5.0309    0.6128   21.1535 H   0  0  0  0  0  0  0  0  0  0  0  0
    4.8240    1.2982   19.1000 C   0  0  0  0  0  0  0  0  0  0  0  0
    3.8838    1.8236   19.2511 H   0  0  0  0  0  0  0  0  0  0  0  0
  1  2  1  0
  2  3  2  0
  3  4  1  0
  4  5  1  0
  4  6  2  0
  6  7  1  0
  7  8  1  0
  7  9  1  0
  9 10  1  0
 10 11  1  0
 10 12  1  0
 10 13  1  0
  9 14  1  0
 14 15  1  0
 14 16  1  0
 14 17  1  0
 17 18  2  0
 18 19  1  0
 18 20  1  0
 20 21  1  0
 20 22  2  0
 22 23  1  0
 23 24  1  0
 23 25  2  0
 25 26  1  0
 25 27  1  0
 27 28  1  0
 27 29  2  0
 29 30  1  0
 29 31  1  0
 31 32  2  0
 32 33  1  0
  6 34  1  0
 34 35  1  0
 34 36  2  0
 36 37  1  0
 36  2  1  0
 32 17  1  0
 31 22  1  0
M  END
>  <cnnaffinity>  (1) 
-4.70318

>  <filename>  (1) 
CN(Cc1ccc2ccccc2c1)Nc1cccnc1

$$$$
