
     RDKit          3D

 35 37  0  0  0  0  0  0  0  0999 V2000
    4.9890    1.7914   17.0963 H   0  0  0  0  0  0  0  0  0  0  0  0
    5.4793    1.2456   17.9005 C   0  0  0  0  0  0  0  0  0  0  0  0
    6.6363    0.6439   17.5809 N   0  0  0  0  0  0  0  0  0  0  0  0
    7.2731   -0.0319   18.5429 C   0  0  0  0  0  0  0  0  0  0  0  0
    8.2305   -0.4836   18.2872 H   0  0  0  0  0  0  0  0  0  0  0  0
    6.7740   -0.1742   19.8559 C   0  0  0  0  0  0  0  0  0  0  0  0
    7.5026   -0.9125   20.8546 N   0  0  0  0  0  0  0  0  0  0  0  0
    6.9272   -1.8575   21.7179 C   0  0  0  0  0  0  0  0  0  0  0  0
    5.8786   -2.4239   21.5456 O   0  0  0  0  0  0  0  0  0  0  0  0
    7.8428   -2.0232   22.7595 N   0  0  0  0  0  0  0  0  0  0  0  0
    7.5800   -2.5227   24.0056 N   0  0  0  0  0  0  0  0  0  0  0  0
    8.1859   -3.7330   24.4125 C   0  0  0  0  0  0  0  0  0  0  0  0
    8.2615   -4.8253   23.5262 C   0  0  0  0  0  0  0  0  0  0  0  0
    7.8582   -4.7081   22.5261 H   0  0  0  0  0  0  0  0  0  0  0  0
    8.8321   -6.0262   23.9504 C   0  0  0  0  0  0  0  0  0  0  0  0
    8.8937   -6.8594   23.2535 H   0  0  0  0  0  0  0  0  0  0  0  0
    9.3214   -6.1536   25.2549 C   0  0  0  0  0  0  0  0  0  0  0  0
    9.7527   -7.0931   25.5937 H   0  0  0  0  0  0  0  0  0  0  0  0
    9.2644   -5.0654   26.1316 C   0  0  0  0  0  0  0  0  0  0  0  0
    9.6211   -5.1777   27.1538 H   0  0  0  0  0  0  0  0  0  0  0  0
    8.6948   -3.8573   25.7193 C   0  0  0  0  0  0  0  0  0  0  0  0
    8.6468   -2.9963   26.3873 H   0  0  0  0  0  0  0  0  0  0  0  0
    6.6954   -1.7691   24.8890 C   0  0  0  0  0  0  0  0  0  0  0  0
    6.1629   -2.4564   25.5586 H   0  0  0  0  0  0  0  0  0  0  0  0
    7.2390   -1.0302   25.4995 H   0  0  0  0  0  0  0  0  0  0  0  0
    5.9380   -1.2434   24.2980 H   0  0  0  0  0  0  0  0  0  0  0  0
    9.1235   -1.4186   22.4735 C   0  0  0  0  0  0  0  0  0  0  0  0
    9.4682   -0.7560   23.2711 H   0  0  0  0  0  0  0  0  0  0  0  0
    9.9099   -2.1526   22.2675 H   0  0  0  0  0  0  0  0  0  0  0  0
    8.8132   -0.6371   21.2316 C   0  0  0  0  0  0  0  0  0  0  0  0
    9.5731    0.0937   20.6498 O   0  0  0  0  0  0  0  0  0  0  0  0
    5.5685    0.4587   20.1799 C   0  0  0  0  0  0  0  0  0  0  0  0
    5.1685    0.3977   21.1917 H   0  0  0  0  0  0  0  0  0  0  0  0
    4.9160    1.1879   19.1781 C   0  0  0  0  0  0  0  0  0  0  0  0
    3.9929    1.7201   19.3737 H   0  0  0  0  0  0  0  0  0  0  0  0
  1  2  1  0
  2  3  2  0
  3  4  1  0
  4  5  1  0
  4  6  2  0
  6  7  1  0
  7  8  1  0
  8  9  2  0
  8 10  1  0
 10 11  1  0
 11 12  1  0
 12 13  2  0
 13 14  1  0
 13 15  1  0
 15 16  1  0
 15 17  2  0
 17 18  1  0
 17 19  1  0
 19 20  1  0
 19 21  2  0
 21 22  1  0
 11 23  1  0
 23 24  1  0
 23 25  1  0
 23 26  1  0
 10 27  1  0
 27 28  1  0
 27 29  1  0
 27 30  1  0
 30 31  2  0
  6 32  1  0
 32 33  1  0
 32 34  2  0
 34 35  1  0
 34  2  1  0
 30  7  1  0
 21 12  1  0
M  END
>  <cnnaffinity>  (1) 
-5.08997

>  <filename>  (1) 
CN(c1ccccc1)N1CC(=O)N(c2cccnc2)C1=O

$$$$
