
     RDKit          3D

 41 43  0  0  0  0  0  0  0  0999 V2000
    4.9195    1.7920   16.9909 H   0  0  0  0  0  0  0  0  0  0  0  0
    5.3955    1.2968   17.8357 C   0  0  0  0  0  0  0  0  0  0  0  0
    6.5577    0.6763   17.5739 N   0  0  0  0  0  0  0  0  0  0  0  0
    7.1691    0.0526   18.5949 C   0  0  0  0  0  0  0  0  0  0  0  0
    8.1189   -0.4269   18.3709 H   0  0  0  0  0  0  0  0  0  0  0  0
    6.6631   -0.0272   19.9194 C   0  0  0  0  0  0  0  0  0  0  0  0
    7.3382   -0.7197   20.9418 N   0  0  0  0  0  0  0  0  0  0  0  0
    6.8099   -1.1646   21.6881 H   0  0  0  0  0  0  0  0  0  0  0  0
    8.6927   -0.5507   21.2426 C   0  0  0  0  0  0  0  0  0  0  0  0
    9.6393    0.3539   20.7117 C   0  0  0  0  0  0  0  0  0  0  0  0
    9.4659    1.0723   19.9367 H   0  0  0  0  0  0  0  0  0  0  0  0
   10.8348    0.2299   21.2780 N   0  0  0  0  0  0  0  0  0  0  0  0
   10.6584   -0.7599   22.1628 N   0  0  0  0  0  0  0  0  0  0  0  0
   11.4331   -1.0056   22.7572 H   0  0  0  0  0  0  0  0  0  0  0  0
    9.3977   -1.2591   22.1976 C   0  0  0  0  0  0  0  0  0  0  0  0
    8.9135   -2.3014   23.1452 C   0  0  0  0  0  0  0  0  0  0  0  0
    9.7465   -2.6554   23.7896 H   0  0  0  0  0  0  0  0  0  0  0  0
    8.5727   -3.1696   22.5661 H   0  0  0  0  0  0  0  0  0  0  0  0
    7.7759   -1.8087   23.9149 N   0  0  0  0  0  0  0  0  0  0  0  0
    7.0195   -2.8939   24.5232 C   0  0  0  0  0  0  0  0  0  0  0  0
    6.6126   -3.5441   23.7411 H   0  0  0  0  0  0  0  0  0  0  0  0
    6.1797   -2.4850   25.0909 H   0  0  0  0  0  0  0  0  0  0  0  0
    7.6294   -3.5101   25.2151 H   0  0  0  0  0  0  0  0  0  0  0  0
    8.1693   -0.8058   24.9217 C   0  0  0  0  0  0  0  0  0  0  0  0
    9.0299   -0.2425   24.5537 H   0  0  0  0  0  0  0  0  0  0  0  0
    8.5196   -1.2860   25.8553 H   0  0  0  0  0  0  0  0  0  0  0  0
    7.0489    0.1696   25.2153 C   0  0  0  0  0  0  0  0  0  0  0  0
    6.3538    0.1432   26.4330 C   0  0  0  0  0  0  0  0  0  0  0  0
    6.6392   -0.5801   27.1981 H   0  0  0  0  0  0  0  0  0  0  0  0
    5.2925    1.0253   26.6646 C   0  0  0  0  0  0  0  0  0  0  0  0
    4.7571    0.9850   27.6113 H   0  0  0  0  0  0  0  0  0  0  0  0
    4.9225    1.9466   25.6801 C   0  0  0  0  0  0  0  0  0  0  0  0
    4.0976    2.6335   25.8570 H   0  0  0  0  0  0  0  0  0  0  0  0
    5.6182    1.9879   24.4649 C   0  0  0  0  0  0  0  0  0  0  0  0
    5.3355    2.7016   23.6929 H   0  0  0  0  0  0  0  0  0  0  0  0
    6.6774    1.1056   24.2376 C   0  0  0  0  0  0  0  0  0  0  0  0
    7.2168    1.1263   23.2877 H   0  0  0  0  0  0  0  0  0  0  0  0
    5.4424    0.6219   20.1604 C   0  0  0  0  0  0  0  0  0  0  0  0
    5.0198    0.6154   21.1644 H   0  0  0  0  0  0  0  0  0  0  0  0
    4.8129    1.3017   19.1062 C   0  0  0  0  0  0  0  0  0  0  0  0
    3.8854    1.8348   19.2603 H   0  0  0  0  0  0  0  0  0  0  0  0
  1  2  1  0
  2  3  2  0
  3  4  1  0
  4  5  1  0
  4  6  2  0
  6  7  1  0
  7  8  1  0
  7  9  1  0
  9 10  1  0
 10 11  1  0
 10 12  2  0
 12 13  1  0
 13 14  1  0
 13 15  1  0
 15 16  1  0
 16 17  1  0
 16 18  1  0
 16 19  1  0
 19 20  1  0
 20 21  1  0
 20 22  1  0
 20 23  1  0
 19 24  1  0
 24 25  1  0
 24 26  1  0
 24 27  1  0
 27 28  2  0
 28 29  1  0
 28 30  1  0
 30 31  1  0
 30 32  2  0
 32 33  1  0
 32 34  1  0
 34 35  1  0
 34 36  2  0
 36 37  1  0
  6 38  1  0
 38 39  1  0
 38 40  2  0
 40 41  1  0
 40  2  1  0
 15  9  2  0
 36 27  1  0
M  END
>  <cnnaffinity>  (1) 
-5.54241

>  <filename>  (1) 
CN(Cc1ccccc1)Cc1[nH]ncc1Nc1cccnc1

$$$$
