
     RDKit          3D

 48 50  0  0  0  0  0  0  0  0999 V2000
    5.1186    1.7091   17.1264 H   0  0  0  0  0  0  0  0  0  0  0  0
    5.5012    1.1842   17.9971 C   0  0  0  0  0  0  0  0  0  0  0  0
    6.6613    0.5408   17.8271 N   0  0  0  0  0  0  0  0  0  0  0  0
    7.1625   -0.1160   18.8806 C   0  0  0  0  0  0  0  0  0  0  0  0
    8.1174   -0.5965   18.6682 H   0  0  0  0  0  0  0  0  0  0  0  0
    6.5573   -0.1977   20.1522 C   0  0  0  0  0  0  0  0  0  0  0  0
    7.4323   -0.7523   21.2995 C   0  0  0  0  0  0  0  0  0  0  0  0
    8.4777    0.2282   21.6522 N   0  0  0  0  0  0  0  0  0  0  0  0
    8.0152    1.5854   21.9551 C   0  0  0  0  0  0  0  0  0  0  0  0
    7.0588    1.5510   22.4901 H   0  0  0  0  0  0  0  0  0  0  0  0
    7.8193    2.1715   21.0363 H   0  0  0  0  0  0  0  0  0  0  0  0
    9.0411    2.3084   22.8109 C   0  0  0  0  0  0  0  0  0  0  0  0
    9.1164    1.8081   23.7827 H   0  0  0  0  0  0  0  0  0  0  0  0
    8.6800    3.3257   22.9879 H   0  0  0  0  0  0  0  0  0  0  0  0
   10.4236    2.3233   22.1346 C   0  0  0  0  0  0  0  0  0  0  0  0
   10.3295    2.8873   21.1816 H   0  0  0  0  0  0  0  0  0  0  0  0
   11.4505    2.9417   22.9792 N   0  0  0  0  0  0  0  0  0  0  0  0
   11.1140    4.3268   23.2924 C   0  0  0  0  0  0  0  0  0  0  0  0
   11.9080    4.7787   23.8939 H   0  0  0  0  0  0  0  0  0  0  0  0
   10.9618    4.9574   22.3928 H   0  0  0  0  0  0  0  0  0  0  0  0
   10.2055    4.3632   23.8968 H   0  0  0  0  0  0  0  0  0  0  0  0
   12.7853    2.8691   22.3825 C   0  0  0  0  0  0  0  0  0  0  0  0
   13.1158    1.8294   22.3194 H   0  0  0  0  0  0  0  0  0  0  0  0
   13.5180    3.3856   23.0110 H   0  0  0  0  0  0  0  0  0  0  0  0
   12.8325    3.3141   21.3681 H   0  0  0  0  0  0  0  0  0  0  0  0
   10.8008    0.8909   21.7617 C   0  0  0  0  0  0  0  0  0  0  0  0
   10.9320    0.3076   22.6792 H   0  0  0  0  0  0  0  0  0  0  0  0
   11.7442    0.8708   21.2142 H   0  0  0  0  0  0  0  0  0  0  0  0
    9.7324    0.2446   20.9083 C   0  0  0  0  0  0  0  0  0  0  0  0
    9.6377    0.7688   19.9416 H   0  0  0  0  0  0  0  0  0  0  0  0
   10.0731   -0.7694   20.6879 H   0  0  0  0  0  0  0  0  0  0  0  0
    8.1184   -2.0805   20.8991 C   0  0  0  0  0  0  0  0  0  0  0  0
    8.6258   -1.9347   19.9517 H   0  0  0  0  0  0  0  0  0  0  0  0
    8.8846   -2.2795   21.6616 H   0  0  0  0  0  0  0  0  0  0  0  0
    7.1567   -3.2627   20.8881 C   0  0  0  0  0  0  0  0  0  0  0  0
    6.2916   -3.0784   20.2206 H   0  0  0  0  0  0  0  0  0  0  0  0
    7.6413   -4.1874   20.5639 H   0  0  0  0  0  0  0  0  0  0  0  0
    6.7068   -3.4877   22.2079 O   0  0  0  0  0  0  0  0  0  0  0  0
    5.9231   -2.3958   22.6279 C   0  0  0  0  0  0  0  0  0  0  0  0
    5.0484   -2.3413   21.9593 H   0  0  0  0  0  0  0  0  0  0  0  0
    5.5581   -2.6278   23.6331 H   0  0  0  0  0  0  0  0  0  0  0  0
    6.7128   -1.0813   22.6352 C   0  0  0  0  0  0  0  0  0  0  0  0
    7.5133   -1.2042   23.3744 H   0  0  0  0  0  0  0  0  0  0  0  0
    6.1083   -0.2352   22.9747 H   0  0  0  0  0  0  0  0  0  0  0  0
    5.3260    0.4684   20.2965 C   0  0  0  0  0  0  0  0  0  0  0  0
    4.7778    0.4666   21.2420 H   0  0  0  0  0  0  0  0  0  0  0  0
    4.7990    1.1745   19.2070 C   0  0  0  0  0  0  0  0  0  0  0  0
    3.8737    1.7353   19.2800 H   0  0  0  0  0  0  0  0  0  0  0  0
  1  2  1  0
  2  3  2  0
  3  4  1  0
  4  5  1  0
  4  6  2  0
  6  7  1  0
  7  8  1  0
  8  9  1  0
  9 10  1  0
  9 11  1  0
  9 12  1  0
 12 13  1  0
 12 14  1  0
 12 15  1  0
 15 16  1  0
 15 17  1  0
 17 18  1  0
 18 19  1  0
 18 20  1  0
 18 21  1  0
 17 22  1  0
 22 23  1  0
 22 24  1  0
 22 25  1  0
 15 26  1  0
 26 27  1  0
 26 28  1  0
 26 29  1  0
 29 30  1  0
 29 31  1  0
  7 32  1  0
 32 33  1  0
 32 34  1  0
 32 35  1  0
 35 36  1  0
 35 37  1  0
 35 38  1  0
 38 39  1  0
 39 40  1  0
 39 41  1  0
 39 42  1  0
 42 43  1  0
 42 44  1  0
  6 45  1  0
 45 46  1  0
 45 47  2  0
 47 48  1  0
 47  2  1  0
 42  7  1  0
 29  8  1  0
M  END
>  <cnnaffinity>  (1) 
-4.56308

>  <filename>  (1) 
CN(C)C1CCN(C2(c3cccnc3)CCOCC2)CC1

$$$$
