
     RDKit          3D

 41 43  0  0  0  0  0  0  0  0999 V2000
    5.0253    1.7525   17.0022 H   0  0  0  0  0  0  0  0  0  0  0  0
    5.4565    1.2338   17.8543 C   0  0  0  0  0  0  0  0  0  0  0  0
    6.5847    0.5527   17.6190 N   0  0  0  0  0  0  0  0  0  0  0  0
    7.1428   -0.0869   18.6576 C   0  0  0  0  0  0  0  0  0  0  0  0
    8.0651   -0.6160   18.4160 H   0  0  0  0  0  0  0  0  0  0  0  0
    6.6336   -0.0955   19.9725 C   0  0  0  0  0  0  0  0  0  0  0  0
    7.3088   -0.9497   21.0604 C   0  0  2  0  0  0  0  0  0  0  0  0
    6.6643   -2.3618   20.8827 C   0  0  0  0  0  0  0  0  0  0  0  0
    6.7052   -2.6632   19.8341 H   0  0  0  0  0  0  0  0  0  0  0  0
    5.6088   -2.2548   21.1191 H   0  0  0  0  0  0  0  0  0  0  0  0
    7.2909   -3.4854   21.6884 C   0  0  0  0  0  0  0  0  0  0  0  0
    8.3908   -3.9298   21.3908 O   0  0  0  0  0  0  0  0  0  0  0  0
    6.5901   -3.9463   22.7903 N   0  0  0  0  0  0  0  0  0  0  0  0
    7.3704   -4.6420   23.8206 C   0  0  0  0  0  0  0  0  0  0  0  0
    8.2253   -4.0291   24.1222 H   0  0  0  0  0  0  0  0  0  0  0  0
    7.7848   -5.5958   23.4686 H   0  0  0  0  0  0  0  0  0  0  0  0
    6.7518   -4.7960   24.7100 H   0  0  0  0  0  0  0  0  0  0  0  0
    5.1299   -4.0501   22.8063 C   0  0  0  0  0  0  0  0  0  0  0  0
    4.7324   -4.6989   22.0069 H   0  0  0  0  0  0  0  0  0  0  0  0
    4.6693   -3.0638   22.6937 H   0  0  0  0  0  0  0  0  0  0  0  0
    4.7989   -4.4663   23.7603 H   0  0  0  0  0  0  0  0  0  0  0  0
    7.1027   -0.3949   22.5168 C   0  0  0  0  0  0  0  0  0  0  0  0
    6.5739   -1.1239   23.1418 H   0  0  0  0  0  0  0  0  0  0  0  0
    6.5187    0.5302   22.5239 H   0  0  0  0  0  0  0  0  0  0  0  0
    8.5231   -0.1125   23.0538 C   0  0  2  0  0  0  0  0  0  0  0  0
    8.5727   -0.0303   24.1447 H   0  0  0  0  0  0  0  0  0  0  0  0
    9.1018    1.0970   22.2842 C   0  0  0  0  0  0  0  0  0  0  0  0
    8.3891    1.9262   22.2024 H   0  0  0  0  0  0  0  0  0  0  0  0
    9.9976    1.4930   22.7750 H   0  0  0  0  0  0  0  0  0  0  0  0
    9.4516    0.4717   20.9037 C   0  0  0  0  0  0  0  0  0  0  0  0
    9.0551    1.0438   20.0634 H   0  0  0  0  0  0  0  0  0  0  0  0
   10.5378    0.4231   20.7915 H   0  0  0  0  0  0  0  0  0  0  0  0
    8.8807   -0.9633   21.0059 C   0  0  1  0  0  0  0  0  0  0  0  0
    9.2771   -1.6496   20.2517 H   0  0  0  0  0  0  0  0  0  0  0  0
    9.3150   -1.2741   22.4530 C   0  0  0  0  0  0  0  0  0  0  0  0
    9.0257   -2.2532   22.8336 H   0  0  0  0  0  0  0  0  0  0  0  0
   10.4020   -1.1927   22.5832 H   0  0  0  0  0  0  0  0  0  0  0  0
    5.4188    0.5946   20.1732 C   0  0  0  0  0  0  0  0  0  0  0  0
    4.9338    0.5992   21.1497 H   0  0  0  0  0  0  0  0  0  0  0  0
    4.8293    1.2775   19.1045 C   0  0  0  0  0  0  0  0  0  0  0  0
    3.9150    1.8496   19.2303 H   0  0  0  0  0  0  0  0  0  0  0  0
  1  2  1  0
  2  3  2  0
  3  4  1  0
  4  5  1  0
  4  6  2  0
  6  7  1  0
  7  8  1  1
  8  9  1  0
  8 10  1  0
  8 11  1  0
 11 12  2  0
 11 13  1  0
 13 14  1  0
 14 15  1  0
 14 16  1  0
 14 17  1  0
 13 18  1  0
 18 19  1  0
 18 20  1  0
 18 21  1  0
  7 22  1  0
 22 23  1  0
 22 24  1  0
 22 25  1  0
 25 26  1  1
 25 27  1  0
 27 28  1  0
 27 29  1  0
 27 30  1  0
 30 31  1  0
 30 32  1  0
 30 33  1  0
 33 34  1  6
 33 35  1  0
 35 36  1  0
 35 37  1  0
  6 38  1  0
 38 39  1  0
 38 40  2  0
 40 41  1  0
 40  2  1  0
 33  7  1  0
 35 25  1  0
M  END
>  <cnnaffinity>  (1) 
-5.47316

>  <filename>  (1) 
CN(C)C(=O)C[C@@]1(c2cccnc2)C[C@@H]2CC[C@H]1C2

$$$$
