
     RDKit          3D

 36 38  0  0  0  0  0  0  0  0999 V2000
    4.8769    2.0467   16.7747 H   0  0  0  0  0  0  0  0  0  0  0  0
    5.2855    1.5944   17.6747 C   0  0  0  0  0  0  0  0  0  0  0  0
    6.4572    0.9564   17.5253 N   0  0  0  0  0  0  0  0  0  0  0  0
    6.9676    0.3624   18.6062 C   0  0  0  0  0  0  0  0  0  0  0  0
    7.9422   -0.1091   18.4706 H   0  0  0  0  0  0  0  0  0  0  0  0
    6.3455    0.3348   19.8712 C   0  0  0  0  0  0  0  0  0  0  0  0
    6.9541   -0.5110   20.9064 C   0  0  0  0  0  0  0  0  0  0  0  0
    7.2682   -1.8315   20.7069 C   0  0  0  0  0  0  0  0  0  0  0  0
    6.9169   -2.3243   19.8116 H   0  0  0  0  0  0  0  0  0  0  0  0
    8.0342   -2.5408   21.6581 C   0  0  0  0  0  0  0  0  0  0  0  0
    8.2737   -3.5879   21.4783 H   0  0  0  0  0  0  0  0  0  0  0  0
    8.5148   -1.9301   22.8119 C   0  0  0  0  0  0  0  0  0  0  0  0
    9.3533   -2.6622   23.6832 N   0  0  0  0  0  0  0  0  0  0  0  0
    8.9188   -3.8883   24.2552 C   0  0  0  0  0  0  0  0  0  0  0  0
    9.8669   -4.8278   24.7141 C   0  0  0  0  0  0  0  0  0  0  0  0
   10.9262   -4.6357   24.5811 H   0  0  0  0  0  0  0  0  0  0  0  0
    9.4584   -5.9935   25.3633 C   0  0  0  0  0  0  0  0  0  0  0  0
   10.2079   -6.6935   25.7312 H   0  0  0  0  0  0  0  0  0  0  0  0
    8.0999   -6.2056   25.6055 C   0  0  0  0  0  0  0  0  0  0  0  0
    7.7691   -7.0601   26.1771 H   0  0  0  0  0  0  0  0  0  0  0  0
    7.1522   -5.2920   25.1443 C   0  0  0  0  0  0  0  0  0  0  0  0
    6.0951   -5.4851   25.3032 H   0  0  0  0  0  0  0  0  0  0  0  0
    7.5571   -4.1284   24.4922 C   0  0  0  0  0  0  0  0  0  0  0  0
    6.8356   -3.3812   24.1742 H   0  0  0  0  0  0  0  0  0  0  0  0
   10.3108   -1.9419   24.5094 C   0  0  0  0  0  0  0  0  0  0  0  0
   11.0851   -2.6417   24.8247 H   0  0  0  0  0  0  0  0  0  0  0  0
   10.7605   -1.1273   23.9408 H   0  0  0  0  0  0  0  0  0  0  0  0
    9.8141   -1.5328   25.3968 H   0  0  0  0  0  0  0  0  0  0  0  0
    8.1335   -0.5047   23.0625 C   0  0  0  0  0  0  0  0  0  0  0  0
    8.4591    0.2168   23.9947 O   0  0  0  0  0  0  0  0  0  0  0  0
    7.2943    0.0562   22.1059 N   0  0  0  0  0  0  0  0  0  0  0  0
    7.0994    1.0199   22.3237 H   0  0  0  0  0  0  0  0  0  0  0  0
    5.1602    1.0744   20.0253 C   0  0  0  0  0  0  0  0  0  0  0  0
    4.6775    1.1542   21.0020 H   0  0  0  0  0  0  0  0  0  0  0  0
    4.6121    1.6924   18.8993 C   0  0  0  0  0  0  0  0  0  0  0  0
    3.6884    2.2606   18.9512 H   0  0  0  0  0  0  0  0  0  0  0  0
  1  2  1  0
  2  3  2  0
  3  4  1  0
  4  5  1  0
  4  6  2  0
  6  7  1  0
  7  8  2  0
  8  9  1  0
  8 10  1  0
 10 11  1  0
 10 12  2  0
 12 13  1  0
 13 14  1  0
 14 15  2  0
 15 16  1  0
 15 17  1  0
 17 18  1  0
 17 19  2  0
 19 20  1  0
 19 21  1  0
 21 22  1  0
 21 23  2  0
 23 24  1  0
 13 25  1  0
 25 26  1  0
 25 27  1  0
 25 28  1  0
 12 29  1  0
 29 30  2  0
 29 31  1  0
 31 32  1  0
  6 33  1  0
 33 34  1  0
 33 35  2  0
 35 36  1  0
 35  2  1  0
 31  7  1  0
 23 14  1  0
M  END
>  <cnnaffinity>  (1) 
-4.82549

>  <filename>  (1) 
CN(c1ccccc1)c1ccc(-c2cccnc2)[nH]c1=O

$$$$
