
     RDKit          3D

 33 34  0  0  0  0  0  0  0  0999 V2000
    8.6436   -0.5548   21.2767 C   0  0  0  0  0  0  0  0  0  0  0  0
    7.2871   -0.8697   20.8141 N   0  0  0  0  0  0  0  0  0  0  0  0
    6.4748   -1.7326   21.5508 C   0  0  0  0  0  0  0  0  0  0  0  0
    5.4501   -2.1919   21.0738 O   0  0  0  0  0  0  0  0  0  0  0  0
    6.8772   -2.2091   22.7749 N   0  0  0  0  0  0  0  0  0  0  0  0
    6.1545   -3.2193   23.5411 C   0  0  0  0  0  0  0  0  0  0  0  0
    7.0809   -3.6855   24.6210 C   0  0  0  0  0  0  0  0  0  0  0  0
    6.6617   -3.6547   25.9546 C   0  0  0  0  0  0  0  0  0  0  0  0
    7.5539   -4.0068   26.9702 C   0  0  0  0  0  0  0  0  0  0  0  0
    8.8726   -4.3564   26.6700 C   0  0  0  0  0  0  0  0  0  0  0  0
    9.2843   -4.4437   25.3409 C   0  0  0  0  0  0  0  0  0  0  0  0
   11.0889   -4.9772   24.9962 Br  0  0  0  0  0  0  0  0  0  0  0  0
    8.3763   -4.1365   24.3124 C   0  0  0  0  0  0  0  0  0  0  0  0
    8.8206   -4.3249   22.6374 Cl  0  0  0  0  0  0  0  0  0  0  0  0
    9.5859   -4.5680   27.4633 H   0  0  0  0  0  0  0  0  0  0  0  0
    7.2280   -4.0064   28.0009 H   0  0  0  0  0  0  0  0  0  0  0  0
    5.6441   -3.3540   26.1976 H   0  0  0  0  0  0  0  0  0  0  0  0
    5.2458   -2.7970   23.9858 H   0  0  0  0  0  0  0  0  0  0  0  0
    5.8600   -4.0682   22.9166 H   0  0  0  0  0  0  0  0  0  0  0  0
    7.8406   -2.0158   23.0189 H   0  0  0  0  0  0  0  0  0  0  0  0
    6.7173   -0.0918   19.7717 C   0  0  0  0  0  0  0  0  0  0  0  0
    5.4403    0.4384   19.9673 C   0  0  0  0  0  0  0  0  0  0  0  0
    4.8662    1.1956   18.9413 C   0  0  0  0  0  0  0  0  0  0  0  0
    5.5619    1.3924   17.7415 C   0  0  0  0  0  0  0  0  0  0  0  0
    6.7926    0.8890   17.5298 N   0  0  0  0  0  0  0  0  0  0  0  0
    7.3593    0.1764   18.5340 C   0  0  0  0  0  0  0  0  0  0  0  0
    8.3448   -0.2442   18.3691 H   0  0  0  0  0  0  0  0  0  0  0  0
    5.0836    1.9688   16.9541 H   0  0  0  0  0  0  0  0  0  0  0  0
    3.8840    1.6367   19.0618 H   0  0  0  0  0  0  0  0  0  0  0  0
    4.9167    0.2694   20.9076 H   0  0  0  0  0  0  0  0  0  0  0  0
    8.6170   -0.1461   22.2916 H   0  0  0  0  0  0  0  0  0  0  0  0
    9.1205    0.1892   20.6319 H   0  0  0  0  0  0  0  0  0  0  0  0
    9.2700   -1.4515   21.2806 H   0  0  0  0  0  0  0  0  0  0  0  0
  1  2  1  0
  2  3  1  0
  3  4  2  0
  3  5  1  0
  5  6  1  0
  6  7  1  0
  7  8  2  0
  8  9  1  0
  9 10  2  0
 10 11  1  0
 11 12  1  0
 11 13  2  0
 13 14  1  0
 10 15  1  0
  9 16  1  0
  8 17  1  0
  6 18  1  0
  6 19  1  0
  5 20  1  0
  2 21  1  0
 21 22  2  0
 22 23  1  0
 23 24  2  0
 24 25  1  0
 25 26  2  0
 26 27  1  0
 24 28  1  0
 23 29  1  0
 22 30  1  0
  1 31  1  0
  1 32  1  0
  1 33  1  0
 13  7  1  0
 26 21  1  0
M  END
>  <cnnaffinity>  (1) 
-5.41663

>  <filename>  (1) 
CN(C(=O)NCc1cccc(Br)c1Cl)c1cccnc1

$$$$
