
     RDKit          3D

 40 42  0  0  0  0  0  0  0  0999 V2000
    5.9723   -1.6319   21.2961 H   0  0  0  0  0  0  0  0  0  0  0  0
    6.7887   -1.5613   21.8023 O   0  0  0  0  0  0  0  0  0  0  0  0
    7.6471   -0.7001   21.0483 C   0  0  1  0  0  0  0  0  0  0  0  0
    8.4224   -1.3254   20.5788 H   0  0  0  0  0  0  0  0  0  0  0  0
    6.8242   -0.0705   19.9298 C   0  0  0  0  0  0  0  0  0  0  0  0
    7.2274   -0.1832   18.5898 C   0  0  0  0  0  0  0  0  0  0  0  0
    8.1114   -0.7662   18.3260 H   0  0  0  0  0  0  0  0  0  0  0  0
    6.6072    0.4041   17.5543 N   0  0  0  0  0  0  0  0  0  0  0  0
    5.5192    1.1382   17.8215 C   0  0  0  0  0  0  0  0  0  0  0  0
    5.0435    1.6307   16.9735 H   0  0  0  0  0  0  0  0  0  0  0  0
    5.0052    1.2922   19.1118 C   0  0  0  0  0  0  0  0  0  0  0  0
    4.1130    1.8872   19.2685 H   0  0  0  0  0  0  0  0  0  0  0  0
    5.6507    0.6649   20.1746 C   0  0  0  0  0  0  0  0  0  0  0  0
    5.2320    0.7293   21.1794 H   0  0  0  0  0  0  0  0  0  0  0  0
    8.4017    0.3033   22.0105 C   0  0  0  0  0  0  0  0  0  0  0  0
    9.4342   -0.2999   22.8755 N   0  0  0  0  0  0  0  0  0  0  0  0
   10.8012   -0.4409   22.4836 C   0  0  0  0  0  0  0  0  0  0  0  0
   11.2009   -1.2419   21.4054 C   0  0  0  0  0  0  0  0  0  0  0  0
   10.4438   -1.7024   20.7795 H   0  0  0  0  0  0  0  0  0  0  0  0
   12.5635   -1.4808   21.1879 C   0  0  0  0  0  0  0  0  0  0  0  0
   12.8823   -2.1109   20.3612 H   0  0  0  0  0  0  0  0  0  0  0  0
   13.5236   -0.9347   22.0498 C   0  0  0  0  0  0  0  0  0  0  0  0
   14.5727   -1.1505   21.8842 H   0  0  0  0  0  0  0  0  0  0  0  0
   13.1278   -0.1311   23.1267 C   0  0  0  0  0  0  0  0  0  0  0  0
   13.8547    0.2598   23.8366 H   0  0  0  0  0  0  0  0  0  0  0  0
   11.7681    0.1169   23.3357 C   0  0  0  0  0  0  0  0  0  0  0  0
   11.3997    0.7218   24.1606 H   0  0  0  0  0  0  0  0  0  0  0  0
    9.0170   -1.3627   23.7775 C   0  0  0  0  0  0  0  0  0  0  0  0
    9.5589   -1.2790   24.7324 H   0  0  0  0  0  0  0  0  0  0  0  0
    7.9429   -1.3244   23.9807 H   0  0  0  0  0  0  0  0  0  0  0  0
    9.2455   -2.3521   23.3514 H   0  0  0  0  0  0  0  0  0  0  0  0
    8.9263    1.5914   21.3236 C   0  0  0  0  0  0  0  0  0  0  0  0
    8.7628    1.6020   20.2493 H   0  0  0  0  0  0  0  0  0  0  0  0
    9.9851    1.7760   21.5232 H   0  0  0  0  0  0  0  0  0  0  0  0
    7.9074    2.4540   22.1153 C   0  0  0  0  0  0  0  0  0  0  0  0
    8.3454    3.2401   22.7397 H   0  0  0  0  0  0  0  0  0  0  0  0
    7.1360    2.9014   21.4785 H   0  0  0  0  0  0  0  0  0  0  0  0
    7.4461    1.1870   22.8743 C   0  0  0  0  0  0  0  0  0  0  0  0
    6.3847    0.9405   22.8405 H   0  0  0  0  0  0  0  0  0  0  0  0
    7.7410    1.1695   23.9263 H   0  0  0  0  0  0  0  0  0  0  0  0
  1  2  1  0
  2  3  1  0
  3  4  1  6
  3  5  1  0
  5  6  2  0
  6  7  1  0
  6  8  1  0
  8  9  2  0
  9 10  1  0
  9 11  1  0
 11 12  1  0
 11 13  2  0
 13 14  1  0
  3 15  1  0
 15 16  1  0
 16 17  1  0
 17 18  2  0
 18 19  1  0
 18 20  1  0
 20 21  1  0
 20 22  2  0
 22 23  1  0
 22 24  1  0
 24 25  1  0
 24 26  2  0
 26 27  1  0
 16 28  1  0
 28 29  1  0
 28 30  1  0
 28 31  1  0
 15 32  1  0
 32 33  1  0
 32 34  1  0
 32 35  1  0
 35 36  1  0
 35 37  1  0
 35 38  1  0
 38 39  1  0
 38 40  1  0
 13  5  1  0
 38 15  1  0
 26 17  1  0
M  END
>  <cnnaffinity>  (1) 
-5.01509

>  <filename>  (1) 
CN(c1ccccc1)C1([C@@H](O)c2cccnc2)CCC1

$$$$
