
     RDKit          3D

 34 35  0  0  0  0  0  0  0  0999 V2000
    5.0499    1.8356   16.7785 H   0  0  0  0  0  0  0  0  0  0  0  0
    5.4064    1.3504   17.6847 C   0  0  0  0  0  0  0  0  0  0  0  0
    6.5523    0.6663   17.5597 N   0  0  0  0  0  0  0  0  0  0  0  0
    7.0390    0.0945   18.6615 C   0  0  0  0  0  0  0  0  0  0  0  0
    7.9662   -0.4615   18.5475 H   0  0  0  0  0  0  0  0  0  0  0  0
    6.4205    0.1642   19.9205 C   0  0  0  0  0  0  0  0  0  0  0  0
    7.1176   -0.5108   21.0174 C   0  0  0  0  0  0  0  0  0  0  0  0
    8.3060   -1.1285   20.7658 N   0  0  0  0  0  0  0  0  0  0  0  0
    8.6305   -1.6677   21.9157 C   0  0  0  0  0  0  0  0  0  0  0  0
    9.8200   -2.5301   22.1509 C   0  0  0  0  0  0  0  0  0  0  0  0
    9.5025   -3.4409   22.6721 H   0  0  0  0  0  0  0  0  0  0  0  0
   10.1504   -2.8118   21.1486 H   0  0  0  0  0  0  0  0  0  0  0  0
   10.9943   -1.9149   22.9258 C   0  0  0  0  0  0  0  0  0  0  0  0
   10.6970   -1.7073   23.9612 H   0  0  0  0  0  0  0  0  0  0  0  0
   11.7757   -2.6845   22.9615 H   0  0  0  0  0  0  0  0  0  0  0  0
   11.5810   -0.6349   22.3137 C   0  0  0  0  0  0  0  0  0  0  0  0
   12.0786   -0.9067   21.3717 H   0  0  0  0  0  0  0  0  0  0  0  0
   10.7565    0.0573   22.0465 H   0  0  0  0  0  0  0  0  0  0  0  0
   12.5488    0.0104   23.2110 N   0  0  0  0  0  0  0  0  0  0  0  0
   11.8919    0.9699   24.0889 C   0  0  0  0  0  0  0  0  0  0  0  0
   11.1300    0.4575   24.6863 H   0  0  0  0  0  0  0  0  0  0  0  0
   11.3955    1.7766   23.5094 H   0  0  0  0  0  0  0  0  0  0  0  0
   12.6168    1.4264   24.7748 H   0  0  0  0  0  0  0  0  0  0  0  0
   13.6673    0.6322   22.5184 C   0  0  0  0  0  0  0  0  0  0  0  0
   14.3881    1.0145   23.2500 H   0  0  0  0  0  0  0  0  0  0  0  0
   14.1896   -0.1117   21.9045 H   0  0  0  0  0  0  0  0  0  0  0  0
   13.3548    1.4793   21.8803 H   0  0  0  0  0  0  0  0  0  0  0  0
    7.6803   -1.3861   22.8206 N   0  0  0  0  0  0  0  0  0  0  0  0
    7.6630   -1.6601   23.7903 H   0  0  0  0  0  0  0  0  0  0  0  0
    6.6990   -0.6273   22.2638 N   0  0  0  0  0  0  0  0  0  0  0  0
    5.1909    0.8340   20.0295 C   0  0  0  0  0  0  0  0  0  0  0  0
    4.6465    0.8587   20.9776 H   0  0  0  0  0  0  0  0  0  0  0  0
    4.6876    1.4508   18.8834 C   0  0  0  0  0  0  0  0  0  0  0  0
    3.7665    2.0269   18.9028 H   0  0  0  0  0  0  0  0  0  0  0  0
  1  2  1  0
  2  3  2  0
  3  4  1  0
  4  5  1  0
  4  6  2  0
  6  7  1  0
  7  8  1  0
  8  9  2  0
  9 10  1  0
 10 11  1  0
 10 12  1  0
 10 13  1  0
 13 14  1  0
 13 15  1  0
 13 16  1  0
 16 17  1  0
 16 18  1  0
 16 19  1  0
 19 20  1  0
 20 21  1  0
 20 22  1  0
 20 23  1  0
 19 24  1  0
 24 25  1  0
 24 26  1  0
 24 27  1  0
  9 28  1  0
 28 29  1  0
 28 30  1  0
  6 31  1  0
 31 32  1  0
 31 33  2  0
 33 34  1  0
 33  2  1  0
 30  7  2  0
M  END
>  <cnnaffinity>  (1) 
-4.61455

>  <filename>  (1) 
CN(C)CCCc1nc(-c2cccnc2)n[nH]1

$$$$
