
     RDKit          3D

 32 33  0  0  0  0  0  0  0  0999 V2000
    8.7063   -0.2873   21.2621 C   0  0  0  0  0  0  0  0  0  0  0  0
    7.3376   -0.6850   20.9436 N   0  0  0  0  0  0  0  0  0  0  0  0
    6.6967   -1.7126   21.6476 C   0  0  0  0  0  0  0  0  0  0  0  0
    5.6299   -2.1576   21.2323 O   0  0  0  0  0  0  0  0  0  0  0  0
    7.2872   -2.3230   22.8427 C   0  0  0  0  0  0  0  0  0  0  0  0
    6.6757   -3.3443   23.5497 C   0  0  0  0  0  0  0  0  0  0  0  0
    7.2534   -3.9457   24.7599 C   0  0  0  0  0  0  0  0  0  0  0  0
    8.6466   -4.0365   24.9323 C   0  0  0  0  0  0  0  0  0  0  0  0
    9.1911   -4.6254   26.0808 C   0  0  0  0  0  0  0  0  0  0  0  0
    8.3478   -5.1290   27.0741 C   0  0  0  0  0  0  0  0  0  0  0  0
    6.9623   -5.0440   26.9133 C   0  0  0  0  0  0  0  0  0  0  0  0
    6.4100   -4.4607   25.7657 C   0  0  0  0  0  0  0  0  0  0  0  0
    4.5014   -4.3562   25.6208 Br  0  0  0  0  0  0  0  0  0  0  0  0
    6.3028   -5.4357   27.6822 H   0  0  0  0  0  0  0  0  0  0  0  0
    8.7660   -5.5898   27.9640 H   0  0  0  0  0  0  0  0  0  0  0  0
   10.2685   -4.7015   26.2007 H   0  0  0  0  0  0  0  0  0  0  0  0
    9.3179   -3.6666   24.1624 H   0  0  0  0  0  0  0  0  0  0  0  0
    5.7064   -3.7113   23.2185 H   0  0  0  0  0  0  0  0  0  0  0  0
    8.2205   -1.9137   23.2044 H   0  0  0  0  0  0  0  0  0  0  0  0
    6.6728    0.0000   19.9021 C   0  0  0  0  0  0  0  0  0  0  0  0
    5.4499    0.6301   20.1618 C   0  0  0  0  0  0  0  0  0  0  0  0
    4.8219    1.2998   19.1048 C   0  0  0  0  0  0  0  0  0  0  0  0
    5.4019    1.2962   17.8249 C   0  0  0  0  0  0  0  0  0  0  0  0
    6.5749    0.6864   17.5605 N   0  0  0  0  0  0  0  0  0  0  0  0
    7.1929    0.0713   18.5891 C   0  0  0  0  0  0  0  0  0  0  0  0
    8.1326   -0.4360   18.3993 H   0  0  0  0  0  0  0  0  0  0  0  0
    4.8844    1.7969   17.0123 H   0  0  0  0  0  0  0  0  0  0  0  0
    3.8852    1.8294   19.2625 H   0  0  0  0  0  0  0  0  0  0  0  0
    5.0162    0.6186   21.1638 H   0  0  0  0  0  0  0  0  0  0  0  0
    9.0682    0.4672   20.5585 H   0  0  0  0  0  0  0  0  0  0  0  0
    9.3847   -1.1404   21.2040 H   0  0  0  0  0  0  0  0  0  0  0  0
    8.7584    0.1423   22.2644 H   0  0  0  0  0  0  0  0  0  0  0  0
  1  2  1  0
  2  3  1  0
  3  4  2  0
  3  5  1  0
  5  6  2  3
  6  7  1  0
  7  8  2  0
  8  9  1  0
  9 10  2  0
 10 11  1  0
 11 12  2  0
 12 13  1  0
 11 14  1  0
 10 15  1  0
  9 16  1  0
  8 17  1  0
  6 18  1  0
  5 19  1  0
  2 20  1  0
 20 21  2  0
 21 22  1  0
 22 23  2  0
 23 24  1  0
 24 25  2  0
 25 26  1  0
 23 27  1  0
 22 28  1  0
 21 29  1  0
  1 30  1  0
  1 31  1  0
  1 32  1  0
 12  7  1  0
 25 20  1  0
M  END
>  <cnnaffinity>  (1) 
-4.99761

>  <filename>  (1) 
CN(C(=O)C=Cc1ccccc1Br)c1cccnc1

$$$$
