
     RDKit          3D

 42 45  0  0  0  0  0  0  0  0999 V2000
    4.0838   -3.5859   24.1902 C   0  0  0  0  0  0  0  0  0  0  0  0
    5.4733   -3.1502   23.9226 N   0  0  0  0  0  0  0  0  0  0  0  0
    6.0261   -2.1678   24.7154 C   0  0  0  0  0  0  0  0  0  0  0  0
    5.3601   -1.6427   25.5909 O   0  0  0  0  0  0  0  0  0  0  0  0
    7.4808   -1.7716   24.5293 C   0  0  0  0  0  0  0  0  0  0  0  0
    7.8581   -1.4852   23.1196 C   0  0  0  0  0  0  0  0  0  0  0  0
    8.8275   -2.1404   22.4305 C   0  0  0  0  0  0  0  0  0  0  0  0
    8.9375   -1.5319   20.8331 S   0  0  0  0  0  0  0  0  0  0  0  0
    7.5782   -0.4833   21.1805 C   0  0  0  0  0  0  0  0  0  0  0  0
    6.8659    0.2219   20.1035 C   0  0  0  0  0  0  0  0  0  0  0  0
    5.6203    0.8415   20.3061 C   0  0  0  0  0  0  0  0  0  0  0  0
    4.9531    1.3590   19.1965 C   0  0  0  0  0  0  0  0  0  0  0  0
    5.5480    1.2535   17.9344 C   0  0  0  0  0  0  0  0  0  0  0  0
    6.7361    0.6622   17.7320 N   0  0  0  0  0  0  0  0  0  0  0  0
    7.3678    0.1637   18.7962 C   0  0  0  0  0  0  0  0  0  0  0  0
    8.3164   -0.3366   18.5950 H   0  0  0  0  0  0  0  0  0  0  0  0
    5.0515    1.6505   17.0492 H   0  0  0  0  0  0  0  0  0  0  0  0
    3.9891    1.8463   19.2922 H   0  0  0  0  0  0  0  0  0  0  0  0
    5.1884    0.9001   21.3086 H   0  0  0  0  0  0  0  0  0  0  0  0
    7.1768   -0.5247   22.4162 N   0  0  0  0  0  0  0  0  0  0  0  0
    9.3551   -3.0218   22.7629 H   0  0  0  0  0  0  0  0  0  0  0  0
    7.6118   -0.8898   25.1556 H   0  0  0  0  0  0  0  0  0  0  0  0
    8.1019   -2.5746   24.9326 H   0  0  0  0  0  0  0  0  0  0  0  0
    6.2517   -3.9386   23.0732 C   0  0  0  0  0  0  0  0  0  0  0  0
    7.1165   -4.7677   23.6204 N   0  0  0  0  0  0  0  0  0  0  0  0
    7.4946   -5.8159   22.8348 C   0  0  0  0  0  0  0  0  0  0  0  0
    7.0981   -6.0073   21.5292 C   0  0  0  0  0  0  0  0  0  0  0  0
    6.3734   -4.9677   20.8531 C   0  0  0  0  0  0  0  0  0  0  0  0
    6.0479   -4.9534   19.4624 C   0  0  0  0  0  0  0  0  0  0  0  0
    5.5655   -3.8014   18.8729 C   0  0  0  0  0  0  0  0  0  0  0  0
    5.3402   -2.6516   19.6432 C   0  0  0  0  0  0  0  0  0  0  0  0
    5.4790   -2.6997   21.0101 C   0  0  0  0  0  0  0  0  0  0  0  0
    6.0069   -3.8483   21.6465 C   0  0  0  0  0  0  0  0  0  0  0  0
    5.2224   -1.8276   21.5965 H   0  0  0  0  0  0  0  0  0  0  0  0
    4.9917   -1.7351   19.1730 H   0  0  0  0  0  0  0  0  0  0  0  0
    5.3653   -3.7098   17.8106 H   0  0  0  0  0  0  0  0  0  0  0  0
    6.2333   -5.8482   18.8781 H   0  0  0  0  0  0  0  0  0  0  0  0
    7.3560   -6.9167   21.0136 H   0  0  0  0  0  0  0  0  0  0  0  0
    8.1716   -6.5270   23.3045 H   0  0  0  0  0  0  0  0  0  0  0  0
    4.0237   -4.1515   25.1297 H   0  0  0  0  0  0  0  0  0  0  0  0
    3.7254   -4.2106   23.3630 H   0  0  0  0  0  0  0  0  0  0  0  0
    3.4421   -2.7073   24.2919 H   0  0  0  0  0  0  0  0  0  0  0  0
  1  2  1  0
  2  3  1  0
  3  4  2  0
  3  5  1  0
  5  6  1  0
  6  7  2  0
  7  8  1  0
  8  9  1  0
  9 10  1  0
 10 11  2  0
 11 12  1  0
 12 13  2  0
 13 14  1  0
 14 15  2  0
 15 16  1  0
 13 17  1  0
 12 18  1  0
 11 19  1  0
  9 20  2  0
  7 21  1  0
  5 22  1  0
  5 23  1  0
  2 24  1  0
 24 25  2  0
 25 26  1  0
 26 27  2  0
 27 28  1  0
 28 29  2  0
 29 30  1  0
 30 31  2  0
 31 32  1  0
 32 33  2  0
 32 34  1  0
 31 35  1  0
 30 36  1  0
 29 37  1  0
 27 38  1  0
 26 39  1  0
  1 40  1  0
  1 41  1  0
  1 42  1  0
 20  6  1  0
 33 24  1  0
 15 10  1  0
 33 28  1  0
M  END
>  <cnnaffinity>  (1) 
-6.19063

>  <filename>  (1) 
CN(C(=O)Cc1csc(-c2cccnc2)n1)c1nccc2ccccc12

$$$$
