
     RDKit          3D

 36 38  0  0  0  0  0  0  0  0999 V2000
    5.0643    1.8775   16.9528 H   0  0  0  0  0  0  0  0  0  0  0  0
    5.4752    1.3362   17.8030 C   0  0  0  0  0  0  0  0  0  0  0  0
    6.6299    0.6836   17.5923 N   0  0  0  0  0  0  0  0  0  0  0  0
    7.1627    0.0198   18.6285 C   0  0  0  0  0  0  0  0  0  0  0  0
    8.1125   -0.4825   18.4678 H   0  0  0  0  0  0  0  0  0  0  0  0
    6.5682   -0.0491   19.9050 C   0  0  0  0  0  0  0  0  0  0  0  0
    7.2005   -0.7179   21.0094 N   0  0  0  0  0  0  0  0  0  0  0  0
    7.6155   -0.0979   22.2026 C   0  0  0  0  0  0  0  0  0  0  0  0
    7.2553    1.1833   22.5389 N   0  0  0  0  0  0  0  0  0  0  0  0
    7.6311    2.3492   21.7714 C   0  0  0  0  0  0  0  0  0  0  0  0
    8.3817    2.0519   21.0363 H   0  0  0  0  0  0  0  0  0  0  0  0
    6.7724    2.7980   21.2524 H   0  0  0  0  0  0  0  0  0  0  0  0
    8.0619    3.1268   22.4202 H   0  0  0  0  0  0  0  0  0  0  0  0
    6.3659    1.2941   23.6986 C   0  0  0  0  0  0  0  0  0  0  0  0
    5.9481    2.3074   23.7465 H   0  0  0  0  0  0  0  0  0  0  0  0
    5.5307    0.5863   23.5735 H   0  0  0  0  0  0  0  0  0  0  0  0
    7.0890    0.9336   24.9818 C   0  0  0  0  0  0  0  0  0  0  0  0
    8.2967    1.5723   25.2941 C   0  0  0  0  0  0  0  0  0  0  0  0
    8.6578    2.3901   24.6703 H   0  0  0  0  0  0  0  0  0  0  0  0
    9.0762    1.1332   26.3601 C   0  0  0  0  0  0  0  0  0  0  0  0
   10.0288    1.6263   26.5255 H   0  0  0  0  0  0  0  0  0  0  0  0
    8.6413    0.0694   27.1630 C   0  0  0  0  0  0  0  0  0  0  0  0
    9.2549   -0.2731   27.9941 H   0  0  0  0  0  0  0  0  0  0  0  0
    7.4171   -0.5516   26.8824 C   0  0  0  0  0  0  0  0  0  0  0  0
    7.0509   -1.3591   27.5145 H   0  0  0  0  0  0  0  0  0  0  0  0
    6.6520   -0.1267   25.7878 C   0  0  0  0  0  0  0  0  0  0  0  0
    5.7213   -0.6378   25.5392 H   0  0  0  0  0  0  0  0  0  0  0  0
    8.0717   -1.0788   22.9961 C   0  0  0  0  0  0  0  0  0  0  0  0
    8.5915   -1.0351   23.9353 H   0  0  0  0  0  0  0  0  0  0  0  0
    7.7698   -2.3026   22.4524 O   0  0  0  0  0  0  0  0  0  0  0  0
    7.1344   -2.0914   21.2585 C   0  0  0  0  0  0  0  0  0  0  0  0
    6.6213   -2.9540   20.5969 O   0  0  0  0  0  0  0  0  0  0  0  0
    5.3555    0.6167   20.0993 C   0  0  0  0  0  0  0  0  0  0  0  0
    4.8691    0.5879   21.0748 H   0  0  0  0  0  0  0  0  0  0  0  0
    4.8039    1.3318   19.0313 C   0  0  0  0  0  0  0  0  0  0  0  0
    3.8733    1.8804   19.1373 H   0  0  0  0  0  0  0  0  0  0  0  0
  1  2  1  0
  2  3  2  0
  3  4  1  0
  4  5  1  0
  4  6  2  0
  6  7  1  0
  7  8  1  0
  8  9  1  0
  9 10  1  0
 10 11  1  0
 10 12  1  0
 10 13  1  0
  9 14  1  0
 14 15  1  0
 14 16  1  0
 14 17  1  0
 17 18  2  0
 18 19  1  0
 18 20  1  0
 20 21  1  0
 20 22  2  0
 22 23  1  0
 22 24  1  0
 24 25  1  0
 24 26  2  0
 26 27  1  0
  8 28  2  0
 28 29  1  0
 28 30  1  0
 30 31  1  0
 31 32  2  0
  6 33  1  0
 33 34  1  0
 33 35  2  0
 35 36  1  0
 35  2  1  0
 31  7  1  0
 26 17  1  0
M  END
>  <cnnaffinity>  (1) 
-4.92889

>  <filename>  (1) 
CN(Cc1ccccc1)c1coc(=O)n1-c1cccnc1

$$$$
