
     RDKit          3D

 32 33  0  0  0  0  0  0  0  0999 V2000
    5.4504   -3.3443   23.2791 H   0  0  0  0  0  0  0  0  0  0  0  0
    6.5272   -3.2756   23.4334 C   0  0  0  0  0  0  0  0  0  0  0  0
    7.2323   -2.4189   22.6751 C   0  0  0  0  0  0  0  0  0  0  0  0
    8.3125   -2.3713   22.7819 H   0  0  0  0  0  0  0  0  0  0  0  0
    6.6685   -1.5928   21.7374 N   0  0  0  0  0  0  0  0  0  0  0  0
    5.6748   -1.6950   21.5770 H   0  0  0  0  0  0  0  0  0  0  0  0
    7.3549   -0.6911   20.9421 N   0  0  0  0  0  0  0  0  0  0  0  0
    6.6523   -0.0197   19.9199 C   0  0  0  0  0  0  0  0  0  0  0  0
    7.1730    0.0596   18.6067 C   0  0  0  0  0  0  0  0  0  0  0  0
    8.1196   -0.4278   18.3804 H   0  0  0  0  0  0  0  0  0  0  0  0
    6.5668    0.6769   17.5818 N   0  0  0  0  0  0  0  0  0  0  0  0
    5.4017    1.2938   17.8373 C   0  0  0  0  0  0  0  0  0  0  0  0
    4.9094    1.7785   16.9956 H   0  0  0  0  0  0  0  0  0  0  0  0
    4.8064    1.3143   19.1069 C   0  0  0  0  0  0  0  0  0  0  0  0
    3.8702    1.8455   19.2645 H   0  0  0  0  0  0  0  0  0  0  0  0
    5.4348    0.6442   20.1626 C   0  0  0  0  0  0  0  0  0  0  0  0
    5.0150    0.6271   21.1700 H   0  0  0  0  0  0  0  0  0  0  0  0
    8.7694   -0.4669   21.1455 C   0  0  0  0  0  0  0  0  0  0  0  0
    9.3663   -1.3300   20.8217 H   0  0  0  0  0  0  0  0  0  0  0  0
    9.0907    0.3996   20.5645 H   0  0  0  0  0  0  0  0  0  0  0  0
    8.9863   -0.2451   22.1973 H   0  0  0  0  0  0  0  0  0  0  0  0
    7.0860   -4.1731   24.4681 C   0  0  0  0  0  0  0  0  0  0  0  0
    6.3359   -5.2994   24.8726 C   0  0  0  0  0  0  0  0  0  0  0  0
    5.3649   -5.4906   24.4212 H   0  0  0  0  0  0  0  0  0  0  0  0
    6.8232   -6.1833   25.8436 C   0  0  0  0  0  0  0  0  0  0  0  0
    6.2354   -7.0510   26.1405 H   0  0  0  0  0  0  0  0  0  0  0  0
    8.0741   -5.9607   26.4285 C   0  0  0  0  0  0  0  0  0  0  0  0
    8.4569   -6.6463   27.1821 H   0  0  0  0  0  0  0  0  0  0  0  0
    8.8292   -4.8463   26.0504 C   0  0  0  0  0  0  0  0  0  0  0  0
    9.7969   -4.6615   26.5124 H   0  0  0  0  0  0  0  0  0  0  0  0
    8.3423   -3.9631   25.0807 C   0  0  0  0  0  0  0  0  0  0  0  0
    8.9334   -3.0879   24.8246 H   0  0  0  0  0  0  0  0  0  0  0  0
  1  2  1  0
  2  3  2  3
  3  4  1  0
  3  5  1  0
  5  6  1  0
  5  7  1  0
  7  8  1  0
  8  9  2  0
  9 10  1  0
  9 11  1  0
 11 12  2  0
 12 13  1  0
 12 14  1  0
 14 15  1  0
 14 16  2  0
 16 17  1  0
  7 18  1  0
 18 19  1  0
 18 20  1  0
 18 21  1  0
  2 22  1  0
 22 23  2  0
 23 24  1  0
 23 25  1  0
 25 26  1  0
 25 27  2  0
 27 28  1  0
 27 29  1  0
 29 30  1  0
 29 31  2  0
 31 32  1  0
 16  8  1  0
 31 22  1  0
M  END
>  <cnnaffinity>  (1) 
-4.66197

>  <filename>  (1) 
CN(NC=Cc1ccccc1)c1cccnc1

$$$$
