
     RDKit          3D

 30 31  0  0  0  0  0  0  0  0999 V2000
    4.9865    1.7327   16.7317 H   0  0  0  0  0  0  0  0  0  0  0  0
    5.3756    1.3071   17.6560 C   0  0  0  0  0  0  0  0  0  0  0  0
    6.5481    0.6639   17.5618 N   0  0  0  0  0  0  0  0  0  0  0  0
    7.0595    0.1454   18.6833 C   0  0  0  0  0  0  0  0  0  0  0  0
    8.0070   -0.3782   18.5567 H   0  0  0  0  0  0  0  0  0  0  0  0
    6.4564    0.2537   19.9402 C   0  0  0  0  0  0  0  0  0  0  0  0
    7.1972   -0.2367   21.1601 C   0  0  0  0  0  0  0  0  0  0  0  0
    7.3199    0.4309   22.1579 O   0  0  0  0  0  0  0  0  0  0  0  0
    7.7186   -1.5099   20.9929 N   0  0  0  0  0  0  0  0  0  0  0  0
    7.3472   -2.0367   20.2211 H   0  0  0  0  0  0  0  0  0  0  0  0
    8.4620   -2.2466   21.9154 N   0  0  0  0  0  0  0  0  0  0  0  0
    7.9574   -2.4341   23.2198 C   0  0  0  0  0  0  0  0  0  0  0  0
    8.7514   -2.1878   24.3668 C   0  0  0  0  0  0  0  0  0  0  0  0
    9.7546   -1.8008   24.2275 H   0  0  0  0  0  0  0  0  0  0  0  0
    8.2679   -2.3896   25.6658 C   0  0  0  0  0  0  0  0  0  0  0  0
    8.9084   -2.1726   26.5192 H   0  0  0  0  0  0  0  0  0  0  0  0
    6.9691   -2.8579   25.8605 C   0  0  0  0  0  0  0  0  0  0  0  0
    6.5829   -3.0014   26.8701 H   0  0  0  0  0  0  0  0  0  0  0  0
    6.1592   -3.1247   24.7523 C   0  0  0  0  0  0  0  0  0  0  0  0
    5.1466   -3.4941   24.8871 H   0  0  0  0  0  0  0  0  0  0  0  0
    6.6424   -2.9175   23.4527 C   0  0  0  0  0  0  0  0  0  0  0  0
    5.5822   -3.3222   22.1284 Cl  0  0  0  0  0  0  0  0  0  0  0  0
    9.8892   -2.2703   21.6106 C   0  0  0  0  0  0  0  0  0  0  0  0
   10.0343   -2.6746   20.6053 H   0  0  0  0  0  0  0  0  0  0  0  0
   10.4370   -2.9087   22.3093 H   0  0  0  0  0  0  0  0  0  0  0  0
   10.3076   -1.2591   21.6222 H   0  0  0  0  0  0  0  0  0  0  0  0
    5.2165    0.9178   20.0255 C   0  0  0  0  0  0  0  0  0  0  0  0
    4.6927    1.0271   20.9784 H   0  0  0  0  0  0  0  0  0  0  0  0
    4.6619    1.4335   18.8528 C   0  0  0  0  0  0  0  0  0  0  0  0
    3.7122    1.9609   18.8505 H   0  0  0  0  0  0  0  0  0  0  0  0
  1  2  1  0
  2  3  2  0
  3  4  1  0
  4  5  1  0
  4  6  2  0
  6  7  1  0
  7  8  2  0
  7  9  1  0
  9 10  1  0
  9 11  1  0
 11 12  1  0
 12 13  2  0
 13 14  1  0
 13 15  1  0
 15 16  1  0
 15 17  2  0
 17 18  1  0
 17 19  1  0
 19 20  1  0
 19 21  2  0
 21 22  1  0
 11 23  1  0
 23 24  1  0
 23 25  1  0
 23 26  1  0
  6 27  1  0
 27 28  1  0
 27 29  2  0
 29 30  1  0
 29  2  1  0
 21 12  1  0
M  END
>  <cnnaffinity>  (1) 
-5.2364

>  <filename>  (1) 
CN(NC(=O)c1cccnc1)c1ccccc1Cl

$$$$
