
     RDKit          3D

 35 36  0  0  0  0  0  0  0  0999 V2000
    4.9574    1.8493   16.8711 H   0  0  0  0  0  0  0  0  0  0  0  0
    5.4420    1.2911   17.6653 C   0  0  0  0  0  0  0  0  0  0  0  0
    6.6086    0.7034   17.3571 N   0  0  0  0  0  0  0  0  0  0  0  0
    7.2598    0.0454   18.3263 C   0  0  0  0  0  0  0  0  0  0  0  0
    8.2034   -0.4214   18.0504 H   0  0  0  0  0  0  0  0  0  0  0  0
    6.7628   -0.0582   19.6385 C   0  0  0  0  0  0  0  0  0  0  0  0
    7.5652   -0.6499   20.6220 O   0  0  0  0  0  0  0  0  0  0  0  0
    6.9704   -1.2998   21.6738 C   0  0  0  0  0  0  0  0  0  0  0  0
    5.9008   -1.8626   21.5988 O   0  0  0  0  0  0  0  0  0  0  0  0
    7.7378   -1.2164   22.8336 N   0  0  0  0  0  0  0  0  0  0  0  0
    7.1809   -1.7221   24.0428 N   0  0  0  0  0  0  0  0  0  0  0  0
    6.1704   -1.7834   23.9520 H   0  0  0  0  0  0  0  0  0  0  0  0
    7.6458   -2.9657   24.5472 C   0  0  0  0  0  0  0  0  0  0  0  0
    8.5435   -3.6024   24.0427 O   0  0  0  0  0  0  0  0  0  0  0  0
    6.9225   -3.2886   25.6673 N   0  0  0  0  0  0  0  0  0  0  0  0
    6.3179   -2.5548   25.9864 H   0  0  0  0  0  0  0  0  0  0  0  0
    7.1552   -4.3520   26.5585 C   0  0  0  0  0  0  0  0  0  0  0  0
    6.3825   -4.4669   27.7244 C   0  0  0  0  0  0  0  0  0  0  0  0
    5.6451   -3.7095   27.9649 H   0  0  0  0  0  0  0  0  0  0  0  0
    6.5503   -5.5632   28.5849 C   0  0  0  0  0  0  0  0  0  0  0  0
    5.9596   -5.6942   29.4889 H   0  0  0  0  0  0  0  0  0  0  0  0
    7.4975   -6.5388   28.2664 C   0  0  0  0  0  0  0  0  0  0  0  0
    7.6872   -7.9169   29.3148 Cl  0  0  0  0  0  0  0  0  0  0  0  0
    8.2720   -6.4261   27.1078 C   0  0  0  0  0  0  0  0  0  0  0  0
    8.9897   -7.1878   26.8239 H   0  0  0  0  0  0  0  0  0  0  0  0
    8.1028   -5.3376   26.2605 C   0  0  0  0  0  0  0  0  0  0  0  0
    8.6962   -5.2361   25.3647 H   0  0  0  0  0  0  0  0  0  0  0  0
    9.1753   -0.9118   22.8545 C   0  0  0  0  0  0  0  0  0  0  0  0
    9.3799   -0.0389   22.2281 H   0  0  0  0  0  0  0  0  0  0  0  0
    9.4712   -0.6691   23.8795 H   0  0  0  0  0  0  0  0  0  0  0  0
    9.7696   -1.7689   22.5192 H   0  0  0  0  0  0  0  0  0  0  0  0
    5.5234    0.5084   19.9405 C   0  0  0  0  0  0  0  0  0  0  0  0
    5.1086    0.3902   20.9383 H   0  0  0  0  0  0  0  0  0  0  0  0
    4.8669    1.2187   18.9344 C   0  0  0  0  0  0  0  0  0  0  0  0
    3.9308    1.7203   19.1389 H   0  0  0  0  0  0  0  0  0  0  0  0
  1  2  1  0
  2  3  2  0
  3  4  1  0
  4  5  1  0
  4  6  2  0
  6  7  1  0
  7  8  1  0
  8  9  2  0
  8 10  1  0
 10 11  1  0
 11 12  1  0
 11 13  1  0
 13 14  2  0
 13 15  1  0
 15 16  1  0
 15 17  1  0
 17 18  2  0
 18 19  1  0
 18 20  1  0
 20 21  1  0
 20 22  2  0
 22 23  1  0
 22 24  1  0
 24 25  1  0
 24 26  2  0
 26 27  1  0
 10 28  1  0
 28 29  1  0
 28 30  1  0
 28 31  1  0
  6 32  1  0
 32 33  1  0
 32 34  2  0
 34 35  1  0
 34  2  1  0
 26 17  1  0
M  END
>  <cnnaffinity>  (1) 
-5.21264

>  <filename>  (1) 
CN(NC(=O)Nc1ccc(Cl)cc1)C(=O)Oc1cccnc1

$$$$
