
     RDKit          3D

 27 28  0  0  0  0  0  0  0  0999 V2000
    5.1761    1.7872   16.9724 H   0  0  0  0  0  0  0  0  0  0  0  0
    5.5890    1.2619   17.8338 C   0  0  0  0  0  0  0  0  0  0  0  0
    6.7457    0.6086   17.6431 N   0  0  0  0  0  0  0  0  0  0  0  0
    7.2646   -0.0362   18.6925 C   0  0  0  0  0  0  0  0  0  0  0  0
    8.2103   -0.5452   18.5127 H   0  0  0  0  0  0  0  0  0  0  0  0
    6.6625   -0.0883   19.9509 C   0  0  0  0  0  0  0  0  0  0  0  0
    7.2898   -0.9092   21.0353 C   0  0  0  0  0  0  0  0  0  0  0  0
    6.6637   -1.6564   21.7522 O   0  0  0  0  0  0  0  0  0  0  0  0
    8.6540   -0.6855   21.1244 N   0  0  0  0  0  0  0  0  0  0  0  0
    8.9604    0.1800   20.7115 H   0  0  0  0  0  0  0  0  0  0  0  0
    9.4710   -1.2202   22.0891 N   0  0  0  0  0  0  0  0  0  0  0  0
    9.2438   -0.9065   23.4190 C   0  0  0  0  0  0  0  0  0  0  0  0
    8.5218    0.1901   23.9946 C   0  0  0  0  0  0  0  0  0  0  0  0
    7.9933    1.0050   23.5205 H   0  0  0  0  0  0  0  0  0  0  0  0
    8.5541    0.1497   25.3194 N   0  0  0  0  0  0  0  0  0  0  0  0
    9.2670   -0.9434   25.6083 N   0  0  0  0  0  0  0  0  0  0  0  0
    9.4208   -1.1789   26.5769 H   0  0  0  0  0  0  0  0  0  0  0  0
    9.7079   -1.6103   24.5170 C   0  0  0  0  0  0  0  0  0  0  0  0
   10.3084   -2.5058   24.5762 H   0  0  0  0  0  0  0  0  0  0  0  0
   10.4647   -2.1961   21.6806 C   0  0  0  0  0  0  0  0  0  0  0  0
   10.1972   -2.5244   20.6753 H   0  0  0  0  0  0  0  0  0  0  0  0
   11.4811   -1.7799   21.6799 H   0  0  0  0  0  0  0  0  0  0  0  0
   10.4447   -3.0579   22.3562 H   0  0  0  0  0  0  0  0  0  0  0  0
    5.4595    0.6028   20.1443 C   0  0  0  0  0  0  0  0  0  0  0  0
    4.9901    0.6119   21.1304 H   0  0  0  0  0  0  0  0  0  0  0  0
    4.9156    1.2903   19.0604 C   0  0  0  0  0  0  0  0  0  0  0  0
    3.9988    1.8606   19.1651 H   0  0  0  0  0  0  0  0  0  0  0  0
  1  2  1  0
  2  3  2  0
  3  4  1  0
  4  5  1  0
  4  6  2  0
  6  7  1  0
  7  8  2  0
  7  9  1  0
  9 10  1  0
  9 11  1  0
 11 12  1  0
 12 13  1  0
 13 14  1  0
 13 15  2  0
 15 16  1  0
 16 17  1  0
 16 18  1  0
 18 19  1  0
 11 20  1  0
 20 21  1  0
 20 22  1  0
 20 23  1  0
  6 24  1  0
 24 25  1  0
 24 26  2  0
 26 27  1  0
 26  2  1  0
 18 12  2  0
M  END
>  <cnnaffinity>  (1) 
-4.88878

>  <filename>  (1) 
CN(NC(=O)c1cccnc1)c1cn[nH]c1

$$$$
