
     RDKit          3D

 30 31  0  0  0  0  0  0  0  0999 V2000
    6.3372   -4.8415   26.4583 H   0  0  0  0  0  0  0  0  0  0  0  0
    6.0943   -5.0212   25.5407 O   0  0  0  0  0  0  0  0  0  0  0  0
    6.3545   -3.8997   24.7849 C   0  0  0  0  0  0  0  0  0  0  0  0
    6.8825   -2.7221   25.3143 C   0  0  0  0  0  0  0  0  0  0  0  0
    7.1076   -2.6536   26.3785 H   0  0  0  0  0  0  0  0  0  0  0  0
    7.1302   -1.6034   24.5002 C   0  0  0  0  0  0  0  0  0  0  0  0
    7.5407   -0.6959   24.9311 H   0  0  0  0  0  0  0  0  0  0  0  0
    6.8607   -1.6381   23.1177 C   0  0  0  0  0  0  0  0  0  0  0  0
    7.0733   -0.5196   22.2829 N   0  0  0  0  0  0  0  0  0  0  0  0
    7.3719   -0.6697   20.9369 N   0  0  0  0  0  0  0  0  0  0  0  0
    8.0256   -1.4008   20.6879 H   0  0  0  0  0  0  0  0  0  0  0  0
    6.6566   -0.0127   19.9333 C   0  0  0  0  0  0  0  0  0  0  0  0
    7.1650    0.0441   18.6123 C   0  0  0  0  0  0  0  0  0  0  0  0
    8.1184   -0.4321   18.3817 H   0  0  0  0  0  0  0  0  0  0  0  0
    6.5675    0.6700   17.5903 N   0  0  0  0  0  0  0  0  0  0  0  0
    5.4023    1.2921   17.8397 C   0  0  0  0  0  0  0  0  0  0  0  0
    4.9227    1.7829   16.9951 H   0  0  0  0  0  0  0  0  0  0  0  0
    4.8109    1.3035   19.1065 C   0  0  0  0  0  0  0  0  0  0  0  0
    3.8818    1.8373   19.2617 H   0  0  0  0  0  0  0  0  0  0  0  0
    5.4365    0.6424   20.1677 C   0  0  0  0  0  0  0  0  0  0  0  0
    5.0185    0.6173   21.1735 H   0  0  0  0  0  0  0  0  0  0  0  0
    7.3241    0.8041   22.8333 C   0  0  0  0  0  0  0  0  0  0  0  0
    7.3005    1.5588   22.0387 H   0  0  0  0  0  0  0  0  0  0  0  0
    6.5433    1.0647   23.5557 H   0  0  0  0  0  0  0  0  0  0  0  0
    8.3025    0.8936   23.3283 H   0  0  0  0  0  0  0  0  0  0  0  0
    6.3238   -2.8321   22.5961 C   0  0  0  0  0  0  0  0  0  0  0  0
    6.0778   -2.9015   21.5488 H   0  0  0  0  0  0  0  0  0  0  0  0
    6.0703   -3.9410   23.3939 C   0  0  0  0  0  0  0  0  0  0  0  0
    5.5557   -5.0273   22.7532 O   0  0  0  0  0  0  0  0  0  0  0  0
    5.4298   -5.7219   23.4140 H   0  0  0  0  0  0  0  0  0  0  0  0
  1  2  1  0
  2  3  1  0
  3  4  2  0
  4  5  1  0
  4  6  1  0
  6  7  1  0
  6  8  2  0
  8  9  1  0
  9 10  1  0
 10 11  1  0
 10 12  1  0
 12 13  2  0
 13 14  1  0
 13 15  1  0
 15 16  2  0
 16 17  1  0
 16 18  1  0
 18 19  1  0
 18 20  2  0
 20 21  1  0
  9 22  1  0
 22 23  1  0
 22 24  1  0
 22 25  1  0
  8 26  1  0
 26 27  1  0
 26 28  2  0
 28 29  1  0
 29 30  1  0
 28  3  1  0
 20 12  1  0
M  END
>  <cnnaffinity>  (1) 
-4.64091

>  <filename>  (1) 
CN(Nc1cccnc1)c1ccc(O)c(O)c1

$$$$
