
     RDKit          3D

 33 34  0  0  0  0  0  0  0  0999 V2000
    4.9645    1.8247   17.0030 H   0  0  0  0  0  0  0  0  0  0  0  0
    5.4391    1.3179   17.8390 C   0  0  0  0  0  0  0  0  0  0  0  0
    6.5998    0.6948   17.5818 N   0  0  0  0  0  0  0  0  0  0  0  0
    7.1869    0.0403   18.5920 C   0  0  0  0  0  0  0  0  0  0  0  0
    8.1285   -0.4535   18.3475 H   0  0  0  0  0  0  0  0  0  0  0  0
    6.6646   -0.0378   19.9090 C   0  0  0  0  0  0  0  0  0  0  0  0
    7.3252   -0.8364   20.8907 N   0  0  0  0  0  0  0  0  0  0  0  0
    8.3278   -0.6597   20.8871 H   0  0  0  0  0  0  0  0  0  0  0  0
    6.9247   -0.6112   22.2384 N   0  0  0  0  0  0  0  0  0  0  0  0
    7.7208    0.4585   22.7264 N   0  0  0  0  0  0  0  0  0  0  0  0
    9.1566    0.4508   22.7503 C   0  0  0  0  0  0  0  0  0  0  0  0
    9.8799    0.0009   23.8733 C   0  0  0  0  0  0  0  0  0  0  0  0
    9.3326   -0.4045   24.7233 H   0  0  0  0  0  0  0  0  0  0  0  0
   11.2792    0.0754   23.8843 C   0  0  0  0  0  0  0  0  0  0  0  0
   11.8321   -0.2651   24.7544 H   0  0  0  0  0  0  0  0  0  0  0  0
   11.9680    0.6130   22.7900 C   0  0  0  0  0  0  0  0  0  0  0  0
   13.0545    0.6524   22.7908 H   0  0  0  0  0  0  0  0  0  0  0  0
   11.2533    1.1183   21.6989 C   0  0  0  0  0  0  0  0  0  0  0  0
   11.7793    1.5650   20.8613 H   0  0  0  0  0  0  0  0  0  0  0  0
    9.8564    1.0476   21.6853 C   0  0  0  0  0  0  0  0  0  0  0  0
    9.2675    1.4781   20.8802 H   0  0  0  0  0  0  0  0  0  0  0  0
    7.0349    1.4714   23.5046 C   0  0  0  0  0  0  0  0  0  0  0  0
    5.9540    1.2902   23.4919 H   0  0  0  0  0  0  0  0  0  0  0  0
    7.2212    2.4736   23.0922 H   0  0  0  0  0  0  0  0  0  0  0  0
    7.3705    1.4766   24.5529 H   0  0  0  0  0  0  0  0  0  0  0  0
    7.1814   -1.8550   23.0107 C   0  0  0  0  0  0  0  0  0  0  0  0
    6.5703   -2.6475   22.5713 H   0  0  0  0  0  0  0  0  0  0  0  0
    8.2422   -2.1514   22.9758 H   0  0  0  0  0  0  0  0  0  0  0  0
    6.8837   -1.7209   24.0569 H   0  0  0  0  0  0  0  0  0  0  0  0
    5.4542    0.6274   20.1549 C   0  0  0  0  0  0  0  0  0  0  0  0
    5.0324    0.6053   21.1588 H   0  0  0  0  0  0  0  0  0  0  0  0
    4.8386    1.3087   19.1007 C   0  0  0  0  0  0  0  0  0  0  0  0
    3.9033    1.8300   19.2550 H   0  0  0  0  0  0  0  0  0  0  0  0
  1  2  1  0
  2  3  2  0
  3  4  1  0
  4  5  1  0
  4  6  2  0
  6  7  1  0
  7  8  1  0
  7  9  1  0
  9 10  1  0
 10 11  1  0
 11 12  2  0
 12 13  1  0
 12 14  1  0
 14 15  1  0
 14 16  2  0
 16 17  1  0
 16 18  1  0
 18 19  1  0
 18 20  2  0
 20 21  1  0
 10 22  1  0
 22 23  1  0
 22 24  1  0
 22 25  1  0
  9 26  1  0
 26 27  1  0
 26 28  1  0
 26 29  1  0
  6 30  1  0
 30 31  1  0
 30 32  2  0
 32 33  1  0
 32  2  1  0
 20 11  1  0
M  END
>  <cnnaffinity>  (1) 
-4.98401

>  <filename>  (1) 
CN(Nc1cccnc1)N(C)c1ccccc1

$$$$
