
     RDKit          3D

 37 39  0  0  0  0  0  0  0  0999 V2000
    5.0208    1.8378   16.9677 H   0  0  0  0  0  0  0  0  0  0  0  0
    5.4771    1.3107   17.8040 C   0  0  0  0  0  0  0  0  0  0  0  0
    6.6403    0.6878   17.5523 N   0  0  0  0  0  0  0  0  0  0  0  0
    7.2221    0.0262   18.5593 C   0  0  0  0  0  0  0  0  0  0  0  0
    8.1633   -0.4673   18.3307 H   0  0  0  0  0  0  0  0  0  0  0  0
    6.6873   -0.0805   19.8722 C   0  0  0  0  0  0  0  0  0  0  0  0
    7.3359   -0.8298   20.8629 N   0  0  0  0  0  0  0  0  0  0  0  0
    8.7190   -1.0746   20.6925 N   0  0  0  0  0  0  0  0  0  0  0  0
    8.8308   -2.0881   20.7665 H   0  0  0  0  0  0  0  0  0  0  0  0
    9.4781   -0.4657   21.7551 N   0  0  0  0  0  0  0  0  0  0  0  0
    9.5159    0.9846   21.4525 C   0  0  0  0  0  0  0  0  0  0  0  0
    8.5079    1.4056   21.5470 H   0  0  0  0  0  0  0  0  0  0  0  0
    9.8184    1.1217   20.3992 H   0  0  0  0  0  0  0  0  0  0  0  0
   10.4756    1.7701   22.3224 C   0  0  0  0  0  0  0  0  0  0  0  0
   10.3560    3.1644   22.4063 C   0  0  0  0  0  0  0  0  0  0  0  0
    9.4790    3.6539   21.9875 H   0  0  0  0  0  0  0  0  0  0  0  0
   11.3909    3.9347   22.9389 C   0  0  0  0  0  0  0  0  0  0  0  0
   11.3249    5.0218   22.9387 H   0  0  0  0  0  0  0  0  0  0  0  0
   12.5435    3.3087   23.4255 C   0  0  0  0  0  0  0  0  0  0  0  0
   13.3759    3.9117   23.7782 H   0  0  0  0  0  0  0  0  0  0  0  0
   12.6268    1.9118   23.4347 C   0  0  0  0  0  0  0  0  0  0  0  0
   13.5052    1.4108   23.8447 H   0  0  0  0  0  0  0  0  0  0  0  0
   11.5839    1.1343   22.9120 C   0  0  0  0  0  0  0  0  0  0  0  0
   11.6132   -0.3802   22.9646 C   0  0  0  0  0  0  0  0  0  0  0  0
   11.1578   -0.7199   23.9045 H   0  0  0  0  0  0  0  0  0  0  0  0
   12.6550   -0.7195   22.9589 H   0  0  0  0  0  0  0  0  0  0  0  0
   10.8425   -1.0226   21.8081 C   0  0  0  0  0  0  0  0  0  0  0  0
   10.7953   -2.1063   21.9826 H   0  0  0  0  0  0  0  0  0  0  0  0
   11.3752   -0.8626   20.8533 H   0  0  0  0  0  0  0  0  0  0  0  0
    6.7902   -1.0473   22.1896 C   0  0  0  0  0  0  0  0  0  0  0  0
    6.5761   -0.1086   22.7215 H   0  0  0  0  0  0  0  0  0  0  0  0
    7.5355   -1.6019   22.7682 H   0  0  0  0  0  0  0  0  0  0  0  0
    5.8725   -1.6382   22.1200 H   0  0  0  0  0  0  0  0  0  0  0  0
    5.4665    0.5854   20.1098 C   0  0  0  0  0  0  0  0  0  0  0  0
    5.0085    0.5573   21.0989 H   0  0  0  0  0  0  0  0  0  0  0  0
    4.8631    1.2861   19.0589 C   0  0  0  0  0  0  0  0  0  0  0  0
    3.9285    1.8190   19.2027 H   0  0  0  0  0  0  0  0  0  0  0  0
  1  2  1  0
  2  3  2  0
  3  4  1  0
  4  5  1  0
  4  6  2  0
  6  7  1  0
  7  8  1  0
  8  9  1  0
  8 10  1  0
 10 11  1  0
 11 12  1  0
 11 13  1  0
 11 14  1  0
 14 15  2  0
 15 16  1  0
 15 17  1  0
 17 18  1  0
 17 19  2  0
 19 20  1  0
 19 21  1  0
 21 22  1  0
 21 23  2  0
 23 24  1  0
 24 25  1  0
 24 26  1  0
 24 27  1  0
 27 28  1  0
 27 29  1  0
  7 30  1  0
 30 31  1  0
 30 32  1  0
 30 33  1  0
  6 34  1  0
 34 35  1  0
 34 36  2  0
 36 37  1  0
 36  2  1  0
 27 10  1  0
 23 14  1  0
M  END
>  <cnnaffinity>  (1) 
-4.71995

>  <filename>  (1) 
CN(NN1CCc2ccccc2C1)c1cccnc1

$$$$
