
     RDKit          3D

 27 28  0  0  0  0  0  0  0  0999 V2000
    7.8452    1.9448   21.3871 H   0  0  0  0  0  0  0  0  0  0  0  0
    7.6588    1.4041   22.3240 C   0  0  0  0  0  0  0  0  0  0  0  0
    7.5705    2.0234   23.5273 C   0  0  0  0  0  0  0  0  0  0  0  0
    7.6621    3.7554   23.8283 S   0  0  0  0  0  0  0  0  0  0  0  0
    7.1451    3.5528   25.5062 C   0  0  0  0  0  0  0  0  0  0  0  0
    6.9705    4.7407   26.6097 S   0  0  0  0  0  0  0  0  0  0  0  0
    6.9586    2.2246   25.7477 N   0  0  0  0  0  0  0  0  0  0  0  0
    6.6897    1.8651   26.6476 H   0  0  0  0  0  0  0  0  0  0  0  0
    7.2065    1.3141   24.7453 C   0  0  0  0  0  0  0  0  0  0  0  0
    7.0978    0.1112   24.9221 O   0  0  0  0  0  0  0  0  0  0  0  0
    7.4529    0.0645   22.2140 N   0  0  0  0  0  0  0  0  0  0  0  0
    7.1509   -0.4226   23.0675 H   0  0  0  0  0  0  0  0  0  0  0  0
    7.3695   -0.5635   20.9856 N   0  0  0  0  0  0  0  0  0  0  0  0
    6.6456    0.0309   19.9309 C   0  0  0  0  0  0  0  0  0  0  0  0
    7.1651    0.0602   18.6209 C   0  0  0  0  0  0  0  0  0  0  0  0
    8.1140   -0.4332   18.4203 H   0  0  0  0  0  0  0  0  0  0  0  0
    6.5799    0.6736   17.5820 N   0  0  0  0  0  0  0  0  0  0  0  0
    5.4105    1.2912   17.8151 C   0  0  0  0  0  0  0  0  0  0  0  0
    4.9492    1.7907   16.9658 H   0  0  0  0  0  0  0  0  0  0  0  0
    4.7848    1.2985   19.0697 C   0  0  0  0  0  0  0  0  0  0  0  0
    3.8356    1.8095   19.1975 H   0  0  0  0  0  0  0  0  0  0  0  0
    5.4038    0.6596   20.1454 C   0  0  0  0  0  0  0  0  0  0  0  0
    4.9695    0.6464   21.1473 H   0  0  0  0  0  0  0  0  0  0  0  0
    7.8582   -1.9270   20.8767 C   0  0  0  0  0  0  0  0  0  0  0  0
    8.8935   -1.9748   20.5072 H   0  0  0  0  0  0  0  0  0  0  0  0
    7.2027   -2.4667   20.1888 H   0  0  0  0  0  0  0  0  0  0  0  0
    7.8084   -2.4436   21.8422 H   0  0  0  0  0  0  0  0  0  0  0  0
  1  2  1  0
  2  3  2  3
  3  4  1  0
  4  5  1  0
  5  6  2  0
  5  7  1  0
  7  8  1  0
  7  9  1  0
  9 10  2  0
  2 11  1  0
 11 12  1  0
 11 13  1  0
 13 14  1  0
 14 15  2  0
 15 16  1  0
 15 17  1  0
 17 18  2  0
 18 19  1  0
 18 20  1  0
 20 21  1  0
 20 22  2  0
 22 23  1  0
 13 24  1  0
 24 25  1  0
 24 26  1  0
 24 27  1  0
  9  3  1  0
 22 14  1  0
M  END
>  <cnnaffinity>  (1) 
-4.34709

>  <filename>  (1) 
CN(NC=C1SC(=S)NC1=O)c1cccnc1

$$$$
