
     RDKit          3D

 40 41  0  0  0  0  0  0  0  0999 V2000
    4.9754    1.8779   17.1741 H   0  0  0  0  0  0  0  0  0  0  0  0
    5.4268    1.2529   17.9449 C   0  0  0  0  0  0  0  0  0  0  0  0
    6.5101    0.5456   17.5875 N   0  0  0  0  0  0  0  0  0  0  0  0
    7.1032   -0.1989   18.5305 C   0  0  0  0  0  0  0  0  0  0  0  0
    7.9859   -0.7597   18.2213 H   0  0  0  0  0  0  0  0  0  0  0  0
    6.6645   -0.2803   19.8708 C   0  0  0  0  0  0  0  0  0  0  0  0
    7.4394   -1.0264   20.8051 N   0  0  0  0  0  0  0  0  0  0  0  0
    6.6907   -1.6357   21.8238 N   0  0  0  0  0  0  0  0  0  0  0  0
    6.2666   -2.4957   21.5221 H   0  0  0  0  0  0  0  0  0  0  0  0
    6.9348   -1.6394   23.1932 C   0  0  0  0  0  0  0  0  0  0  0  0
    7.5639   -0.8451   23.8412 O   0  0  0  0  0  0  0  0  0  0  0  0
    6.3084   -2.7701   23.7150 N   0  0  0  0  0  0  0  0  0  0  0  0
    5.4880   -3.0796   23.2345 H   0  0  0  0  0  0  0  0  0  0  0  0
    6.4953   -3.2246   25.0070 C   0  0  0  0  0  0  0  0  0  0  0  0
    7.3687   -2.8258   25.7366 O   0  0  0  0  0  0  0  0  0  0  0  0
    5.5326   -4.3449   25.4243 C   0  0  0  0  0  0  0  0  0  0  0  0
    4.8100   -4.5228   24.6214 H   0  0  0  0  0  0  0  0  0  0  0  0
    4.7230   -3.9431   26.6836 C   0  0  0  0  0  0  0  0  0  0  0  0
    5.4152   -3.5663   27.4480 H   0  0  0  0  0  0  0  0  0  0  0  0
    4.0553   -3.1036   26.4370 H   0  0  0  0  0  0  0  0  0  0  0  0
    3.8927   -5.1112   27.2342 C   0  0  0  0  0  0  0  0  0  0  0  0
    3.0603   -5.3154   26.5472 H   0  0  0  0  0  0  0  0  0  0  0  0
    3.4522   -4.8171   28.1928 H   0  0  0  0  0  0  0  0  0  0  0  0
    4.7164   -6.3877   27.4195 C   0  0  0  0  0  0  0  0  0  0  0  0
    4.0771   -7.2030   27.7813 H   0  0  0  0  0  0  0  0  0  0  0  0
    5.4671   -6.2128   28.2020 H   0  0  0  0  0  0  0  0  0  0  0  0
    5.4433   -6.7954   26.1339 C   0  0  0  0  0  0  0  0  0  0  0  0
    4.7209   -7.0885   25.3611 H   0  0  0  0  0  0  0  0  0  0  0  0
    6.0415   -7.6873   26.3290 H   0  0  0  0  0  0  0  0  0  0  0  0
    6.3308   -5.6624   25.6022 C   0  0  0  0  0  0  0  0  0  0  0  0
    6.7941   -5.9435   24.6426 H   0  0  0  0  0  0  0  0  0  0  0  0
    7.1549   -5.4746   26.3030 H   0  0  0  0  0  0  0  0  0  0  0  0
    8.7254   -0.4531   21.2158 C   0  0  0  0  0  0  0  0  0  0  0  0
    9.2248   -0.0648   20.3247 H   0  0  0  0  0  0  0  0  0  0  0  0
    9.3319   -1.2509   21.6550 H   0  0  0  0  0  0  0  0  0  0  0  0
    8.6045    0.3410   21.9640 H   0  0  0  0  0  0  0  0  0  0  0  0
    5.4961    0.4181   20.2112 C   0  0  0  0  0  0  0  0  0  0  0  0
    5.1227    0.3464   21.2309 H   0  0  0  0  0  0  0  0  0  0  0  0
    4.8813    1.2094   19.2325 C   0  0  0  0  0  0  0  0  0  0  0  0
    4.0009    1.7979   19.4609 H   0  0  0  0  0  0  0  0  0  0  0  0
  1  2  1  0
  2  3  2  0
  3  4  1  0
  4  5  1  0
  4  6  2  0
  6  7  1  0
  7  8  1  0
  8  9  1  0
  8 10  1  0
 10 11  2  0
 10 12  1  0
 12 13  1  0
 12 14  1  0
 14 15  2  0
 14 16  1  0
 16 17  1  0
 16 18  1  0
 18 19  1  0
 18 20  1  0
 18 21  1  0
 21 22  1  0
 21 23  1  0
 21 24  1  0
 24 25  1  0
 24 26  1  0
 24 27  1  0
 27 28  1  0
 27 29  1  0
 27 30  1  0
 30 31  1  0
 30 32  1  0
  7 33  1  0
 33 34  1  0
 33 35  1  0
 33 36  1  0
  6 37  1  0
 37 38  1  0
 37 39  2  0
 39 40  1  0
 39  2  1  0
 30 16  1  0
M  END
>  <cnnaffinity>  (1) 
-4.92207

>  <filename>  (1) 
CN(NC(=O)NC(=O)C1CCCCC1)c1cccnc1

$$$$
