
     RDKit          3D

 42 44  0  0  0  0  0  0  0  0999 V2000
    6.1146    6.7811   25.3622 H   0  0  0  0  0  0  0  0  0  0  0  0
    6.6691    6.5417   24.4547 C   0  0  0  0  0  0  0  0  0  0  0  0
    7.1730    5.2979   24.4004 N   0  0  0  0  0  0  0  0  0  0  0  0
    7.8425    4.9573   23.2926 C   0  0  0  0  0  0  0  0  0  0  0  0
    8.3234    3.6529   23.1604 N   0  0  0  0  0  0  0  0  0  0  0  0
    8.1628    2.6486   24.2256 C   0  0  0  0  0  0  0  0  0  0  0  0
    7.1313    2.2535   24.2320 H   0  0  0  0  0  0  0  0  0  0  0  0
    8.3604    3.0998   25.2027 H   0  0  0  0  0  0  0  0  0  0  0  0
    9.1648    1.4976   23.9826 C   0  0  0  0  0  0  0  0  0  0  0  0
   10.1700    1.9279   23.9671 H   0  0  0  0  0  0  0  0  0  0  0  0
    9.1482    0.7529   24.7803 H   0  0  0  0  0  0  0  0  0  0  0  0
    8.9995    0.8123   22.6742 N   0  0  0  0  0  0  0  0  0  0  0  0
    7.7065    0.1175   22.5068 N   0  0  0  0  0  0  0  0  0  0  0  0
    7.3355   -0.6438   23.7199 C   0  0  0  0  0  0  0  0  0  0  0  0
    6.4248   -1.2115   23.5235 H   0  0  0  0  0  0  0  0  0  0  0  0
    8.1466   -1.3139   24.0412 H   0  0  0  0  0  0  0  0  0  0  0  0
    7.1185    0.0619   24.5251 H   0  0  0  0  0  0  0  0  0  0  0  0
    7.5256   -0.9704   21.1049 S   0  0  0  0  0  0  0  0  0  0  0  0
    6.6076   -2.0437   21.4432 O   0  0  0  0  0  0  0  0  0  0  0  0
    8.8340   -1.2794   20.5680 O   0  0  0  0  0  0  0  0  0  0  0  0
    6.6878    0.0620   19.9789 C   0  0  0  0  0  0  0  0  0  0  0  0
    7.2236    0.0403   18.7004 C   0  0  0  0  0  0  0  0  0  0  0  0
    8.1530   -0.4770   18.4666 H   0  0  0  0  0  0  0  0  0  0  0  0
    6.6316    0.6522   17.6799 N   0  0  0  0  0  0  0  0  0  0  0  0
    5.4735    1.2853   17.9170 C   0  0  0  0  0  0  0  0  0  0  0  0
    5.0044    1.7581   17.0582 H   0  0  0  0  0  0  0  0  0  0  0  0
    4.8673    1.3368   19.1762 C   0  0  0  0  0  0  0  0  0  0  0  0
    3.9194    1.8493   19.2812 H   0  0  0  0  0  0  0  0  0  0  0  0
    5.4914    0.7273   20.2631 C   0  0  0  0  0  0  0  0  0  0  0  0
    5.0541    0.7857   21.2679 H   0  0  0  0  0  0  0  0  0  0  0  0
    9.1453    1.8383   21.6331 C   0  0  0  0  0  0  0  0  0  0  0  0
    8.9683    1.4167   20.6429 H   0  0  0  0  0  0  0  0  0  0  0  0
   10.1799    2.1902   21.6512 H   0  0  0  0  0  0  0  0  0  0  0  0
    8.2151    3.0363   21.8263 C   0  0  0  0  0  0  0  0  0  0  0  0
    8.5349    3.7699   21.1036 H   0  0  0  0  0  0  0  0  0  0  0  0
    7.1771    2.7228   21.6115 H   0  0  0  0  0  0  0  0  0  0  0  0
    8.1110    5.8920   22.2561 C   0  0  0  0  0  0  0  0  0  0  0  0
    8.7311    5.5961   21.4250 H   0  0  0  0  0  0  0  0  0  0  0  0
    7.5856    7.1697   22.3338 C   0  0  0  0  0  0  0  0  0  0  0  0
    7.7307    7.8677   21.5038 H   0  0  0  0  0  0  0  0  0  0  0  0
    6.8294    7.5110   23.4611 C   0  0  0  0  0  0  0  0  0  0  0  0
    6.3787    8.4952   23.5518 H   0  0  0  0  0  0  0  0  0  0  0  0
  1  2  1  0
  2  3  2  0
  3  4  1  0
  4  5  1  0
  5  6  1  0
  6  7  1  0
  6  8  1  0
  6  9  1  0
  9 10  1  0
  9 11  1  0
  9 12  1  0
 12 13  1  0
 13 14  1  0
 14 15  1  0
 14 16  1  0
 14 17  1  0
 13 18  1  0
 18 19  2  0
 18 20  2  0
 18 21  1  0
 21 22  2  0
 22 23  1  0
 22 24  1  0
 24 25  2  0
 25 26  1  0
 25 27  1  0
 27 28  1  0
 27 29  2  0
 29 30  1  0
 12 31  1  0
 31 32  1  0
 31 33  1  0
 31 34  1  0
 34 35  1  0
 34 36  1  0
  4 37  2  0
 37 38  1  0
 37 39  1  0
 39 40  1  0
 39 41  2  0
 41 42  1  0
 41  2  1  0
 34  5  1  0
 29 21  1  0
M  END
>  <cnnaffinity>  (1) 
-5.11063

>  <filename>  (1) 
CN(N1CCN(c2ccccn2)CC1)S(=O)(=O)c1cccnc1

$$$$
