
     RDKit          3D

 31 33  0  0  0  0  0  0  0  0999 V2000
    4.9779    1.8153   16.9975 H   0  0  0  0  0  0  0  0  0  0  0  0
    5.4276    1.2835   17.8335 C   0  0  0  0  0  0  0  0  0  0  0  0
    6.5779    0.6352   17.5770 N   0  0  0  0  0  0  0  0  0  0  0  0
    7.1449   -0.0132   18.5979 C   0  0  0  0  0  0  0  0  0  0  0  0
    8.0808   -0.5253   18.3817 H   0  0  0  0  0  0  0  0  0  0  0  0
    6.6317   -0.0668   19.9142 C   0  0  0  0  0  0  0  0  0  0  0  0
    7.3602   -0.7834   20.8975 N   0  0  0  0  0  0  0  0  0  0  0  0
    8.3550   -0.7896   20.6643 H   0  0  0  0  0  0  0  0  0  0  0  0
    7.1422   -0.4819   22.2483 N   0  0  0  0  0  0  0  0  0  0  0  0
    6.9959   -1.5015   23.1768 C   0  0  0  0  0  0  0  0  0  0  0  0
    6.9868   -1.3434   24.4752 N   0  0  0  0  0  0  0  0  0  0  0  0
    6.8231   -2.6299   24.9713 C   0  0  0  0  0  0  0  0  0  0  0  0
    6.7570   -3.0710   26.2989 C   0  0  0  0  0  0  0  0  0  0  0  0
    6.8390   -2.3420   27.1010 H   0  0  0  0  0  0  0  0  0  0  0  0
    6.5964   -4.4381   26.5374 C   0  0  0  0  0  0  0  0  0  0  0  0
    6.5467   -4.7973   27.5614 H   0  0  0  0  0  0  0  0  0  0  0  0
    6.5035   -5.3615   25.4690 C   0  0  0  0  0  0  0  0  0  0  0  0
    6.3769   -6.4212   25.6879 H   0  0  0  0  0  0  0  0  0  0  0  0
    6.5738   -4.9332   24.1415 C   0  0  0  0  0  0  0  0  0  0  0  0
    6.5192   -5.6373   23.3168 H   0  0  0  0  0  0  0  0  0  0  0  0
    6.7284   -3.5654   23.9141 C   0  0  0  0  0  0  0  0  0  0  0  0
    6.8747   -2.8048   22.7685 N   0  0  0  0  0  0  0  0  0  0  0  0
    6.6004   -2.9996   21.8233 H   0  0  0  0  0  0  0  0  0  0  0  0
    7.3425    0.8676   22.7540 C   0  0  0  0  0  0  0  0  0  0  0  0
    8.2173    0.9201   23.4126 H   0  0  0  0  0  0  0  0  0  0  0  0
    7.4638    1.5723   21.9229 H   0  0  0  0  0  0  0  0  0  0  0  0
    6.4776    1.1581   23.3591 H   0  0  0  0  0  0  0  0  0  0  0  0
    5.4208    0.5947   20.1567 C   0  0  0  0  0  0  0  0  0  0  0  0
    4.9828    0.5811   21.1543 H   0  0  0  0  0  0  0  0  0  0  0  0
    4.8190    1.2811   19.0938 C   0  0  0  0  0  0  0  0  0  0  0  0
    3.8917    1.8229   19.2378 H   0  0  0  0  0  0  0  0  0  0  0  0
  1  2  1  0
  2  3  2  0
  3  4  1  0
  4  5  1  0
  4  6  2  0
  6  7  1  0
  7  8  1  0
  7  9  1  0
  9 10  1  0
 10 11  2  0
 11 12  1  0
 12 13  2  0
 13 14  1  0
 13 15  1  0
 15 16  1  0
 15 17  2  0
 17 18  1  0
 17 19  1  0
 19 20  1  0
 19 21  2  0
 21 22  1  0
 22 23  1  0
  9 24  1  0
 24 25  1  0
 24 26  1  0
 24 27  1  0
  6 28  1  0
 28 29  1  0
 28 30  2  0
 30 31  1  0
 30  2  1  0
 22 10  1  0
 21 12  1  0
M  END
>  <cnnaffinity>  (1) 
-4.72572

>  <filename>  (1) 
CN(Nc1cccnc1)c1nc2ccccc2[nH]1

$$$$
