
     RDKit          3D

 29 30  0  0  0  0  0  0  0  0999 V2000
    4.9881    1.7930   16.9829 H   0  0  0  0  0  0  0  0  0  0  0  0
    5.4470    1.2860   17.8309 C   0  0  0  0  0  0  0  0  0  0  0  0
    6.6103    0.6553   17.5991 N   0  0  0  0  0  0  0  0  0  0  0  0
    7.2091    0.0289   18.6289 C   0  0  0  0  0  0  0  0  0  0  0  0
    8.1521   -0.4683   18.4068 H   0  0  0  0  0  0  0  0  0  0  0  0
    6.6723   -0.0065   19.9395 C   0  0  0  0  0  0  0  0  0  0  0  0
    7.2686   -0.6264   21.0291 N   0  0  0  0  0  0  0  0  0  0  0  0
    6.7622   -0.6017   21.9088 H   0  0  0  0  0  0  0  0  0  0  0  0
    8.4830   -1.3042   20.9446 N   0  0  0  0  0  0  0  0  0  0  0  0
    8.3008   -2.7377   21.1918 C   0  0  0  0  0  0  0  0  0  0  0  0
    7.4105   -3.0814   20.6618 H   0  0  0  0  0  0  0  0  0  0  0  0
    9.1567   -3.2920   20.7952 H   0  0  0  0  0  0  0  0  0  0  0  0
    8.1893   -2.9969   22.2604 H   0  0  0  0  0  0  0  0  0  0  0  0
    9.4765   -0.6805   21.8468 C   0  0  2  0  0  0  0  0  0  0  0  0
    9.0963   -0.7358   22.8855 H   0  0  0  0  0  0  0  0  0  0  0  0
    9.7687    0.7910   21.4967 C   0  0  0  0  0  0  0  0  0  0  0  0
    9.6053    0.9306   20.4196 H   0  0  0  0  0  0  0  0  0  0  0  0
    9.1573    1.4960   22.0747 H   0  0  0  0  0  0  0  0  0  0  0  0
   11.1402    1.0394   21.7946 O   0  0  0  0  0  0  0  0  0  0  0  0
   11.7622   -0.1390   22.2867 C   0  0  0  0  0  0  0  0  0  0  0  0
   11.8079   -0.1259   23.3883 H   0  0  0  0  0  0  0  0  0  0  0  0
   12.7903   -0.1399   21.9065 H   0  0  0  0  0  0  0  0  0  0  0  0
   10.8880   -1.2699   21.7528 C   0  0  0  0  0  0  0  0  0  0  0  0
   11.1226   -1.3919   20.7016 H   0  0  0  0  0  0  0  0  0  0  0  0
   11.0179   -2.2439   22.2359 H   0  0  0  0  0  0  0  0  0  0  0  0
    5.4443    0.6481   20.1474 C   0  0  0  0  0  0  0  0  0  0  0  0
    5.0144    0.6454   21.1503 H   0  0  0  0  0  0  0  0  0  0  0  0
    4.8266    1.3022   19.0840 C   0  0  0  0  0  0  0  0  0  0  0  0
    3.8875    1.8325   19.2177 H   0  0  0  0  0  0  0  0  0  0  0  0
  1  2  1  0
  2  3  2  0
  3  4  1  0
  4  5  1  0
  4  6  2  0
  6  7  1  0
  7  8  1  0
  7  9  1  0
  9 10  1  0
 10 11  1  0
 10 12  1  0
 10 13  1  0
  9 14  1  0
 14 15  1  1
 14 16  1  0
 16 17  1  0
 16 18  1  0
 16 19  1  0
 19 20  1  0
 20 21  1  0
 20 22  1  0
 20 23  1  0
 23 24  1  0
 23 25  1  0
  6 26  1  0
 26 27  1  0
 26 28  2  0
 28 29  1  0
 28  2  1  0
 23 14  1  0
M  END
>  <cnnaffinity>  (1) 
-4.21918

>  <filename>  (1) 
CN(Nc1cccnc1)[C@H]1CCOC1

$$$$
