
     RDKit          3D

 33 34  0  0  0  0  0  0  0  0999 V2000
    4.9238    1.7832   16.9948 H   0  0  0  0  0  0  0  0  0  0  0  0
    5.4025    1.2917   17.8397 C   0  0  0  0  0  0  0  0  0  0  0  0
    6.5669    0.6694   17.5906 N   0  0  0  0  0  0  0  0  0  0  0  0
    7.1645    0.0433   18.6126 C   0  0  0  0  0  0  0  0  0  0  0  0
    8.1185   -0.4321   18.3826 H   0  0  0  0  0  0  0  0  0  0  0  0
    6.6545   -0.0119   19.9319 C   0  0  0  0  0  0  0  0  0  0  0  0
    7.3693   -0.6671   20.9351 N   0  0  0  0  0  0  0  0  0  0  0  0
    8.0273   -1.3939   20.6918 H   0  0  0  0  0  0  0  0  0  0  0  0
    7.0819   -0.5025   22.2787 N   0  0  0  0  0  0  0  0  0  0  0  0
    6.8583   -1.6189   23.1065 C   0  0  0  0  0  0  0  0  0  0  0  0
    7.1462   -1.5841   24.4916 C   0  0  0  0  0  0  0  0  0  0  0  0
    7.5642   -0.6860   24.9341 H   0  0  0  0  0  0  0  0  0  0  0  0
    6.9010   -2.7005   25.2947 C   0  0  0  0  0  0  0  0  0  0  0  0
    7.1335   -2.6650   26.3565 H   0  0  0  0  0  0  0  0  0  0  0  0
    6.3547   -3.8598   24.7502 C   0  0  0  0  0  0  0  0  0  0  0  0
    6.1788   -4.7294   25.3833 H   0  0  0  0  0  0  0  0  0  0  0  0
    6.0417   -3.9205   23.3809 C   0  0  0  0  0  0  0  0  0  0  0  0
    5.5090   -5.2029   22.7670 C   0  0  0  0  0  0  0  0  0  0  0  0
    4.8338   -4.9675   21.9360 H   0  0  0  0  0  0  0  0  0  0  0  0
    4.9037   -5.7458   23.5022 H   0  0  0  0  0  0  0  0  0  0  0  0
    6.5640   -6.1035   22.2725 N   0  0  0  0  0  0  0  0  0  0  0  0
    7.1373   -5.5606   21.6307 H   0  0  0  0  0  0  0  0  0  0  0  0
    7.1951   -6.2748   23.0542 H   0  0  0  0  0  0  0  0  0  0  0  0
    6.2998   -2.8017   22.5766 C   0  0  0  0  0  0  0  0  0  0  0  0
    6.0725   -2.8141   21.5144 H   0  0  0  0  0  0  0  0  0  0  0  0
    7.3293    0.8146   22.8364 C   0  0  0  0  0  0  0  0  0  0  0  0
    8.3080    0.8915   23.3314 H   0  0  0  0  0  0  0  0  0  0  0  0
    6.5470    1.0581   23.5638 H   0  0  0  0  0  0  0  0  0  0  0  0
    7.2979    1.5676   22.0427 H   0  0  0  0  0  0  0  0  0  0  0  0
    5.4351    0.6429   20.1668 C   0  0  0  0  0  0  0  0  0  0  0  0
    5.0189    0.6191   21.1736 H   0  0  0  0  0  0  0  0  0  0  0  0
    4.8104    1.3037   19.1058 C   0  0  0  0  0  0  0  0  0  0  0  0
    3.8831    1.8367   19.2614 H   0  0  0  0  0  0  0  0  0  0  0  0
  1  2  1  0
  2  3  2  0
  3  4  1  0
  4  5  1  0
  4  6  2  0
  6  7  1  0
  7  8  1  0
  7  9  1  0
  9 10  1  0
 10 11  2  0
 11 12  1  0
 11 13  1  0
 13 14  1  0
 13 15  2  0
 15 16  1  0
 15 17  1  0
 17 18  1  0
 18 19  1  0
 18 20  1  0
 18 21  1  0
 21 22  1  0
 21 23  1  0
 17 24  2  0
 24 25  1  0
  9 26  1  0
 26 27  1  0
 26 28  1  0
 26 29  1  0
  6 30  1  0
 30 31  1  0
 30 32  2  0
 32 33  1  0
 32  2  1  0
 24 10  1  0
M  END
>  <cnnaffinity>  (1) 
-4.42318

>  <filename>  (1) 
CN(Nc1cccnc1)c1cccc(CN)c1

$$$$
