
     RDKit          3D

 30 31  0  0  0  0  0  0  0  0999 V2000
    5.0960    2.1392   16.3932 H   0  0  0  0  0  0  0  0  0  0  0  0
    5.3964    1.5012   17.2245 C   0  0  0  0  0  0  0  0  0  0  0  0
    6.4705    0.7223   17.0195 N   0  0  0  0  0  0  0  0  0  0  0  0
    6.9020   -0.0370   18.0338 C   0  0  0  0  0  0  0  0  0  0  0  0
    7.7688   -0.6693   17.8415 H   0  0  0  0  0  0  0  0  0  0  0  0
    6.2981   -0.0353   19.3059 C   0  0  0  0  0  0  0  0  0  0  0  0
    6.8519   -0.8368   20.2987 O   0  0  0  0  0  0  0  0  0  0  0  0
    6.9833   -0.4151   21.6052 C   0  0  0  0  0  0  0  0  0  0  0  0
    6.5551    0.6169   22.0469 O   0  0  0  0  0  0  0  0  0  0  0  0
    7.6632   -1.4115   22.3170 N   0  0  0  0  0  0  0  0  0  0  0  0
    8.1833   -0.9424   23.5306 O   0  0  0  0  0  0  0  0  0  0  0  0
    7.8768   -1.6783   24.6568 C   0  0  0  0  0  0  0  0  0  0  0  0
    8.4840   -1.2276   25.8385 C   0  0  0  0  0  0  0  0  0  0  0  0
    9.0555   -0.3033   25.8179 H   0  0  0  0  0  0  0  0  0  0  0  0
    8.3326   -1.9701   27.0085 C   0  0  0  0  0  0  0  0  0  0  0  0
    8.7884   -1.6103   27.9278 H   0  0  0  0  0  0  0  0  0  0  0  0
    7.6131   -3.1726   27.0040 C   0  0  0  0  0  0  0  0  0  0  0  0
    7.5373   -3.8094   27.8761 H   0  0  0  0  0  0  0  0  0  0  0  0
    6.9538   -3.5520   25.8357 C   0  0  0  0  0  0  0  0  0  0  0  0
    5.9782   -4.9875   25.8599 Cl  0  0  0  0  0  0  0  0  0  0  0  0
    7.0536   -2.8145   24.6539 C   0  0  0  0  0  0  0  0  0  0  0  0
    6.5187   -3.1126   23.7609 H   0  0  0  0  0  0  0  0  0  0  0  0
    8.5717   -2.4008   21.7376 C   0  0  0  0  0  0  0  0  0  0  0  0
    8.0607   -2.9397   20.9448 H   0  0  0  0  0  0  0  0  0  0  0  0
    9.4877   -1.9533   21.3408 H   0  0  0  0  0  0  0  0  0  0  0  0
    8.8471   -3.1235   22.5105 H   0  0  0  0  0  0  0  0  0  0  0  0
    5.1400    0.7197   19.5012 C   0  0  0  0  0  0  0  0  0  0  0  0
    4.6309    0.6998   20.4611 H   0  0  0  0  0  0  0  0  0  0  0  0
    4.6957    1.5059   18.4315 C   0  0  0  0  0  0  0  0  0  0  0  0
    3.8387    2.1583   18.5340 H   0  0  0  0  0  0  0  0  0  0  0  0
  1  2  1  0
  2  3  2  0
  3  4  1  0
  4  5  1  0
  4  6  2  0
  6  7  1  0
  7  8  1  0
  8  9  2  0
  8 10  1  0
 10 11  1  0
 11 12  1  0
 12 13  2  0
 13 14  1  0
 13 15  1  0
 15 16  1  0
 15 17  2  0
 17 18  1  0
 17 19  1  0
 19 20  1  0
 19 21  2  0
 21 22  1  0
 10 23  1  0
 23 24  1  0
 23 25  1  0
 23 26  1  0
  6 27  1  0
 27 28  1  0
 27 29  2  0
 29 30  1  0
 29  2  1  0
 21 12  1  0
M  END
>  <cnnaffinity>  (1) 
-4.47856

>  <filename>  (1) 
CN(Oc1cccc(Cl)c1)C(=O)Oc1cccnc1

$$$$
