
     RDKit          3D

 38 40  0  0  0  0  0  0  0  0999 V2000
    4.9948    1.8063   16.9147 H   0  0  0  0  0  0  0  0  0  0  0  0
    5.4334    1.3063   17.7766 C   0  0  0  0  0  0  0  0  0  0  0  0
    6.6007    0.6795   17.5656 N   0  0  0  0  0  0  0  0  0  0  0  0
    7.1538    0.0441   18.6037 C   0  0  0  0  0  0  0  0  0  0  0  0
    8.1135   -0.4438   18.4200 H   0  0  0  0  0  0  0  0  0  0  0  0
    6.5869   -0.0144   19.8971 C   0  0  0  0  0  0  0  0  0  0  0  0
    7.2314   -0.7424   21.0040 C   0  0  0  0  0  0  0  0  0  0  0  0
    7.7904   -0.2064   22.1303 C   0  0  0  0  0  0  0  0  0  0  0  0
    7.5789    1.1653   22.6448 C   0  0  0  0  0  0  0  0  0  0  0  0
    7.2091    2.0790   21.9306 O   0  0  0  0  0  0  0  0  0  0  0  0
    7.6945    1.3437   24.0392 N   0  0  0  0  0  0  0  0  0  0  0  0
    6.7411    2.2555   24.6813 C   0  0  0  0  0  0  0  0  0  0  0  0
    5.9213    2.4637   23.9899 H   0  0  0  0  0  0  0  0  0  0  0  0
    6.3230    1.7459   25.5619 H   0  0  0  0  0  0  0  0  0  0  0  0
    7.3510    3.6059   25.1195 C   0  0  0  0  0  0  0  0  0  0  0  0
    7.2041    4.3504   24.3244 H   0  0  0  0  0  0  0  0  0  0  0  0
    6.7773    3.9622   25.9966 H   0  0  0  0  0  0  0  0  0  0  0  0
    8.7881    3.5502   25.4140 N   0  0  0  0  0  0  0  0  0  0  0  0
    9.2002    4.6973   26.2079 C   0  0  0  0  0  0  0  0  0  0  0  0
    8.9223    4.6173   27.2763 H   0  0  0  0  0  0  0  0  0  0  0  0
   10.2750    4.8853   26.1212 H   0  0  0  0  0  0  0  0  0  0  0  0
    8.7144    5.5988   25.8110 H   0  0  0  0  0  0  0  0  0  0  0  0
    9.1959    2.2305   25.8927 C   0  0  0  0  0  0  0  0  0  0  0  0
    8.6862    1.9462   26.8355 H   0  0  0  0  0  0  0  0  0  0  0  0
   10.2680    2.2113   26.1031 H   0  0  0  0  0  0  0  0  0  0  0  0
    8.9418    1.1324   24.8114 C   0  0  0  0  0  0  0  0  0  0  0  0
    9.8014    1.1296   24.1261 H   0  0  0  0  0  0  0  0  0  0  0  0
    8.9249    0.1614   25.3260 H   0  0  0  0  0  0  0  0  0  0  0  0
    8.3896   -1.3130   22.9332 C   0  0  0  0  0  0  0  0  0  0  0  0
    7.9499   -1.3763   23.9417 H   0  0  0  0  0  0  0  0  0  0  0  0
    9.4811   -1.2486   23.0373 H   0  0  0  0  0  0  0  0  0  0  0  0
    8.0820   -2.4938   22.2165 O   0  0  0  0  0  0  0  0  0  0  0  0
    7.2939   -2.2349   21.1312 C   0  0  0  0  0  0  0  0  0  0  0  0
    6.7518   -3.1055   20.5097 O   0  0  0  0  0  0  0  0  0  0  0  0
    5.3803    0.6745   20.0941 C   0  0  0  0  0  0  0  0  0  0  0  0
    4.9489    0.7243   21.0926 H   0  0  0  0  0  0  0  0  0  0  0  0
    4.7885    1.3281   19.0150 C   0  0  0  0  0  0  0  0  0  0  0  0
    3.8586    1.8682   19.1291 H   0  0  0  0  0  0  0  0  0  0  0  0
  1  2  1  0
  2  3  2  0
  3  4  1  0
  4  5  1  0
  4  6  2  0
  6  7  1  0
  7  8  2  0
  8  9  1  0
  9 10  2  0
  9 11  1  0
 11 12  1  0
 12 13  1  0
 12 14  1  0
 12 15  1  0
 15 16  1  0
 15 17  1  0
 15 18  1  0
 18 19  1  0
 19 20  1  0
 19 21  1  0
 19 22  1  0
 18 23  1  0
 23 24  1  0
 23 25  1  0
 23 26  1  0
 26 27  1  0
 26 28  1  0
  8 29  1  0
 29 30  1  0
 29 31  1  0
 29 32  1  0
 32 33  1  0
 33 34  2  0
  6 35  1  0
 35 36  1  0
 35 37  2  0
 37 38  1  0
 37  2  1  0
 33  7  1  0
 26 11  1  0
M  END
>  <cnnaffinity>  (1) 
-4.17843

>  <filename>  (1) 
CN1CCN(C(=O)C2=C(c3cccnc3)C(=O)OC2)CC1

$$$$
