
     RDKit          3D

 34 36  0  0  0  0  0  0  0  0999 V2000
    8.7203   -2.0462   25.7983 C   0  0  0  0  0  0  0  0  0  0  0  0
    8.1807   -0.8660   25.1361 N   0  0  0  0  0  0  0  0  0  0  0  0
    7.8216   -0.7521   23.8192 C   0  0  0  0  0  0  0  0  0  0  0  0
    7.6668   -1.9942   22.9460 C   0  0  0  0  0  0  0  0  0  0  0  0
    8.9195   -2.4556   22.5987 F   0  0  0  0  0  0  0  0  0  0  0  0
    7.0836   -3.0125   23.6374 F   0  0  0  0  0  0  0  0  0  0  0  0
    6.8258   -1.6630   21.6773 C   0  0  0  0  0  0  0  0  0  0  0  0
    5.7467   -2.1693   21.4753 O   0  0  0  0  0  0  0  0  0  0  0  0
    7.4528   -0.7957   20.8034 N   0  0  0  0  0  0  0  0  0  0  0  0
    6.7364   -0.0995   19.7723 C   0  0  0  0  0  0  0  0  0  0  0  0
    5.5403    0.5568   20.0719 C   0  0  0  0  0  0  0  0  0  0  0  0
    4.9059    1.2808   19.0568 C   0  0  0  0  0  0  0  0  0  0  0  0
    5.4839    1.3228   17.7842 C   0  0  0  0  0  0  0  0  0  0  0  0
    6.6360    0.6970   17.4856 N   0  0  0  0  0  0  0  0  0  0  0  0
    7.2486    0.0192   18.4644 C   0  0  0  0  0  0  0  0  0  0  0  0
    8.1975   -0.4517   18.2126 H   0  0  0  0  0  0  0  0  0  0  0  0
    5.0067    1.8748   16.9765 H   0  0  0  0  0  0  0  0  0  0  0  0
    3.9831    1.8186   19.2451 H   0  0  0  0  0  0  0  0  0  0  0  0
    5.1397    0.4938   21.0849 H   0  0  0  0  0  0  0  0  0  0  0  0
    8.1625   -0.2244   21.2333 H   0  0  0  0  0  0  0  0  0  0  0  0
    7.6499    0.4857   23.4258 N   0  0  0  0  0  0  0  0  0  0  0  0
    7.7986    1.2531   24.5750 C   0  0  0  0  0  0  0  0  0  0  0  0
    7.5902    2.6292   24.7978 C   0  0  0  0  0  0  0  0  0  0  0  0
    7.6974    3.1163   26.0985 C   0  0  0  0  0  0  0  0  0  0  0  0
    8.0222    2.2572   27.1779 C   0  0  0  0  0  0  0  0  0  0  0  0
    8.2308    0.8960   26.9767 C   0  0  0  0  0  0  0  0  0  0  0  0
    8.1047    0.4116   25.6674 C   0  0  0  0  0  0  0  0  0  0  0  0
    8.4610    0.2167   27.7938 H   0  0  0  0  0  0  0  0  0  0  0  0
    8.0945    2.6579   28.1842 H   0  0  0  0  0  0  0  0  0  0  0  0
    7.5285    4.1729   26.2924 H   0  0  0  0  0  0  0  0  0  0  0  0
    7.3512    3.2841   23.9619 H   0  0  0  0  0  0  0  0  0  0  0  0
    7.9538   -2.5673   26.3771 H   0  0  0  0  0  0  0  0  0  0  0  0
    9.1362   -2.7286   25.0544 H   0  0  0  0  0  0  0  0  0  0  0  0
    9.5228   -1.7301   26.4662 H   0  0  0  0  0  0  0  0  0  0  0  0
  1  2  1  0
  2  3  1  0
  3  4  1  0
  4  5  1  0
  4  6  1  0
  4  7  1  0
  7  8  2  0
  7  9  1  0
  9 10  1  0
 10 11  2  0
 11 12  1  0
 12 13  2  0
 13 14  1  0
 14 15  2  0
 15 16  1  0
 13 17  1  0
 12 18  1  0
 11 19  1  0
  9 20  1  0
  3 21  2  0
 21 22  1  0
 22 23  2  0
 23 24  1  0
 24 25  2  0
 25 26  1  0
 26 27  2  0
 26 28  1  0
 25 29  1  0
 24 30  1  0
 23 31  1  0
  1 32  1  0
  1 33  1  0
  1 34  1  0
 27  2  1  0
 15 10  1  0
 27 22  1  0
M  END
>  <cnnaffinity>  (1) 
-5.27797

>  <filename>  (1) 
Cn1c(C(F)(F)C(=O)Nc2cccnc2)nc2ccccc21

$$$$
