
     RDKit          3D

 36 38  0  0  0  0  0  0  0  0999 V2000
    9.2939    0.0233   20.5616 C   0  0  0  0  0  0  0  0  0  0  0  0
    8.3804   -0.9930   21.0654 N   0  0  0  0  0  0  0  0  0  0  0  0
    8.5927   -1.9637   22.0185 C   0  0  0  0  0  0  0  0  0  0  0  0
   10.1012   -2.2120   22.9272 S   0  0  0  0  0  0  0  0  0  0  0  0
   10.0137   -0.8749   24.1913 C   0  0  0  0  0  0  0  0  0  0  0  0
    8.9585   -1.0306   25.2064 C   0  0  0  0  0  0  0  0  0  0  0  0
    8.0600   -1.0432   26.0232 C   0  0  0  0  0  0  0  0  0  0  0  0
    6.7637    0.2337   27.3306 C   0  0  0  0  0  0  0  0  0  0  0  0
    6.4989    0.1694   27.3252 C   0  0  0  0  0  0  0  0  0  0  0  0
    5.9388   -0.6695   28.5135 C   0  0  0  0  0  0  0  0  0  0  0  0
    4.9836   -1.6239   28.2154 C   0  0  0  0  0  0  0  0  0  0  0  0
    4.7172   -1.8158   26.7331 C   0  0  0  0  0  0  0  0  0  0  0  0
    5.5290   -0.9673   26.0468 C   0  0  0  0  0  0  0  0  0  0  0  0
    5.5811   -0.5083   24.8437 F   0  0  0  0  0  0  0  0  0  0  0  0
    3.9936   -2.5099   26.3279 H   0  0  0  0  0  0  0  0  0  0  0  0
    4.4478   -2.1943   28.9649 H   0  0  0  0  0  0  0  0  0  0  0  0
    6.1194   -0.2983   29.5160 H   0  0  0  0  0  0  0  0  0  0  0  0
    7.7650    0.1926   27.9095 H   0  0  0  0  0  0  0  0  0  0  0  0
   11.0022   -0.8887   24.6569 H   0  0  0  0  0  0  0  0  0  0  0  0
    9.9009    0.0905   23.6893 H   0  0  0  0  0  0  0  0  0  0  0  0
    7.5195   -2.7014   22.1532 N   0  0  0  0  0  0  0  0  0  0  0  0
    6.5603   -2.2097   21.3045 N   0  0  0  0  0  0  0  0  0  0  0  0
    7.0804   -1.1970   20.6678 C   0  0  0  0  0  0  0  0  0  0  0  0
    6.4314   -0.3519   19.6474 C   0  0  0  0  0  0  0  0  0  0  0  0
    5.3390    0.4844   19.9257 C   0  0  0  0  0  0  0  0  0  0  0  0
    4.8968    1.3416   18.9182 C   0  0  0  0  0  0  0  0  0  0  0  0
    5.5390    1.3212   17.6753 C   0  0  0  0  0  0  0  0  0  0  0  0
    6.5554    0.4949   17.3827 N   0  0  0  0  0  0  0  0  0  0  0  0
    6.9738   -0.3221   18.3535 C   0  0  0  0  0  0  0  0  0  0  0  0
    7.7865   -1.0006   18.0919 H   0  0  0  0  0  0  0  0  0  0  0  0
    5.2213    1.9895   16.8772 H   0  0  0  0  0  0  0  0  0  0  0  0
    4.0793    2.0352   19.0851 H   0  0  0  0  0  0  0  0  0  0  0  0
    4.8649    0.4747   20.9092 H   0  0  0  0  0  0  0  0  0  0  0  0
    8.7619    0.9751   20.4706 H   0  0  0  0  0  0  0  0  0  0  0  0
   10.1314    0.1479   21.2513 H   0  0  0  0  0  0  0  0  0  0  0  0
    9.6813   -0.2508   19.5754 H   0  0  0  0  0  0  0  0  0  0  0  0
  1  2  1  0
  2  3  1  0
  3  4  1  0
  4  5  1  0
  5  6  1  0
  6  7  3  0
  7  8  1  0
  8  9  2  0
  9 10  1  0
 10 11  2  0
 11 12  1  0
 12 13  2  0
 13 14  1  0
 12 15  1  0
 11 16  1  0
 10 17  1  0
  9 18  1  0
  5 19  1  0
  5 20  1  0
  3 21  2  0
 21 22  1  0
 22 23  2  0
 23 24  1  0
 24 25  2  0
 25 26  1  0
 26 27  2  0
 27 28  1  0
 28 29  2  0
 29 30  1  0
 27 31  1  0
 26 32  1  0
 25 33  1  0
  1 34  1  0
  1 35  1  0
  1 36  1  0
 23  2  1  0
 29 24  1  0
 13  8  1  0
M  END
>  <cnnaffinity>  (1) 
-5.27742

>  <filename>  (1) 
Cn1c(SCC#Cc2ccccc2F)nnc1-c1cccnc1

$$$$
