
     RDKit          3D

 37 38  0  0  0  0  0  0  0  0999 V2000
    4.8877    1.8149   17.0155 H   0  0  0  0  0  0  0  0  0  0  0  0
    5.4010    1.2948   17.8198 C   0  0  0  0  0  0  0  0  0  0  0  0
    6.5651    0.6702   17.5646 N   0  0  0  0  0  0  0  0  0  0  0  0
    7.1769    0.0555   18.5921 C   0  0  0  0  0  0  0  0  0  0  0  0
    8.1265   -0.4369   18.4041 H   0  0  0  0  0  0  0  0  0  0  0  0
    6.6639    0.0125   19.8994 C   0  0  0  0  0  0  0  0  0  0  0  0
    7.4202   -0.7064   20.9884 C   0  0  2  0  0  0  0  0  0  0  0  0
    8.3316   -1.1526   20.5674 H   0  0  0  0  0  0  0  0  0  0  0  0
    6.2783   -2.1589   21.7361 Br  0  0  0  0  0  0  0  0  0  0  0  0
    7.8325    0.2933   22.0786 C   0  0  0  0  0  0  0  0  0  0  0  0
    8.1493    1.2280   21.6053 H   0  0  0  0  0  0  0  0  0  0  0  0
    6.9766    0.5143   22.7231 H   0  0  0  0  0  0  0  0  0  0  0  0
    9.0052   -0.2132   22.9120 C   0  0  0  0  0  0  0  0  0  0  0  0
    9.3399    0.5801   23.5906 H   0  0  0  0  0  0  0  0  0  0  0  0
    9.8355   -0.4560   22.2363 H   0  0  0  0  0  0  0  0  0  0  0  0
    8.6419   -1.4033   23.6997 N   0  0  0  0  0  0  0  0  0  0  0  0
    7.9003   -1.0984   24.9501 C   0  0  0  0  0  0  0  0  0  0  0  0
    8.5454   -0.5134   25.6139 H   0  0  0  0  0  0  0  0  0  0  0  0
    7.0128   -0.4970   24.7272 H   0  0  0  0  0  0  0  0  0  0  0  0
    7.4802   -2.3779   25.6999 C   0  0  0  0  0  0  0  0  0  0  0  0
    6.7400   -2.9081   25.0938 H   0  0  0  0  0  0  0  0  0  0  0  0
    7.0063   -2.1033   26.6473 H   0  0  0  0  0  0  0  0  0  0  0  0
    8.6308   -3.2765   25.9620 N   0  0  0  0  0  0  0  0  0  0  0  0
    8.2697   -4.4794   26.7287 C   0  0  0  0  0  0  0  0  0  0  0  0
    9.1607   -5.0782   26.9493 H   0  0  0  0  0  0  0  0  0  0  0  0
    7.7843   -4.2024   27.6709 H   0  0  0  0  0  0  0  0  0  0  0  0
    7.5737   -5.0931   26.1453 H   0  0  0  0  0  0  0  0  0  0  0  0
    9.3734   -3.5781   24.7159 C   0  0  0  0  0  0  0  0  0  0  0  0
   10.2652   -4.1682   24.9484 H   0  0  0  0  0  0  0  0  0  0  0  0
    8.7374   -4.1748   24.0556 H   0  0  0  0  0  0  0  0  0  0  0  0
    9.7916   -2.2994   23.9680 C   0  0  0  0  0  0  0  0  0  0  0  0
   10.2723   -2.5766   23.0237 H   0  0  0  0  0  0  0  0  0  0  0  0
   10.5295   -1.7687   24.5772 H   0  0  0  0  0  0  0  0  0  0  0  0
    5.4494    0.6516   20.1605 C   0  0  0  0  0  0  0  0  0  0  0  0
    5.0122    0.6413   21.1617 H   0  0  0  0  0  0  0  0  0  0  0  0
    4.8252    1.3001   19.0968 C   0  0  0  0  0  0  0  0  0  0  0  0
    3.8920    1.8196   19.2476 H   0  0  0  0  0  0  0  0  0  0  0  0
  1  2  1  0
  2  3  2  0
  3  4  1  0
  4  5  1  0
  4  6  2  0
  6  7  1  0
  7  8  1  6
  7  9  1  0
  7 10  1  0
 10 11  1  0
 10 12  1  0
 10 13  1  0
 13 14  1  0
 13 15  1  0
 13 16  1  0
 16 17  1  0
 17 18  1  0
 17 19  1  0
 17 20  1  0
 20 21  1  0
 20 22  1  0
 20 23  1  0
 23 24  1  0
 24 25  1  0
 24 26  1  0
 24 27  1  0
 23 28  1  0
 28 29  1  0
 28 30  1  0
 28 31  1  0
 31 32  1  0
 31 33  1  0
  6 34  1  0
 34 35  1  0
 34 36  2  0
 36 37  1  0
 36  2  1  0
 31 16  1  0
M  END
>  <cnnaffinity>  (1) 
-4.4903

>  <filename>  (1) 
CN1CCN(CC[C@@H](Br)c2cccnc2)CC1

$$$$
