
     RDKit          3D

 46 50  0  0  0  0  0  0  0  0999 V2000
   11.9446    1.8445   24.3623 C   0  0  0  0  0  0  0  0  0  0  0  0
   12.0768    2.4697   23.0546 N   0  0  0  0  0  0  0  0  0  0  0  0
   13.0215    3.4042   22.7383 C   0  0  0  0  0  0  0  0  0  0  0  0
   12.8578    3.7727   21.4242 C   0  0  0  0  0  0  0  0  0  0  0  0
   11.7868    3.0094   20.9107 C   0  0  0  0  0  0  0  0  0  0  0  0
   11.2660    2.2646   21.9520 C   0  0  0  0  0  0  0  0  0  0  0  0
    9.9939    1.5338   22.0073 C   0  0  0  0  0  0  0  0  0  0  0  0
    9.5779    0.5880   21.1792 N   0  0  0  0  0  0  0  0  0  0  0  0
    8.3461    0.2760   21.6561 C   0  0  0  0  0  0  0  0  0  0  0  0
    7.4026   -0.6888   20.9842 C   0  0  0  0  0  0  0  0  0  0  0  0
    6.6196   -0.0418   19.8489 C   0  0  0  0  0  0  0  0  0  0  0  0
    5.4193    0.6386   20.0883 C   0  0  0  0  0  0  0  0  0  0  0  0
    4.8098    1.3231   19.0333 C   0  0  0  0  0  0  0  0  0  0  0  0
    5.4239    1.3003   17.7777 C   0  0  0  0  0  0  0  0  0  0  0  0
    6.5648    0.6404   17.5206 N   0  0  0  0  0  0  0  0  0  0  0  0
    7.1311   -0.0136   18.5411 C   0  0  0  0  0  0  0  0  0  0  0  0
    8.0520   -0.5562   18.3202 H   0  0  0  0  0  0  0  0  0  0  0  0
    4.9756    1.8175   16.9314 H   0  0  0  0  0  0  0  0  0  0  0  0
    3.8797    1.8663   19.1695 H   0  0  0  0  0  0  0  0  0  0  0  0
    4.9753    0.6255   21.0863 H   0  0  0  0  0  0  0  0  0  0  0  0
    7.9794   -1.5387   20.6071 H   0  0  0  0  0  0  0  0  0  0  0  0
    6.7162   -1.0588   21.7525 H   0  0  0  0  0  0  0  0  0  0  0  0
    7.9670    0.9619   22.7126 N   0  0  0  0  0  0  0  0  0  0  0  0
    9.0177    1.7949   22.9359 N   0  0  0  0  0  0  0  0  0  0  0  0
    8.9259    2.9240   23.8063 C   0  0  0  0  0  0  0  0  0  0  0  0
    9.2844    4.1785   23.3366 C   0  0  0  0  0  0  0  0  0  0  0  0
    9.2170    5.3111   24.1777 C   0  0  0  0  0  0  0  0  0  0  0  0
    8.7704    5.1962   25.4739 C   0  0  0  0  0  0  0  0  0  0  0  0
    8.3913    3.9245   25.9888 C   0  0  0  0  0  0  0  0  0  0  0  0
    7.9258    3.7440   27.3211 C   0  0  0  0  0  0  0  0  0  0  0  0
    7.6753    2.4792   27.7848 C   0  0  0  0  0  0  0  0  0  0  0  0
    7.8139    1.3549   27.0421 N   0  0  0  0  0  0  0  0  0  0  0  0
    8.2000    1.4978   25.7871 C   0  0  0  0  0  0  0  0  0  0  0  0
    8.4916    2.7559   25.1637 C   0  0  0  0  0  0  0  0  0  0  0  0
    8.2878    0.5885   25.1974 H   0  0  0  0  0  0  0  0  0  0  0  0
    7.3456    2.3133   28.8077 H   0  0  0  0  0  0  0  0  0  0  0  0
    7.7904    4.6001   27.9729 H   0  0  0  0  0  0  0  0  0  0  0  0
    8.7039    6.0609   26.1272 H   0  0  0  0  0  0  0  0  0  0  0  0
    9.5245    6.2776   23.7817 H   0  0  0  0  0  0  0  0  0  0  0  0
    9.5987    4.3028   22.3073 H   0  0  0  0  0  0  0  0  0  0  0  0
   11.3742    3.0540   19.9109 H   0  0  0  0  0  0  0  0  0  0  0  0
   13.4790    4.4514   20.8549 H   0  0  0  0  0  0  0  0  0  0  0  0
   13.7458    3.7308   23.4777 H   0  0  0  0  0  0  0  0  0  0  0  0
   11.4919    2.5389   25.0735 H   0  0  0  0  0  0  0  0  0  0  0  0
   11.3219    0.9527   24.3007 H   0  0  0  0  0  0  0  0  0  0  0  0
   12.9236    1.5336   24.7363 H   0  0  0  0  0  0  0  0  0  0  0  0
  1  2  1  0
  2  3  1  0
  3  4  2  0
  4  5  1  0
  5  6  2  0
  6  7  1  0
  7  8  2  0
  8  9  1  0
  9 10  1  0
 10 11  1  0
 11 12  2  0
 12 13  1  0
 13 14  2  0
 14 15  1  0
 15 16  2  0
 16 17  1  0
 14 18  1  0
 13 19  1  0
 12 20  1  0
 10 21  1  0
 10 22  1  0
  9 23  2  0
 23 24  1  0
 24 25  1  0
 25 26  2  0
 26 27  1  0
 27 28  2  0
 28 29  1  0
 29 30  2  0
 30 31  1  0
 31 32  2  0
 32 33  1  0
 33 34  2  0
 33 35  1  0
 31 36  1  0
 30 37  1  0
 28 38  1  0
 27 39  1  0
 26 40  1  0
  5 41  1  0
  4 42  1  0
  3 43  1  0
  1 44  1  0
  1 45  1  0
  1 46  1  0
  6  2  1  0
 24  7  1  0
 34 25  1  0
 16 11  1  0
 34 29  1  0
M  END
>  <cnnaffinity>  (1) 
-6.18698

>  <filename>  (1) 
Cn1cccc1-c1nc(Cc2cccnc2)nn1-c1cccc2ccncc12

$$$$
