
     RDKit          3D

 41 44  0  0  0  0  0  0  0  0999 V2000
    4.9057    1.8274   16.9367 H   0  0  0  0  0  0  0  0  0  0  0  0
    5.3717    1.3168   17.7731 C   0  0  0  0  0  0  0  0  0  0  0  0
    6.5270    0.6814   17.5063 N   0  0  0  0  0  0  0  0  0  0  0  0
    7.1358    0.0709   18.5316 C   0  0  0  0  0  0  0  0  0  0  0  0
    8.0787   -0.4294   18.3020 H   0  0  0  0  0  0  0  0  0  0  0  0
    6.6461    0.0684   19.8603 C   0  0  0  0  0  0  0  0  0  0  0  0
    7.3468   -0.6416   20.9873 C   0  0  0  0  0  0  0  0  0  0  0  0
    7.7392   -0.0320   22.2275 C   0  0  0  0  0  0  0  0  0  0  0  0
    7.5961    1.3134   22.4444 N   0  0  0  0  0  0  0  0  0  0  0  0
    8.1153    2.3356   21.5537 C   0  0  0  0  0  0  0  0  0  0  0  0
    9.2132    2.2761   21.4740 H   0  0  0  0  0  0  0  0  0  0  0  0
    7.7215    2.2157   20.5403 H   0  0  0  0  0  0  0  0  0  0  0  0
    7.6815    3.6532   22.2188 C   0  0  0  0  0  0  0  0  0  0  0  0
    7.3712    4.4091   21.4909 H   0  0  0  0  0  0  0  0  0  0  0  0
    8.5343    4.0515   22.7769 H   0  0  0  0  0  0  0  0  0  0  0  0
    6.5362    3.2928   23.1864 C   0  0  2  0  0  0  0  0  0  0  0  0
    5.5714    3.4594   22.6943 H   0  0  0  0  0  0  0  0  0  0  0  0
    6.5635    3.9787   24.5617 C   0  0  0  0  0  0  0  0  0  0  0  0
    5.5358    4.0695   24.9622 H   0  0  0  0  0  0  0  0  0  0  0  0
    6.9830    4.9951   24.5102 H   0  0  0  0  0  0  0  0  0  0  0  0
    7.4015    3.1312   25.4089 N   0  0  0  0  0  0  0  0  0  0  0  0
    7.2296    3.2692   26.8372 C   0  0  0  0  0  0  0  0  0  0  0  0
    7.4277    4.2991   27.1518 H   0  0  0  0  0  0  0  0  0  0  0  0
    7.9468    2.6214   27.3561 H   0  0  0  0  0  0  0  0  0  0  0  0
    6.2132    2.9901   27.1817 H   0  0  0  0  0  0  0  0  0  0  0  0
    7.3121    1.7480   24.9370 C   0  0  0  0  0  0  0  0  0  0  0  0
    6.6518    1.1293   25.5708 H   0  0  0  0  0  0  0  0  0  0  0  0
    8.2877    1.2513   24.9444 H   0  0  0  0  0  0  0  0  0  0  0  0
    6.7321    1.8002   23.5036 C   0  0  2  0  0  0  0  0  0  0  0  0
    5.7681    1.2630   23.5003 H   0  0  0  0  0  0  0  0  0  0  0  0
    8.2631   -0.7140   23.2584 N   0  0  0  0  0  0  0  0  0  0  0  0
    8.5322   -2.0012   23.0547 C   0  0  0  0  0  0  0  0  0  0  0  0
    9.0263   -2.5128   23.8730 H   0  0  0  0  0  0  0  0  0  0  0  0
    8.2165   -2.7010   21.8972 C   0  0  0  0  0  0  0  0  0  0  0  0
    8.4906   -3.7430   21.8006 H   0  0  0  0  0  0  0  0  0  0  0  0
    7.5642   -2.0132   20.8762 C   0  0  0  0  0  0  0  0  0  0  0  0
    7.1584   -2.5309   20.0118 H   0  0  0  0  0  0  0  0  0  0  0  0
    5.4212    0.7149   20.0962 C   0  0  0  0  0  0  0  0  0  0  0  0
    4.9955    0.6890   21.1015 H   0  0  0  0  0  0  0  0  0  0  0  0
    4.7750    1.3476   19.0374 C   0  0  0  0  0  0  0  0  0  0  0  0
    3.8320    1.8663   19.1850 H   0  0  0  0  0  0  0  0  0  0  0  0
  1  2  1  0
  2  3  2  0
  3  4  1  0
  4  5  1  0
  4  6  2  0
  6  7  1  0
  7  8  1  0
  8  9  1  0
  9 10  1  0
 10 11  1  0
 10 12  1  0
 10 13  1  0
 13 14  1  0
 13 15  1  0
 13 16  1  0
 16 17  1  6
 16 18  1  0
 18 19  1  0
 18 20  1  0
 18 21  1  0
 21 22  1  0
 22 23  1  0
 22 24  1  0
 22 25  1  0
 21 26  1  0
 26 27  1  0
 26 28  1  0
 26 29  1  0
 29 30  1  1
  8 31  2  0
 31 32  1  0
 32 33  1  0
 32 34  2  0
 34 35  1  0
 34 36  1  0
 36 37  1  0
  6 38  1  0
 38 39  1  0
 38 40  2  0
 40 41  1  0
 40  2  1  0
 36  7  2  0
 29  9  1  0
 29 16  1  0
M  END
>  <cnnaffinity>  (1) 
-4.9353

>  <filename>  (1) 
CN1C[C@H]2CCN(c3ncccc3-c3cccnc3)[C@H]2C1

$$$$
