
     RDKit          3D

 37 39  0  0  0  0  0  0  0  0999 V2000
    5.0585    1.7512   16.9404 H   0  0  0  0  0  0  0  0  0  0  0  0
    5.5052    1.2611   17.8017 C   0  0  0  0  0  0  0  0  0  0  0  0
    6.6623    0.6235   17.5763 N   0  0  0  0  0  0  0  0  0  0  0  0
    7.2372    0.0158   18.6160 C   0  0  0  0  0  0  0  0  0  0  0  0
    8.1728   -0.4976   18.4091 H   0  0  0  0  0  0  0  0  0  0  0  0
    6.6964    0.0071   19.9044 C   0  0  0  0  0  0  0  0  0  0  0  0
    7.3976   -0.7214   20.9825 C   0  0  0  0  0  0  0  0  0  0  0  0
    7.0012   -0.7680   22.1187 O   0  0  0  0  0  0  0  0  0  0  0  0
    8.5025   -1.3686   20.4679 O   0  0  0  0  0  0  0  0  0  0  0  0
    9.4257   -1.9637   21.3755 N   0  0  0  0  0  0  0  0  0  0  0  0
   10.0456   -2.4182   20.6900 H   0  0  0  0  0  0  0  0  0  0  0  0
   10.2050   -0.8890   21.9333 N   0  0  0  0  0  0  0  0  0  0  0  0
   11.6070   -1.2272   22.2192 C   0  0  0  0  0  0  0  0  0  0  0  0
   12.1681   -1.3774   21.2887 H   0  0  0  0  0  0  0  0  0  0  0  0
   11.6859   -2.1584   22.8186 H   0  0  0  0  0  0  0  0  0  0  0  0
   12.0683    0.0068   23.0070 C   0  0  0  0  0  0  0  0  0  0  0  0
   12.3008    0.8110   22.2974 H   0  0  0  0  0  0  0  0  0  0  0  0
   12.9663   -0.1805   23.6043 H   0  0  0  0  0  0  0  0  0  0  0  0
   10.8383    0.3685   23.8690 C   0  0  2  0  0  0  0  0  0  0  0  0
   10.6710    1.4470   23.8730 H   0  0  0  0  0  0  0  0  0  0  0  0
   10.8267   -0.1713   25.3111 C   0  0  0  0  0  0  0  0  0  0  0  0
   10.9635    0.6195   26.0583 H   0  0  0  0  0  0  0  0  0  0  0  0
   11.6654   -0.8817   25.4321 H   0  0  0  0  0  0  0  0  0  0  0  0
    9.4985   -0.7608   25.4915 N   0  0  0  0  0  0  0  0  0  0  0  0
    9.2952   -1.6134   26.6522 C   0  0  0  0  0  0  0  0  0  0  0  0
    9.5961   -2.6660   26.4891 H   0  0  0  0  0  0  0  0  0  0  0  0
    9.8555   -1.2378   27.5172 H   0  0  0  0  0  0  0  0  0  0  0  0
    8.2417   -1.6228   26.9548 H   0  0  0  0  0  0  0  0  0  0  0  0
    9.1265   -1.3586   24.2111 C   0  0  0  0  0  0  0  0  0  0  0  0
    8.0429   -1.4799   24.1146 H   0  0  0  0  0  0  0  0  0  0  0  0
    9.6005   -2.3475   24.0285 H   0  0  0  0  0  0  0  0  0  0  0  0
    9.6480   -0.3429   23.1790 C   0  0  2  0  0  0  0  0  0  0  0  0
    8.8573    0.3699   22.9490 H   0  0  0  0  0  0  0  0  0  0  0  0
    5.4802    0.6804   20.1371 C   0  0  0  0  0  0  0  0  0  0  0  0
    5.0317    0.6988   21.1348 H   0  0  0  0  0  0  0  0  0  0  0  0
    4.8762    1.3126   19.0534 C   0  0  0  0  0  0  0  0  0  0  0  0
    3.9382    1.8516   19.1566 H   0  0  0  0  0  0  0  0  0  0  0  0
  1  2  1  0
  2  3  2  0
  3  4  1  0
  4  5  1  0
  4  6  2  0
  6  7  1  0
  7  8  2  0
  7  9  1  0
  9 10  1  0
 10 11  1  0
 10 12  1  0
 12 13  1  0
 13 14  1  0
 13 15  1  0
 13 16  1  0
 16 17  1  0
 16 18  1  0
 16 19  1  0
 19 20  1  1
 19 21  1  0
 21 22  1  0
 21 23  1  0
 21 24  1  0
 24 25  1  0
 25 26  1  0
 25 27  1  0
 25 28  1  0
 24 29  1  0
 29 30  1  0
 29 31  1  0
 29 32  1  0
 32 33  1  6
  6 34  1  0
 34 35  1  0
 34 36  2  0
 36 37  1  0
 36  2  1  0
 32 12  1  0
 32 19  1  0
M  END
>  <cnnaffinity>  (1) 
-4.75451

>  <filename>  (1) 
CN1C[C@H]2CCN(NOC(=O)c3cccnc3)[C@H]2C1

$$$$
