
     RDKit          3D

 42 44  0  0  0  0  0  0  0  0999 V2000
    4.9468    1.8052   16.9682 H   0  0  0  0  0  0  0  0  0  0  0  0
    5.4106    1.3102   17.8182 C   0  0  0  0  0  0  0  0  0  0  0  0
    6.5764    0.6888   17.5823 N   0  0  0  0  0  0  0  0  0  0  0  0
    7.1682    0.0853   18.6208 C   0  0  0  0  0  0  0  0  0  0  0  0
    8.1179   -0.4016   18.3995 H   0  0  0  0  0  0  0  0  0  0  0  0
    6.6460    0.0525   19.9293 C   0  0  0  0  0  0  0  0  0  0  0  0
    7.4083   -0.6475   21.0408 C   0  0  2  0  0  0  0  0  0  0  0  0
    6.9529   -0.3552   22.0042 H   0  0  0  0  0  0  0  0  0  0  0  0
    8.8235   -0.2855   21.0028 N   0  0  0  0  0  0  0  0  0  0  0  0
    9.2194    1.0472   21.3603 C   0  0  0  0  0  0  0  0  0  0  0  0
   10.3030    1.1549   21.1802 H   0  0  0  0  0  0  0  0  0  0  0  0
    8.6906    1.7281   20.6797 H   0  0  0  0  0  0  0  0  0  0  0  0
    8.8401    1.3738   22.7154 N   0  0  0  0  0  0  0  0  0  0  0  0
    8.9517    2.8058   23.0136 C   0  0  0  0  0  0  0  0  0  0  0  0
    8.4890    3.3804   22.2038 H   0  0  0  0  0  0  0  0  0  0  0  0
   10.0083    3.1367   23.0674 H   0  0  0  0  0  0  0  0  0  0  0  0
    8.2559    3.1976   24.3572 C   0  0  0  0  0  0  0  0  0  0  0  0
    7.2680    3.6186   24.1493 H   0  0  0  0  0  0  0  0  0  0  0  0
    8.8367    4.0120   24.8078 H   0  0  0  0  0  0  0  0  0  0  0  0
    8.1092    2.1185   25.3538 N   0  0  0  0  0  0  0  0  0  0  0  0
    6.8090    1.4509   25.2775 C   0  0  0  0  0  0  0  0  0  0  0  0
    6.0194    2.1632   25.5417 H   0  0  0  0  0  0  0  0  0  0  0  0
    6.7644    0.6355   26.0072 H   0  0  0  0  0  0  0  0  0  0  0  0
    6.5715    1.0332   24.2835 H   0  0  0  0  0  0  0  0  0  0  0  0
    9.2325    1.1826   25.2173 C   0  0  0  0  0  0  0  0  0  0  0  0
    9.1312    0.3972   25.9741 H   0  0  0  0  0  0  0  0  0  0  0  0
   10.1507    1.7229   25.4805 H   0  0  0  0  0  0  0  0  0  0  0  0
    9.3973    0.5319   23.8029 C   0  0  0  0  0  0  0  0  0  0  0  0
    8.8723   -0.4317   23.8144 H   0  0  0  0  0  0  0  0  0  0  0  0
   10.4608    0.3003   23.6398 H   0  0  0  0  0  0  0  0  0  0  0  0
    9.6771   -1.3065   21.2880 C   0  0  0  0  0  0  0  0  0  0  0  0
   10.8610   -1.1880   21.5452 O   0  0  0  0  0  0  0  0  0  0  0  0
    8.8992   -2.5957   21.2829 C   0  0  0  0  0  0  0  0  0  0  0  0
    9.3664   -3.2725   20.5720 H   0  0  0  0  0  0  0  0  0  0  0  0
    9.0395   -3.0358   22.2735 H   0  0  0  0  0  0  0  0  0  0  0  0
    7.4511   -2.1940   20.9581 C   0  0  0  0  0  0  0  0  0  0  0  0
    6.7417   -2.6649   21.6419 H   0  0  0  0  0  0  0  0  0  0  0  0
    7.1417   -2.4842   19.9568 H   0  0  0  0  0  0  0  0  0  0  0  0
    5.4169    0.6943   20.1451 C   0  0  0  0  0  0  0  0  0  0  0  0
    4.9697    0.7090   21.1437 H   0  0  0  0  0  0  0  0  0  0  0  0
    4.7911    1.3305   19.0724 C   0  0  0  0  0  0  0  0  0  0  0  0
    3.8482    1.8502   19.1958 H   0  0  0  0  0  0  0  0  0  0  0  0
  1  2  1  0
  2  3  2  0
  3  4  1  0
  4  5  1  0
  4  6  2  0
  6  7  1  0
  7  8  1  1
  7  9  1  0
  9 10  1  0
 10 11  1  0
 10 12  1  0
 10 13  1  0
 13 14  1  0
 14 15  1  0
 14 16  1  0
 14 17  1  0
 17 18  1  0
 17 19  1  0
 17 20  1  0
 20 21  1  0
 21 22  1  0
 21 23  1  0
 21 24  1  0
 20 25  1  0
 25 26  1  0
 25 27  1  0
 25 28  1  0
 28 29  1  0
 28 30  1  0
  9 31  1  0
 31 32  2  0
 31 33  1  0
 33 34  1  0
 33 35  1  0
 33 36  1  0
 36 37  1  0
 36 38  1  0
  6 39  1  0
 39 40  1  0
 39 41  2  0
 41 42  1  0
 41  2  1  0
 36  7  1  0
 28 13  1  0
M  END
>  <cnnaffinity>  (1) 
-4.73855

>  <filename>  (1) 
CN1CCN(CN2C(=O)CC[C@@H]2c2cccnc2)CC1

$$$$
