
     RDKit          3D

 45 48  0  0  0  0  0  0  0  0999 V2000
    7.3145   -5.2926   27.3566 C   0  0  0  0  0  0  0  0  0  0  0  0
    7.3919   -4.4416   26.1877 N   0  0  0  0  0  0  0  0  0  0  0  0
    6.6395   -3.1907   26.1092 C   0  0  0  0  0  0  0  0  0  0  0  0
    6.6705   -2.7937   24.6067 C   0  0  0  0  0  0  0  0  0  0  0  0
    7.7343   -1.6842   24.3212 C   0  0  0  0  0  0  0  0  0  0  0  0
    7.8176   -1.3123   22.8683 C   0  0  0  0  0  0  0  0  0  0  0  0
    6.8699   -0.6384   22.2425 N   0  0  0  0  0  0  0  0  0  0  0  0
    7.3228   -0.5435   20.9726 C   0  0  0  0  0  0  0  0  0  0  0  0
    6.5780    0.0937   19.8921 C   0  0  0  0  0  0  0  0  0  0  0  0
    5.3444    0.7337   20.0849 C   0  0  0  0  0  0  0  0  0  0  0  0
    4.7601    1.3622   18.9898 C   0  0  0  0  0  0  0  0  0  0  0  0
    5.4125    1.3141   17.7533 C   0  0  0  0  0  0  0  0  0  0  0  0
    6.5704    0.6686   17.5526 N   0  0  0  0  0  0  0  0  0  0  0  0
    7.1353    0.0702   18.6037 C   0  0  0  0  0  0  0  0  0  0  0  0
    8.0738   -0.4503   18.4091 H   0  0  0  0  0  0  0  0  0  0  0  0
    4.9821    1.8114   16.8878 H   0  0  0  0  0  0  0  0  0  0  0  0
    3.8267    1.9037   19.0836 H   0  0  0  0  0  0  0  0  0  0  0  0
    4.8670    0.7462   21.0677 H   0  0  0  0  0  0  0  0  0  0  0  0
    8.4985   -1.1141   20.7741 N   0  0  0  0  0  0  0  0  0  0  0  0
    8.7984   -1.6292   21.9870 N   0  0  0  0  0  0  0  0  0  0  0  0
    9.9969   -2.4437   22.0903 C   0  0  0  0  0  0  0  0  0  0  0  0
   11.1999   -1.5963   22.4686 C   0  0  0  0  0  0  0  0  0  0  0  0
   12.3506   -2.3401   22.3032 F   0  0  0  0  0  0  0  0  0  0  0  0
   11.2391   -0.7088   21.8301 H   0  0  0  0  0  0  0  0  0  0  0  0
   11.1297   -1.2825   23.5165 H   0  0  0  0  0  0  0  0  0  0  0  0
   10.1339   -2.8658   21.0949 H   0  0  0  0  0  0  0  0  0  0  0  0
    9.8378   -3.2633   22.8008 H   0  0  0  0  0  0  0  0  0  0  0  0
    8.7168   -1.9879   24.7049 H   0  0  0  0  0  0  0  0  0  0  0  0
    7.4472   -0.7803   24.8684 H   0  0  0  0  0  0  0  0  0  0  0  0
    7.0316   -4.1000   23.9436 C   0  0  0  0  0  0  0  0  0  0  0  0
    7.0303   -4.4762   22.5986 C   0  0  0  0  0  0  0  0  0  0  0  0
    7.7062   -5.6435   22.2208 C   0  0  0  0  0  0  0  0  0  0  0  0
    8.3594   -6.4297   23.1863 C   0  0  0  0  0  0  0  0  0  0  0  0
    8.2897   -6.1000   24.5427 C   0  0  0  0  0  0  0  0  0  0  0  0
    7.5798   -4.9516   24.9141 C   0  0  0  0  0  0  0  0  0  0  0  0
    8.7830   -6.6819   25.3189 H   0  0  0  0  0  0  0  0  0  0  0  0
    8.9223   -7.3047   22.8651 H   0  0  0  0  0  0  0  0  0  0  0  0
    7.7490   -5.9350   21.1758 H   0  0  0  0  0  0  0  0  0  0  0  0
    6.5355   -3.8533   21.8573 H   0  0  0  0  0  0  0  0  0  0  0  0
    5.6934   -2.4205   24.2738 H   0  0  0  0  0  0  0  0  0  0  0  0
    7.0820   -2.4178   26.7608 H   0  0  0  0  0  0  0  0  0  0  0  0
    5.5942   -3.3141   26.4354 H   0  0  0  0  0  0  0  0  0  0  0  0
    6.9903   -4.7154   28.2272 H   0  0  0  0  0  0  0  0  0  0  0  0
    6.6098   -6.1294   27.2371 H   0  0  0  0  0  0  0  0  0  0  0  0
    8.2975   -5.7142   27.5959 H   0  0  0  0  0  0  0  0  0  0  0  0
  1  2  1  0
  2  3  1  0
  3  4  1  0
  4  5  1  0
  5  6  1  0
  6  7  2  0
  7  8  1  0
  8  9  1  0
  9 10  2  0
 10 11  1  0
 11 12  2  0
 12 13  1  0
 13 14  2  0
 14 15  1  0
 12 16  1  0
 11 17  1  0
 10 18  1  0
  8 19  2  0
 19 20  1  0
 20 21  1  0
 21 22  1  0
 22 23  1  0
 22 24  1  0
 22 25  1  0
 21 26  1  0
 21 27  1  0
  5 28  1  0
  5 29  1  0
  4 30  1  0
 30 31  2  0
 31 32  1  0
 32 33  2  0
 33 34  1  0
 34 35  2  0
 34 36  1  0
 33 37  1  0
 32 38  1  0
 31 39  1  0
  4 40  1  0
  3 41  1  0
  3 42  1  0
  1 43  1  0
  1 44  1  0
  1 45  1  0
 35  2  1  0
 20  6  1  0
 35 30  1  0
 14  9  1  0
M  END
>  <cnnaffinity>  (1) 
-6.18045

>  <filename>  (1) 
CN1CC(Cc2nc(-c3cccnc3)nn2CCF)c2ccccc21

$$$$
