
     RDKit          3D

 41 43  0  0  0  0  0  0  0  0999 V2000
    5.0233    1.8272   16.9216 H   0  0  0  0  0  0  0  0  0  0  0  0
    5.4813    1.3277   17.7738 C   0  0  0  0  0  0  0  0  0  0  0  0
    6.6543    0.7187   17.5396 N   0  0  0  0  0  0  0  0  0  0  0  0
    7.2441    0.0989   18.5697 C   0  0  0  0  0  0  0  0  0  0  0  0
    8.1967   -0.3910   18.3538 H   0  0  0  0  0  0  0  0  0  0  0  0
    6.7071    0.0420   19.8704 C   0  0  0  0  0  0  0  0  0  0  0  0
    7.4235   -0.6528   21.0134 C   0  0  2  0  0  0  0  0  0  0  0  0
    8.1772   -1.3405   20.6093 H   0  0  0  0  0  0  0  0  0  0  0  0
    6.5194   -1.5635   21.8708 C   0  0  0  0  0  0  0  0  0  0  0  0
    5.7125   -2.4091   21.5395 O   0  0  0  0  0  0  0  0  0  0  0  0
    6.8271   -1.2864   23.1567 N   0  0  0  0  0  0  0  0  0  0  0  0
    6.2872   -1.8142   23.8186 H   0  0  0  0  0  0  0  0  0  0  0  0
    7.8570   -0.3126   23.4305 C   0  0  0  0  0  0  0  0  0  0  0  0
    8.7683   -0.7926   23.8267 H   0  0  0  0  0  0  0  0  0  0  0  0
    7.5067    0.4255   24.1690 H   0  0  0  0  0  0  0  0  0  0  0  0
    8.0946    0.3288   22.0402 C   0  0  1  0  0  0  0  0  0  0  0  0
    7.5766    1.2959   21.9862 H   0  0  0  0  0  0  0  0  0  0  0  0
    9.5894    0.5564   21.7864 C   0  0  0  0  0  0  0  0  0  0  0  0
   10.2812   -0.3779   21.4057 O   0  0  0  0  0  0  0  0  0  0  0  0
   10.1546    1.8001   22.0135 N   0  0  0  0  0  0  0  0  0  0  0  0
    9.4860    2.9768   22.6017 C   0  0  0  0  0  0  0  0  0  0  0  0
    9.0389    3.5771   21.7948 H   0  0  0  0  0  0  0  0  0  0  0  0
    8.6996    2.6618   23.2971 H   0  0  0  0  0  0  0  0  0  0  0  0
   10.4789    3.9111   23.3317 C   0  0  0  0  0  0  0  0  0  0  0  0
   10.8839    3.4335   24.2475 H   0  0  0  0  0  0  0  0  0  0  0  0
    9.9180    4.8030   23.6386 H   0  0  0  0  0  0  0  0  0  0  0  0
   11.5296    4.3131   22.4063 N   0  0  0  0  0  0  0  0  0  0  0  0
   12.3436    5.4589   22.7537 C   0  0  0  0  0  0  0  0  0  0  0  0
   13.1709    5.2512   23.4624 H   0  0  0  0  0  0  0  0  0  0  0  0
   11.7031    6.2438   23.1769 H   0  0  0  0  0  0  0  0  0  0  0  0
   12.7877    5.8570   21.8306 H   0  0  0  0  0  0  0  0  0  0  0  0
   12.2704    3.1465   21.9512 C   0  0  0  0  0  0  0  0  0  0  0  0
   13.0287    3.4843   21.2378 H   0  0  0  0  0  0  0  0  0  0  0  0
   12.7958    2.6258   22.7790 H   0  0  0  0  0  0  0  0  0  0  0  0
   11.3531    2.1630   21.2232 C   0  0  0  0  0  0  0  0  0  0  0  0
   11.9152    1.2546   21.0023 H   0  0  0  0  0  0  0  0  0  0  0  0
   11.0486    2.6229   20.2711 H   0  0  0  0  0  0  0  0  0  0  0  0
    5.4715    0.6685   20.0837 C   0  0  0  0  0  0  0  0  0  0  0  0
    5.0047    0.6198   21.0705 H   0  0  0  0  0  0  0  0  0  0  0  0
    4.8492    1.3266   19.0207 C   0  0  0  0  0  0  0  0  0  0  0  0
    3.8983    1.8326   19.1433 H   0  0  0  0  0  0  0  0  0  0  0  0
  1  2  1  0
  2  3  2  0
  3  4  1  0
  4  5  1  0
  4  6  2  0
  6  7  1  0
  7  8  1  6
  7  9  1  0
  9 10  2  0
  9 11  1  0
 11 12  1  0
 11 13  1  0
 13 14  1  0
 13 15  1  0
 13 16  1  0
 16 17  1  1
 16 18  1  0
 18 19  2  0
 18 20  1  0
 20 21  1  0
 21 22  1  0
 21 23  1  0
 21 24  1  0
 24 25  1  0
 24 26  1  0
 24 27  1  0
 27 28  1  0
 28 29  1  0
 28 30  1  0
 28 31  1  0
 27 32  1  0
 32 33  1  0
 32 34  1  0
 32 35  1  0
 35 36  1  0
 35 37  1  0
  6 38  1  0
 38 39  1  0
 38 40  2  0
 40 41  1  0
 40  2  1  0
 16  7  1  0
 35 20  1  0
M  END
>  <cnnaffinity>  (1) 
-4.76017

>  <filename>  (1) 
CN1CCN(C(=O)[C@@H]2CNC(=O)[C@H]2c2cccnc2)CC1

$$$$
