
     RDKit          3D

 27 28  0  0  0  0  0  0  0  0999 V2000
    5.0180    1.7187   16.9881 H   0  0  0  0  0  0  0  0  0  0  0  0
    5.4860    1.2255   17.8403 C   0  0  0  0  0  0  0  0  0  0  0  0
    6.6504    0.5995   17.6053 N   0  0  0  0  0  0  0  0  0  0  0  0
    7.2416   -0.0126   18.6391 C   0  0  0  0  0  0  0  0  0  0  0  0
    8.1961   -0.4951   18.4201 H   0  0  0  0  0  0  0  0  0  0  0  0
    6.7197   -0.0156   19.9357 C   0  0  0  0  0  0  0  0  0  0  0  0
    7.4584   -0.6198   21.0839 C   0  0  0  0  0  0  0  0  0  0  0  0
    7.4132   -0.1500   22.2059 O   0  0  0  0  0  0  0  0  0  0  0  0
    8.1463   -1.7789   20.7534 N   0  0  0  0  0  0  0  0  0  0  0  0
    7.8907   -2.1737   19.8574 H   0  0  0  0  0  0  0  0  0  0  0  0
    8.6505   -2.7284   21.6708 N   0  0  0  0  0  0  0  0  0  0  0  0
    9.5909   -2.5421   22.0209 H   0  0  0  0  0  0  0  0  0  0  0  0
    7.9230   -3.1064   22.8147 C   0  0  0  0  0  0  0  0  0  0  0  0
    8.6133   -3.6057   23.8313 N   0  0  0  0  0  0  0  0  0  0  0  0
    7.6856   -3.8931   24.7712 N   0  0  0  0  0  0  0  0  0  0  0  0
    8.0444   -4.4210   26.0770 C   0  0  0  0  0  0  0  0  0  0  0  0
    8.0613   -3.6275   26.8343 H   0  0  0  0  0  0  0  0  0  0  0  0
    7.3095   -5.1733   26.3811 H   0  0  0  0  0  0  0  0  0  0  0  0
    9.0266   -4.8939   26.0161 H   0  0  0  0  0  0  0  0  0  0  0  0
    6.4401   -3.5768   24.3545 C   0  0  0  0  0  0  0  0  0  0  0  0
    5.5771   -3.7390   24.9911 H   0  0  0  0  0  0  0  0  0  0  0  0
    6.5405   -3.0683   23.0821 C   0  0  0  0  0  0  0  0  0  0  0  0
    5.7494   -2.6766   22.4597 H   0  0  0  0  0  0  0  0  0  0  0  0
    5.4952    0.6280   20.1683 C   0  0  0  0  0  0  0  0  0  0  0  0
    5.0581    0.6329   21.1699 H   0  0  0  0  0  0  0  0  0  0  0  0
    4.8694    1.2540   19.0964 C   0  0  0  0  0  0  0  0  0  0  0  0
    3.9281    1.7735   19.2259 H   0  0  0  0  0  0  0  0  0  0  0  0
  1  2  1  0
  2  3  2  0
  3  4  1  0
  4  5  1  0
  4  6  2  0
  6  7  1  0
  7  8  2  0
  7  9  1  0
  9 10  1  0
  9 11  1  0
 11 12  1  0
 11 13  1  0
 13 14  2  0
 14 15  1  0
 15 16  1  0
 16 17  1  0
 16 18  1  0
 16 19  1  0
 15 20  1  0
 20 21  1  0
 20 22  2  0
 22 23  1  0
  6 24  1  0
 24 25  1  0
 24 26  2  0
 26 27  1  0
 26  2  1  0
 22 13  1  0
M  END
>  <cnnaffinity>  (1) 
-4.24143

>  <filename>  (1) 
Cn1ccc(NNC(=O)c2cccnc2)n1

$$$$
