
     RDKit          3D

 44 48  0  0  0  0  0  0  0  0999 V2000
    8.8287   -6.2865   24.9165 C   0  0  0  0  0  0  0  0  0  0  0  0
    7.9856   -5.1359   24.6505 N   0  0  0  0  0  0  0  0  0  0  0  0
    8.4284   -3.8362   24.8389 C   0  0  0  0  0  0  0  0  0  0  0  0
    7.4243   -2.9402   24.6304 C   0  0  0  0  0  0  0  0  0  0  0  0
    7.4668   -1.4625   24.3326 C   0  0  0  0  0  0  0  0  0  0  0  0
    7.5076   -1.1286   22.8604 C   0  0  0  0  0  0  0  0  0  0  0  0
    6.5930   -0.4682   22.1755 N   0  0  0  0  0  0  0  0  0  0  0  0
    7.0781   -0.4722   20.9089 C   0  0  0  0  0  0  0  0  0  0  0  0
    6.4074    0.1636   19.7759 C   0  0  0  0  0  0  0  0  0  0  0  0
    5.1958    0.8627   19.8903 C   0  0  0  0  0  0  0  0  0  0  0  0
    4.6936    1.4830   18.7494 C   0  0  0  0  0  0  0  0  0  0  0  0
    5.4041    1.3746   17.5488 C   0  0  0  0  0  0  0  0  0  0  0  0
    6.5452    0.6818   17.4222 N   0  0  0  0  0  0  0  0  0  0  0  0
    7.0299    0.0940   18.5188 C   0  0  0  0  0  0  0  0  0  0  0  0
    7.9615   -0.4551   18.3907 H   0  0  0  0  0  0  0  0  0  0  0  0
    5.0393    1.8645   16.6503 H   0  0  0  0  0  0  0  0  0  0  0  0
    3.7829    2.0698   18.7820 H   0  0  0  0  0  0  0  0  0  0  0  0
    4.6758    0.9258   20.8488 H   0  0  0  0  0  0  0  0  0  0  0  0
    8.2323   -1.0964   20.7729 N   0  0  0  0  0  0  0  0  0  0  0  0
    8.5199   -1.4946   22.0339 N   0  0  0  0  0  0  0  0  0  0  0  0
    9.6863   -2.3204   22.2463 C   0  0  0  0  0  0  0  0  0  0  0  0
   10.6301   -2.0739   23.3872 C   0  0  0  0  0  0  0  0  0  0  0  0
   11.0470   -1.7330   21.9894 C   0  0  0  0  0  0  0  0  0  0  0  0
   11.0919   -0.6924   21.6829 H   0  0  0  0  0  0  0  0  0  0  0  0
   11.7981   -2.3562   21.5122 H   0  0  0  0  0  0  0  0  0  0  0  0
   11.1071   -2.9521   23.8270 H   0  0  0  0  0  0  0  0  0  0  0  0
   10.4314   -1.2488   24.0673 H   0  0  0  0  0  0  0  0  0  0  0  0
    9.5080   -3.3453   21.9423 H   0  0  0  0  0  0  0  0  0  0  0  0
    8.3056   -0.9775   24.8438 H   0  0  0  0  0  0  0  0  0  0  0  0
    6.5561   -0.9902   24.7138 H   0  0  0  0  0  0  0  0  0  0  0  0
    6.2425   -3.7250   24.4381 C   0  0  0  0  0  0  0  0  0  0  0  0
    4.8843   -3.3570   24.3489 C   0  0  0  0  0  0  0  0  0  0  0  0
    3.9497   -4.3309   24.0463 C   0  0  0  0  0  0  0  0  0  0  0  0
    4.3536   -5.6680   23.8253 C   0  0  0  0  0  0  0  0  0  0  0  0
    5.6819   -6.0600   23.9482 C   0  0  0  0  0  0  0  0  0  0  0  0
    6.6317   -5.0870   24.3442 C   0  0  0  0  0  0  0  0  0  0  0  0
    5.9324   -7.0773   23.6725 H   0  0  0  0  0  0  0  0  0  0  0  0
    3.6053   -6.4070   23.5491 H   0  0  0  0  0  0  0  0  0  0  0  0
    2.9006   -4.0604   23.9651 H   0  0  0  0  0  0  0  0  0  0  0  0
    4.5989   -2.3289   24.5544 H   0  0  0  0  0  0  0  0  0  0  0  0
    9.4651   -3.6721   25.1111 H   0  0  0  0  0  0  0  0  0  0  0  0
    8.3665   -6.9539   25.6541 H   0  0  0  0  0  0  0  0  0  0  0  0
    9.7629   -5.9351   25.3671 H   0  0  0  0  0  0  0  0  0  0  0  0
    9.0812   -6.8134   23.9876 H   0  0  0  0  0  0  0  0  0  0  0  0
  1  2  1  0
  2  3  1  0
  3  4  2  0
  4  5  1  0
  5  6  1  0
  6  7  2  0
  7  8  1  0
  8  9  1  0
  9 10  2  0
 10 11  1  0
 11 12  2  0
 12 13  1  0
 13 14  2  0
 14 15  1  0
 12 16  1  0
 11 17  1  0
 10 18  1  0
  8 19  2  0
 19 20  1  0
 20 21  1  0
 21 22  1  0
 22 23  1  0
 23 24  1  0
 23 25  1  0
 22 26  1  0
 22 27  1  0
 21 28  1  0
  5 29  1  0
  5 30  1  0
  4 31  1  0
 31 32  2  0
 32 33  1  0
 33 34  2  0
 34 35  1  0
 35 36  2  0
 35 37  1  0
 34 38  1  0
 33 39  1  0
 32 40  1  0
  3 41  1  0
  1 42  1  0
  1 43  1  0
  1 44  1  0
 36  2  1  0
 20  6  1  0
 23 21  1  0
 36 31  1  0
 14  9  1  0
M  END
>  <cnnaffinity>  (1) 
-6.17246

>  <filename>  (1) 
Cn1cc(Cc2nc(-c3cccnc3)nn2C2CC2)c2ccccc21

$$$$
