
     RDKit          3D

 39 41  0  0  0  0  0  0  0  0999 V2000
    4.9305    1.7813   16.9991 H   0  0  0  0  0  0  0  0  0  0  0  0
    5.4032    1.2902   17.8491 C   0  0  0  0  0  0  0  0  0  0  0  0
    6.5700    0.6688   17.6061 N   0  0  0  0  0  0  0  0  0  0  0  0
    7.1790    0.0554   18.6300 C   0  0  0  0  0  0  0  0  0  0  0  0
    8.1212   -0.4366   18.4075 H   0  0  0  0  0  0  0  0  0  0  0  0
    6.6593    0.0140   19.9375 C   0  0  0  0  0  0  0  0  0  0  0  0
    7.3856   -0.6927   20.8639 O   0  0  0  0  0  0  0  0  0  0  0  0
    7.2813   -0.4027   22.1966 C   0  0  0  0  0  0  0  0  0  0  0  0
    7.2563   -1.3372   23.2512 C   0  0  0  0  0  0  0  0  0  0  0  0
    7.2781   -2.4149   23.1876 H   0  0  0  0  0  0  0  0  0  0  0  0
    7.2389   -0.7216   24.4323 N   0  0  0  0  0  0  0  0  0  0  0  0
    7.2538    0.5801   24.1340 N   0  0  0  0  0  0  0  0  0  0  0  0
    7.2879    1.2536   24.8866 H   0  0  0  0  0  0  0  0  0  0  0  0
    7.3043    0.8353   22.8013 C   0  0  0  0  0  0  0  0  0  0  0  0
    7.3993    2.2133   22.2351 C   0  0  0  0  0  0  0  0  0  0  0  0
    6.3999    2.6810   22.2449 H   0  0  0  0  0  0  0  0  0  0  0  0
    7.6745    2.1413   21.1685 H   0  0  0  0  0  0  0  0  0  0  0  0
    8.3315    3.0491   22.9922 N   0  0  0  0  0  0  0  0  0  0  0  0
    9.7393    2.6590   22.7433 C   0  0  0  0  0  0  0  0  0  0  0  0
    9.9963    2.7291   21.6697 H   0  0  0  0  0  0  0  0  0  0  0  0
    9.8916    1.6175   23.0348 H   0  0  0  0  0  0  0  0  0  0  0  0
   10.7074    3.5409   23.5314 C   0  0  0  0  0  0  0  0  0  0  0  0
   10.5420    3.3565   24.6103 H   0  0  0  0  0  0  0  0  0  0  0  0
   11.7350    3.2384   23.3018 H   0  0  0  0  0  0  0  0  0  0  0  0
   10.5438    4.9612   23.1924 N   0  0  0  0  0  0  0  0  0  0  0  0
   11.4622    5.7970   23.9400 C   0  0  0  0  0  0  0  0  0  0  0  0
   12.4956    5.5061   23.7168 H   0  0  0  0  0  0  0  0  0  0  0  0
   11.3129    5.7300   25.0393 H   0  0  0  0  0  0  0  0  0  0  0  0
   11.3334    6.8431   23.6414 H   0  0  0  0  0  0  0  0  0  0  0  0
    9.1453    5.3499   23.4258 C   0  0  0  0  0  0  0  0  0  0  0  0
    8.8810    5.2809   24.4990 H   0  0  0  0  0  0  0  0  0  0  0  0
    9.0098    6.3923   23.1186 H   0  0  0  0  0  0  0  0  0  0  0  0
    8.1738    4.4703   22.6395 C   0  0  0  0  0  0  0  0  0  0  0  0
    8.3301    4.6490   21.5581 H   0  0  0  0  0  0  0  0  0  0  0  0
    7.1488    4.7753   22.8734 H   0  0  0  0  0  0  0  0  0  0  0  0
    5.4323    0.6435   20.1831 C   0  0  0  0  0  0  0  0  0  0  0  0
    4.9997    0.6232   21.1836 H   0  0  0  0  0  0  0  0  0  0  0  0
    4.8102    1.3026   19.1135 C   0  0  0  0  0  0  0  0  0  0  0  0
    3.8801    1.8359   19.2537 H   0  0  0  0  0  0  0  0  0  0  0  0
  1  2  1  0
  2  3  2  0
  3  4  1  0
  4  5  1  0
  4  6  2  0
  6  7  1  0
  7  8  1  0
  8  9  1  0
  9 10  1  0
  9 11  2  0
 11 12  1  0
 12 13  1  0
 12 14  1  0
 14 15  1  0
 15 16  1  0
 15 17  1  0
 15 18  1  0
 18 19  1  0
 19 20  1  0
 19 21  1  0
 19 22  1  0
 22 23  1  0
 22 24  1  0
 22 25  1  0
 25 26  1  0
 26 27  1  0
 26 28  1  0
 26 29  1  0
 25 30  1  0
 30 31  1  0
 30 32  1  0
 30 33  1  0
 33 34  1  0
 33 35  1  0
  6 36  1  0
 36 37  1  0
 36 38  2  0
 38 39  1  0
 38  2  1  0
 14  8  2  0
 33 18  1  0
M  END
>  <cnnaffinity>  (1) 
-4.78885

>  <filename>  (1) 
CN1CCN(Cc2[nH]ncc2Oc2cccnc2)CC1

$$$$
