
     RDKit          3D

 39 41  0  0  0  0  0  0  0  0999 V2000
    4.9601    1.8095   16.8752 H   0  0  0  0  0  0  0  0  0  0  0  0
    5.4480    1.3206   17.7153 C   0  0  0  0  0  0  0  0  0  0  0  0
    6.6075    0.7024   17.4494 N   0  0  0  0  0  0  0  0  0  0  0  0
    7.2305    0.0934   18.4614 C   0  0  0  0  0  0  0  0  0  0  0  0
    8.1854   -0.3682   18.2230 H   0  0  0  0  0  0  0  0  0  0  0  0
    6.7168    0.0275   19.7617 C   0  0  0  0  0  0  0  0  0  0  0  0
    7.4668   -0.7314   20.7827 C   0  0  0  0  0  0  0  0  0  0  0  0
    8.7656   -0.7098   20.6903 N   0  0  0  0  0  0  0  0  0  0  0  0
    9.4755   -1.2896   21.7007 C   0  0  0  0  0  0  0  0  0  0  0  0
   10.6789   -1.2582   21.8390 O   0  0  0  0  0  0  0  0  0  0  0  0
    8.7815   -1.9937   22.6988 N   0  0  0  0  0  0  0  0  0  0  0  0
    9.4743   -2.1935   23.4007 H   0  0  0  0  0  0  0  0  0  0  0  0
    7.4059   -2.0119   22.8402 C   0  0  0  0  0  0  0  0  0  0  0  0
    6.7320   -2.5811   24.1314 C   0  0  0  0  0  0  0  0  0  0  0  0
    5.6853   -2.1453   24.5822 O   0  0  0  0  0  0  0  0  0  0  0  0
    7.4543   -3.5614   24.7747 N   0  0  0  0  0  0  0  0  0  0  0  0
    7.2023   -3.8216   26.2018 C   0  0  0  0  0  0  0  0  0  0  0  0
    6.7118   -2.9558   26.6531 H   0  0  0  0  0  0  0  0  0  0  0  0
    6.5179   -4.6775   26.3195 H   0  0  0  0  0  0  0  0  0  0  0  0
    8.5562   -4.1214   26.8742 C   0  0  0  0  0  0  0  0  0  0  0  0
    9.2076   -3.2437   26.7302 H   0  0  0  0  0  0  0  0  0  0  0  0
    8.4387   -4.2784   27.9556 H   0  0  0  0  0  0  0  0  0  0  0  0
    9.2352   -5.2836   26.2843 N   0  0  0  0  0  0  0  0  0  0  0  0
    8.6306   -6.5670   26.6162 C   0  0  0  0  0  0  0  0  0  0  0  0
    7.6624   -6.7708   26.1164 H   0  0  0  0  0  0  0  0  0  0  0  0
    8.4724   -6.6228   27.7021 H   0  0  0  0  0  0  0  0  0  0  0  0
    9.3308   -7.3617   26.3224 H   0  0  0  0  0  0  0  0  0  0  0  0
    9.4203   -5.0880   24.8412 C   0  0  0  0  0  0  0  0  0  0  0  0
   10.1970   -4.3234   24.6967 H   0  0  0  0  0  0  0  0  0  0  0  0
    9.7978   -6.0270   24.4161 H   0  0  0  0  0  0  0  0  0  0  0  0
    8.1350   -4.6735   24.0887 C   0  0  0  0  0  0  0  0  0  0  0  0
    8.3669   -4.3995   23.0583 H   0  0  0  0  0  0  0  0  0  0  0  0
    7.4569   -5.5406   24.0390 H   0  0  0  0  0  0  0  0  0  0  0  0
    6.7269   -1.4279   21.8012 C   0  0  0  0  0  0  0  0  0  0  0  0
    5.6477   -1.4608   21.7385 H   0  0  0  0  0  0  0  0  0  0  0  0
    5.5162    0.7029   20.0329 C   0  0  0  0  0  0  0  0  0  0  0  0
    5.1091    0.7410   21.0468 H   0  0  0  0  0  0  0  0  0  0  0  0
    4.8693    1.3567   18.9876 C   0  0  0  0  0  0  0  0  0  0  0  0
    3.9353    1.8884   19.1406 H   0  0  0  0  0  0  0  0  0  0  0  0
  1  2  1  0
  2  3  2  0
  3  4  1  0
  4  5  1  0
  4  6  2  0
  6  7  1  0
  7  8  2  0
  8  9  1  0
  9 10  2  0
  9 11  1  0
 11 12  1  0
 11 13  1  0
 13 14  1  0
 14 15  2  0
 14 16  1  0
 16 17  1  0
 17 18  1  0
 17 19  1  0
 17 20  1  0
 20 21  1  0
 20 22  1  0
 20 23  1  0
 23 24  1  0
 24 25  1  0
 24 26  1  0
 24 27  1  0
 23 28  1  0
 28 29  1  0
 28 30  1  0
 28 31  1  0
 31 32  1  0
 31 33  1  0
 13 34  2  0
 34 35  1  0
  6 36  1  0
 36 37  1  0
 36 38  2  0
 38 39  1  0
 38  2  1  0
 34  7  1  0
 31 16  1  0
M  END
>  <cnnaffinity>  (1) 
-4.43993

>  <filename>  (1) 
CN1CCN(C(=O)c2cc(-c3cccnc3)nc(=O)[nH]2)CC1

$$$$
