
     RDKit          3D

 37 39  0  0  0  0  0  0  0  0999 V2000
    4.9937    1.8911   16.8399 H   0  0  0  0  0  0  0  0  0  0  0  0
    5.4439    1.3639   17.6784 C   0  0  0  0  0  0  0  0  0  0  0  0
    6.5433    0.6435   17.4037 N   0  0  0  0  0  0  0  0  0  0  0  0
    7.1173   -0.0177   18.4154 C   0  0  0  0  0  0  0  0  0  0  0  0
    8.0212   -0.5749   18.1662 H   0  0  0  0  0  0  0  0  0  0  0  0
    6.6381   -0.0302   19.7451 C   0  0  0  0  0  0  0  0  0  0  0  0
    7.3285   -0.7970   20.7986 C   0  0  0  0  0  0  0  0  0  0  0  0
    8.5969   -1.3390   20.8861 C   0  0  0  0  0  0  0  0  0  0  0  0
    9.3996   -1.3016   20.1613 H   0  0  0  0  0  0  0  0  0  0  0  0
    8.7678   -1.9731   22.0773 N   0  0  0  0  0  0  0  0  0  0  0  0
    7.6405   -1.7958   22.7563 C   0  0  0  0  0  0  0  0  0  0  0  0
    7.3050   -2.2108   24.1924 C   0  0  0  0  0  0  0  0  0  0  0  0
    6.4058   -1.6556   24.8180 O   0  0  0  0  0  0  0  0  0  0  0  0
    8.0462   -3.2246   24.7496 N   0  0  0  0  0  0  0  0  0  0  0  0
    8.7546   -4.2548   23.9464 C   0  0  0  0  0  0  0  0  0  0  0  0
    9.7591   -3.8976   23.6790 H   0  0  0  0  0  0  0  0  0  0  0  0
    8.2136   -4.3785   23.0044 H   0  0  0  0  0  0  0  0  0  0  0  0
    8.7930   -5.5980   24.7006 C   0  0  0  0  0  0  0  0  0  0  0  0
    7.7632   -5.9757   24.7551 H   0  0  0  0  0  0  0  0  0  0  0  0
    9.3778   -6.3381   24.1426 H   0  0  0  0  0  0  0  0  0  0  0  0
    9.2865   -5.5051   26.0698 N   0  0  0  0  0  0  0  0  0  0  0  0
   10.7037   -5.1917   26.1782 C   0  0  0  0  0  0  0  0  0  0  0  0
   11.2716   -5.8588   25.5213 H   0  0  0  0  0  0  0  0  0  0  0  0
   10.9797   -4.1575   25.8993 H   0  0  0  0  0  0  0  0  0  0  0  0
   11.0084   -5.3652   27.2178 H   0  0  0  0  0  0  0  0  0  0  0  0
    8.4104   -4.5936   26.8100 C   0  0  0  0  0  0  0  0  0  0  0  0
    7.4139   -5.0579   26.8110 H   0  0  0  0  0  0  0  0  0  0  0  0
    8.7437   -4.5305   27.8542 H   0  0  0  0  0  0  0  0  0  0  0  0
    8.2864   -3.1778   26.2104 C   0  0  0  0  0  0  0  0  0  0  0  0
    7.4370   -2.6630   26.6728 H   0  0  0  0  0  0  0  0  0  0  0  0
    9.1894   -2.5822   26.4364 H   0  0  0  0  0  0  0  0  0  0  0  0
    6.7406   -1.1102   22.0046 N   0  0  0  0  0  0  0  0  0  0  0  0
    5.7865   -0.9324   22.2982 H   0  0  0  0  0  0  0  0  0  0  0  0
    5.4846    0.7357   20.0017 C   0  0  0  0  0  0  0  0  0  0  0  0
    5.0702    0.7974   21.0096 H   0  0  0  0  0  0  0  0  0  0  0  0
    4.8859    1.4434   18.9603 C   0  0  0  0  0  0  0  0  0  0  0  0
    4.0151    2.0653   19.1297 H   0  0  0  0  0  0  0  0  0  0  0  0
  1  2  1  0
  2  3  2  0
  3  4  1  0
  4  5  1  0
  4  6  2  0
  6  7  1  0
  7  8  2  0
  8  9  1  0
  8 10  1  0
 10 11  2  0
 11 12  1  0
 12 13  2  0
 12 14  1  0
 14 15  1  0
 15 16  1  0
 15 17  1  0
 15 18  1  0
 18 19  1  0
 18 20  1  0
 18 21  1  0
 21 22  1  0
 22 23  1  0
 22 24  1  0
 22 25  1  0
 21 26  1  0
 26 27  1  0
 26 28  1  0
 26 29  1  0
 29 30  1  0
 29 31  1  0
 11 32  1  0
 32 33  1  0
  6 34  1  0
 34 35  1  0
 34 36  2  0
 36 37  1  0
 36  2  1  0
 32  7  1  0
 29 14  1  0
M  END
>  <cnnaffinity>  (1) 
-4.49261

>  <filename>  (1) 
CN1CCN(C(=O)c2ncc(-c3cccnc3)[nH]2)CC1

$$$$
