
     RDKit          3D

 43 46  0  0  0  0  0  0  0  0999 V2000
    5.0058    1.8388   16.9182 H   0  0  0  0  0  0  0  0  0  0  0  0
    5.4684    1.3233   17.7573 C   0  0  0  0  0  0  0  0  0  0  0  0
    6.6489    0.7278   17.5103 N   0  0  0  0  0  0  0  0  0  0  0  0
    7.2424    0.0797   18.5222 C   0  0  0  0  0  0  0  0  0  0  0  0
    8.2007   -0.3931   18.3037 H   0  0  0  0  0  0  0  0  0  0  0  0
    6.6921   -0.0388   19.8169 C   0  0  0  0  0  0  0  0  0  0  0  0
    7.3752   -0.7493   20.8609 N   0  0  0  0  0  0  0  0  0  0  0  0
    8.2713   -0.3912   21.1545 H   0  0  0  0  0  0  0  0  0  0  0  0
    6.7669   -1.5996   21.7772 C   0  0  0  0  0  0  0  0  0  0  0  0
    5.7566   -2.2131   21.5060 O   0  0  0  0  0  0  0  0  0  0  0  0
    7.5660   -1.7807   23.1259 C   0  0  0  0  0  0  0  0  0  0  0  0
    7.6105   -0.7823   24.1828 N   0  0  0  0  0  0  0  0  0  0  0  0
    8.2822    0.4946   23.9103 C   0  0  0  0  0  0  0  0  0  0  0  0
    9.3741    0.3732   23.9477 H   0  0  0  0  0  0  0  0  0  0  0  0
    8.0243    0.8917   22.9160 H   0  0  0  0  0  0  0  0  0  0  0  0
    7.7785    1.4288   25.0107 C   0  0  0  0  0  0  0  0  0  0  0  0
    8.4090    1.3008   25.8994 H   0  0  0  0  0  0  0  0  0  0  0  0
    7.8185    2.4832   24.7192 H   0  0  0  0  0  0  0  0  0  0  0  0
    6.3499    0.9419   25.2808 C   0  0  2  0  0  0  0  0  0  0  0  0
    5.6529    1.4131   24.5798 H   0  0  0  0  0  0  0  0  0  0  0  0
    5.8608    1.0637   26.7292 C   0  0  0  0  0  0  0  0  0  0  0  0
    4.9866    1.7216   26.8146 H   0  0  0  0  0  0  0  0  0  0  0  0
    6.6537    1.5117   27.3561 H   0  0  0  0  0  0  0  0  0  0  0  0
    5.5297   -0.2969   27.1681 N   0  0  0  0  0  0  0  0  0  0  0  0
    5.5924   -0.4754   28.6074 C   0  0  0  0  0  0  0  0  0  0  0  0
    4.8719    0.1905   29.0972 H   0  0  0  0  0  0  0  0  0  0  0  0
    6.5903   -0.2543   29.0354 H   0  0  0  0  0  0  0  0  0  0  0  0
    5.3293   -1.5035   28.8800 H   0  0  0  0  0  0  0  0  0  0  0  0
    6.3673   -1.2144   26.3857 C   0  0  0  0  0  0  0  0  0  0  0  0
    5.9203   -2.2182   26.3547 H   0  0  0  0  0  0  0  0  0  0  0  0
    7.3956   -1.3255   26.7832 H   0  0  0  0  0  0  0  0  0  0  0  0
    6.4038   -0.5672   24.9893 C   0  0  2  0  0  0  0  0  0  0  0  0
    5.5090   -0.8960   24.4600 H   0  0  0  0  0  0  0  0  0  0  0  0
    7.6473   -3.1929   23.6488 C   0  0  0  0  0  0  0  0  0  0  0  0
    7.6415   -3.2970   24.7306 H   0  0  0  0  0  0  0  0  0  0  0  0
    7.1188   -3.9585   23.0897 H   0  0  0  0  0  0  0  0  0  0  0  0
    8.8568   -2.5606   23.0346 C   0  0  0  0  0  0  0  0  0  0  0  0
    9.1861   -2.9108   22.0622 H   0  0  0  0  0  0  0  0  0  0  0  0
    9.6401   -2.2264   23.7100 H   0  0  0  0  0  0  0  0  0  0  0  0
    5.4659    0.6008   20.0585 C   0  0  0  0  0  0  0  0  0  0  0  0
    5.0299    0.5615   21.0549 H   0  0  0  0  0  0  0  0  0  0  0  0
    4.8480    1.2953   19.0081 C   0  0  0  0  0  0  0  0  0  0  0  0
    3.9099    1.8197   19.1552 H   0  0  0  0  0  0  0  0  0  0  0  0
  1  2  1  0
  2  3  2  0
  3  4  1  0
  4  5  1  0
  4  6  2  0
  6  7  1  0
  7  8  1  0
  7  9  1  0
  9 10  2  0
  9 11  1  0
 11 12  1  0
 12 13  1  0
 13 14  1  0
 13 15  1  0
 13 16  1  0
 16 17  1  0
 16 18  1  0
 16 19  1  0
 19 20  1  6
 19 21  1  0
 21 22  1  0
 21 23  1  0
 21 24  1  0
 24 25  1  0
 25 26  1  0
 25 27  1  0
 25 28  1  0
 24 29  1  0
 29 30  1  0
 29 31  1  0
 29 32  1  0
 32 33  1  6
 11 34  1  0
 34 35  1  0
 34 36  1  0
 34 37  1  0
 37 38  1  0
 37 39  1  0
  6 40  1  0
 40 41  1  0
 40 42  2  0
 42 43  1  0
 42  2  1  0
 37 11  1  0
 32 12  1  0
 32 19  1  0
M  END
>  <cnnaffinity>  (1) 
-5.2397

>  <filename>  (1) 
CN1C[C@H]2CCN(C3(C(=O)Nc4cccnc4)CC3)[C@H]2C1

$$$$
