
     RDKit          3D

 45 48  0  0  0  0  0  0  0  0999 V2000
    9.5414    7.4695   25.1643 C   0  0  0  0  0  0  0  0  0  0  0  0
    9.6233    6.2231   24.4272 N   0  0  0  0  0  0  0  0  0  0  0  0
    9.8192    6.0216   23.0866 C   0  0  0  0  0  0  0  0  0  0  0  0
    9.7642    4.7670   22.7271 N   0  0  0  0  0  0  0  0  0  0  0  0
    9.4574    4.0770   23.8799 C   0  0  0  0  0  0  0  0  0  0  0  0
    9.1314    2.7183   24.0777 C   0  0  0  0  0  0  0  0  0  0  0  0
    9.0312    1.7813   22.9452 C   0  0  0  0  0  0  0  0  0  0  0  0
    8.0053    0.9590   22.7598 N   0  0  0  0  0  0  0  0  0  0  0  0
    8.3375    0.2918   21.6334 C   0  0  0  0  0  0  0  0  0  0  0  0
    7.4273   -0.6870   20.9477 C   0  0  0  0  0  0  0  0  0  0  0  0
    6.6479   -0.0456   19.8122 C   0  0  0  0  0  0  0  0  0  0  0  0
    5.4532    0.6277   20.0858 C   0  0  0  0  0  0  0  0  0  0  0  0
    4.8130    1.3069   19.0501 C   0  0  0  0  0  0  0  0  0  0  0  0
    5.3963    1.3033   17.7798 C   0  0  0  0  0  0  0  0  0  0  0  0
    6.5352    0.6550   17.4921 N   0  0  0  0  0  0  0  0  0  0  0  0
    7.1362    0.0030   18.4953 C   0  0  0  0  0  0  0  0  0  0  0  0
    8.0659   -0.5094   18.2417 H   0  0  0  0  0  0  0  0  0  0  0  0
    4.9245    1.8389   16.9573 H   0  0  0  0  0  0  0  0  0  0  0  0
    3.8882    1.8440   19.2193 H   0  0  0  0  0  0  0  0  0  0  0  0
    5.0385    0.6230   21.0975 H   0  0  0  0  0  0  0  0  0  0  0  0
    6.7317   -1.0873   21.6926 H   0  0  0  0  0  0  0  0  0  0  0  0
    8.0343   -1.5175   20.5794 H   0  0  0  0  0  0  0  0  0  0  0  0
    9.5291    0.5877   21.1478 N   0  0  0  0  0  0  0  0  0  0  0  0
    9.9673    1.5673   21.9821 N   0  0  0  0  0  0  0  0  0  0  0  0
   11.3981    1.8940   22.0360 C   0  0  0  0  0  0  0  0  0  0  0  0
   12.0241    1.0349   23.1481 C   0  0  0  0  0  0  0  0  0  0  0  0
   13.4787    1.2714   23.4347 C   0  0  0  0  0  0  0  0  0  0  0  0
   14.3104    0.7924   22.4965 F   0  0  0  0  0  0  0  0  0  0  0  0
   13.7048    2.5931   23.5561 F   0  0  0  0  0  0  0  0  0  0  0  0
   13.8257    0.6787   24.5917 F   0  0  0  0  0  0  0  0  0  0  0  0
   11.5073    1.2663   24.0872 H   0  0  0  0  0  0  0  0  0  0  0  0
   11.8876   -0.0236   22.9179 H   0  0  0  0  0  0  0  0  0  0  0  0
   11.8101    1.6945   21.0425 H   0  0  0  0  0  0  0  0  0  0  0  0
   11.4899    2.9662   22.2548 H   0  0  0  0  0  0  0  0  0  0  0  0
    8.8005    2.3034   25.3783 C   0  0  0  0  0  0  0  0  0  0  0  0
    8.7953    3.2110   26.4526 C   0  0  0  0  0  0  0  0  0  0  0  0
    9.1032    4.5555   26.2656 C   0  0  0  0  0  0  0  0  0  0  0  0
    9.3942    4.9728   24.9655 C   0  0  0  0  0  0  0  0  0  0  0  0
    9.1330    5.2585   27.0901 H   0  0  0  0  0  0  0  0  0  0  0  0
    8.5287    2.8698   27.4464 H   0  0  0  0  0  0  0  0  0  0  0  0
    8.5289    1.2639   25.5433 H   0  0  0  0  0  0  0  0  0  0  0  0
    9.9408    6.8560   22.4043 H   0  0  0  0  0  0  0  0  0  0  0  0
   10.4400    7.6442   25.7639 H   0  0  0  0  0  0  0  0  0  0  0  0
    9.3946    8.2983   24.4729 H   0  0  0  0  0  0  0  0  0  0  0  0
    8.6858    7.4384   25.8494 H   0  0  0  0  0  0  0  0  0  0  0  0
  1  2  1  0
  2  3  1  0
  3  4  2  0
  4  5  1  0
  5  6  2  0
  6  7  1  0
  7  8  2  0
  8  9  1  0
  9 10  1  0
 10 11  1  0
 11 12  2  0
 12 13  1  0
 13 14  2  0
 14 15  1  0
 15 16  2  0
 16 17  1  0
 14 18  1  0
 13 19  1  0
 12 20  1  0
 10 21  1  0
 10 22  1  0
  9 23  2  0
 23 24  1  0
 24 25  1  0
 25 26  1  0
 26 27  1  0
 27 28  1  0
 27 29  1  0
 27 30  1  0
 26 31  1  0
 26 32  1  0
 25 33  1  0
 25 34  1  0
  6 35  1  0
 35 36  2  0
 36 37  1  0
 37 38  2  0
 37 39  1  0
 36 40  1  0
 35 41  1  0
  3 42  1  0
  1 43  1  0
  1 44  1  0
  1 45  1  0
 38  2  1  0
 38  5  1  0
 24  7  1  0
 16 11  1  0
M  END
>  <cnnaffinity>  (1) 
-5.92403

>  <filename>  (1) 
Cn1cnc2c(-c3nc(Cc4cccnc4)nn3CCC(F)(F)F)cccc21

$$$$
