
     RDKit          3D

 39 41  0  0  0  0  0  0  0  0999 V2000
    4.9781    1.7968   16.9644 H   0  0  0  0  0  0  0  0  0  0  0  0
    5.4217    1.3025   17.8247 C   0  0  0  0  0  0  0  0  0  0  0  0
    6.6068    0.7101   17.6088 N   0  0  0  0  0  0  0  0  0  0  0  0
    7.1915    0.0906   18.6428 C   0  0  0  0  0  0  0  0  0  0  0  0
    8.1575   -0.3746   18.4602 H   0  0  0  0  0  0  0  0  0  0  0  0
    6.6146    0.0222   19.9220 C   0  0  0  0  0  0  0  0  0  0  0  0
    7.2287   -0.6940   20.9998 N   0  0  0  0  0  0  0  0  0  0  0  0
    7.5001    0.0872   22.0817 N   0  0  0  0  0  0  0  0  0  0  0  0
    8.1951   -0.4391   23.0745 C   0  0  0  0  0  0  0  0  0  0  0  0
    8.4959    0.4037   24.3334 C   0  0  0  0  0  0  0  0  0  0  0  0
    9.4669    0.1179   25.0206 O   0  0  0  0  0  0  0  0  0  0  0  0
    7.6767    1.4732   24.6868 N   0  0  0  0  0  0  0  0  0  0  0  0
    6.2956    1.6998   24.2145 C   0  0  0  0  0  0  0  0  0  0  0  0
    6.3149    2.2825   23.2807 H   0  0  0  0  0  0  0  0  0  0  0  0
    5.8196    0.7391   23.9976 H   0  0  0  0  0  0  0  0  0  0  0  0
    5.4539    2.4531   25.2593 C   0  0  0  0  0  0  0  0  0  0  0  0
    4.4724    2.6701   24.8134 H   0  0  0  0  0  0  0  0  0  0  0  0
    5.2802    1.7909   26.1330 H   0  0  0  0  0  0  0  0  0  0  0  0
    6.0912    3.7145   25.6496 N   0  0  0  0  0  0  0  0  0  0  0  0
    5.2620    4.5106   26.5414 C   0  0  0  0  0  0  0  0  0  0  0  0
    5.0626    4.0150   27.5130 H   0  0  0  0  0  0  0  0  0  0  0  0
    4.2968    4.7269   26.0655 H   0  0  0  0  0  0  0  0  0  0  0  0
    5.7509    5.4719   26.7427 H   0  0  0  0  0  0  0  0  0  0  0  0
    7.4213    3.4456   26.2088 C   0  0  0  0  0  0  0  0  0  0  0  0
    7.9005    4.4066   26.4493 H   0  0  0  0  0  0  0  0  0  0  0  0
    7.3588    2.8583   27.1474 H   0  0  0  0  0  0  0  0  0  0  0  0
    8.3107    2.7100   25.1993 C   0  0  0  0  0  0  0  0  0  0  0  0
    8.5140    3.3946   24.3589 H   0  0  0  0  0  0  0  0  0  0  0  0
    9.2628    2.4490   25.6704 H   0  0  0  0  0  0  0  0  0  0  0  0
    8.7015   -1.7897   22.9956 C   0  0  0  0  0  0  0  0  0  0  0  0
    9.4236   -2.1188   23.7431 H   0  0  0  0  0  0  0  0  0  0  0  0
    8.2397   -2.6147   22.0181 C   0  0  0  0  0  0  0  0  0  0  0  0
    8.4774   -3.6694   21.9475 H   0  0  0  0  0  0  0  0  0  0  0  0
    7.2729   -2.1373   21.0309 C   0  0  0  0  0  0  0  0  0  0  0  0
    6.5914   -2.8357   20.3045 O   0  0  0  0  0  0  0  0  0  0  0  0
    5.4362    0.7317   20.1601 C   0  0  0  0  0  0  0  0  0  0  0  0
    5.0489    0.8107   21.1741 H   0  0  0  0  0  0  0  0  0  0  0  0
    4.8043    1.3499   19.0789 C   0  0  0  0  0  0  0  0  0  0  0  0
    3.8743    1.8902   19.2070 H   0  0  0  0  0  0  0  0  0  0  0  0
  1  2  1  0
  2  3  2  0
  3  4  1  0
  4  5  1  0
  4  6  2  0
  6  7  1  0
  7  8  1  0
  8  9  2  0
  9 10  1  0
 10 11  2  0
 10 12  1  0
 12 13  1  0
 13 14  1  0
 13 15  1  0
 13 16  1  0
 16 17  1  0
 16 18  1  0
 16 19  1  0
 19 20  1  0
 20 21  1  0
 20 22  1  0
 20 23  1  0
 19 24  1  0
 24 25  1  0
 24 26  1  0
 24 27  1  0
 27 28  1  0
 27 29  1  0
  9 30  1  0
 30 31  1  0
 30 32  2  0
 32 33  1  0
 32 34  1  0
 34 35  2  0
  6 36  1  0
 36 37  1  0
 36 38  2  0
 38 39  1  0
 38  2  1  0
 34  7  1  0
 27 12  1  0
M  END
>  <cnnaffinity>  (1) 
-4.92397

>  <filename>  (1) 
CN1CCN(C(=O)c2ccc(=O)n(-c3cccnc3)n2)CC1

$$$$
