
     RDKit          3D

 49 52  0  0  0  0  0  0  0  0999 V2000
   12.3319   -0.1662   22.6896 C   0  0  0  0  0  0  0  0  0  0  0  0
   12.4307    1.3095   22.6353 N   0  0  0  0  0  0  0  0  0  0  0  0
   11.3079    2.0951   22.3852 C   0  0  0  0  0  0  0  0  0  0  0  0
    9.9671    1.4510   22.2493 C   0  0  0  0  0  0  0  0  0  0  0  0
    9.5749    0.4755   21.4285 N   0  0  0  0  0  0  0  0  0  0  0  0
    8.2583    0.3388   21.7209 C   0  0  0  0  0  0  0  0  0  0  0  0
    7.3595   -0.6344   21.0082 C   0  0  0  0  0  0  0  0  0  0  0  0
    6.5992   -0.0163   19.8386 C   0  0  0  0  0  0  0  0  0  0  0  0
    5.3943    0.6680   20.0573 C   0  0  0  0  0  0  0  0  0  0  0  0
    4.7914    1.3393   18.9906 C   0  0  0  0  0  0  0  0  0  0  0  0
    5.4094    1.2978   17.7387 C   0  0  0  0  0  0  0  0  0  0  0  0
    6.5443    0.6238   17.4969 N   0  0  0  0  0  0  0  0  0  0  0  0
    7.1095   -0.0149   18.5282 C   0  0  0  0  0  0  0  0  0  0  0  0
    8.0242   -0.5639   18.2979 H   0  0  0  0  0  0  0  0  0  0  0  0
    4.9813    1.8280   16.8896 H   0  0  0  0  0  0  0  0  0  0  0  0
    3.8709    1.8994   19.1167 H   0  0  0  0  0  0  0  0  0  0  0  0
    4.9430    0.6705   21.0512 H   0  0  0  0  0  0  0  0  0  0  0  0
    7.9861   -1.4703   20.6796 H   0  0  0  0  0  0  0  0  0  0  0  0
    6.6478   -1.0369   21.7384 H   0  0  0  0  0  0  0  0  0  0  0  0
    7.8197    1.1460   22.6694 N   0  0  0  0  0  0  0  0  0  0  0  0
    8.9252    1.8434   23.0214 N   0  0  0  0  0  0  0  0  0  0  0  0
    8.8524    2.8904   24.0508 C   0  0  0  0  0  0  0  0  0  0  0  0
    8.4048    2.2985   25.4163 C   0  0  0  0  0  0  0  0  0  0  0  0
    7.8219    3.3911   26.3271 C   0  0  0  0  0  0  0  0  0  0  0  0
    6.5906    4.0677   25.7040 C   0  0  0  0  0  0  0  0  0  0  0  0
    6.5528    5.3735   26.1291 F   0  0  0  0  0  0  0  0  0  0  0  0
    5.4452    3.4878   26.1840 F   0  0  0  0  0  0  0  0  0  0  0  0
    6.5506    4.0288   24.1740 C   0  0  0  0  0  0  0  0  0  0  0  0
    7.9644    4.0770   23.5676 C   0  0  0  0  0  0  0  0  0  0  0  0
    7.8918    4.0737   22.4735 H   0  0  0  0  0  0  0  0  0  0  0  0
    8.4595    5.0176   23.8437 H   0  0  0  0  0  0  0  0  0  0  0  0
    6.0656    3.0903   23.8752 H   0  0  0  0  0  0  0  0  0  0  0  0
    5.9219    4.8555   23.8268 H   0  0  0  0  0  0  0  0  0  0  0  0
    8.5708    4.1753   26.4975 H   0  0  0  0  0  0  0  0  0  0  0  0
    7.5372    2.9996   27.3078 H   0  0  0  0  0  0  0  0  0  0  0  0
    9.2661    1.8181   25.8949 H   0  0  0  0  0  0  0  0  0  0  0  0
    7.6623    1.5124   25.2325 H   0  0  0  0  0  0  0  0  0  0  0  0
    9.8690    3.2597   24.1977 H   0  0  0  0  0  0  0  0  0  0  0  0
   11.4426    3.4634   22.3116 C   0  0  0  0  0  0  0  0  0  0  0  0
   12.6989    4.0917   22.4914 C   0  0  0  0  0  0  0  0  0  0  0  0
   13.7925    3.3343   22.7561 C   0  0  0  0  0  0  0  0  0  0  0  0
   13.7283    1.8835   22.8308 C   0  0  0  0  0  0  0  0  0  0  0  0
   14.6941    1.1618   23.0365 O   0  0  0  0  0  0  0  0  0  0  0  0
   14.7801    3.7504   22.8739 H   0  0  0  0  0  0  0  0  0  0  0  0
   12.7791    5.1740   22.3913 H   0  0  0  0  0  0  0  0  0  0  0  0
   10.5740    4.0811   22.1407 H   0  0  0  0  0  0  0  0  0  0  0  0
   12.0703   -0.5878   21.7116 H   0  0  0  0  0  0  0  0  0  0  0  0
   11.5420   -0.4400   23.3934 H   0  0  0  0  0  0  0  0  0  0  0  0
   13.2840   -0.5648   23.0360 H   0  0  0  0  0  0  0  0  0  0  0  0
  1  2  1  0
  2  3  1  0
  3  4  1  0
  4  5  2  0
  5  6  1  0
  6  7  1  0
  7  8  1  0
  8  9  2  0
  9 10  1  0
 10 11  2  0
 11 12  1  0
 12 13  2  0
 13 14  1  0
 11 15  1  0
 10 16  1  0
  9 17  1  0
  7 18  1  0
  7 19  1  0
  6 20  2  0
 20 21  1  0
 21 22  1  0
 22 23  1  0
 23 24  1  0
 24 25  1  0
 25 26  1  0
 25 27  1  0
 25 28  1  0
 28 29  1  0
 29 30  1  0
 29 31  1  0
 28 32  1  0
 28 33  1  0
 24 34  1  0
 24 35  1  0
 23 36  1  0
 23 37  1  0
 22 38  1  0
  3 39  2  0
 39 40  1  0
 40 41  2  0
 41 42  1  0
 42 43  2  0
 41 44  1  0
 40 45  1  0
 39 46  1  0
  1 47  1  0
  1 48  1  0
  1 49  1  0
 42  2  1  0
 21  4  1  0
 29 22  1  0
 13  8  1  0
M  END
>  <cnnaffinity>  (1) 
-6.22365

>  <filename>  (1) 
Cn1c(-c2nc(Cc3cccnc3)nn2C2CCC(F)(F)CC2)cccc1=O

$$$$
