
     RDKit          3D

 35 37  0  0  0  0  0  0  0  0999 V2000
    4.9719    1.9085   16.9353 H   0  0  0  0  0  0  0  0  0  0  0  0
    5.3994    1.3394   17.7570 C   0  0  0  0  0  0  0  0  0  0  0  0
    6.5469    0.6925   17.4880 N   0  0  0  0  0  0  0  0  0  0  0  0
    7.1118    0.0055   18.4846 C   0  0  0  0  0  0  0  0  0  0  0  0
    8.0422   -0.5135   18.2568 H   0  0  0  0  0  0  0  0  0  0  0  0
    6.5655   -0.0908   19.7717 C   0  0  0  0  0  0  0  0  0  0  0  0
    7.5161   -0.9041   21.0408 S   0  0  0  0  0  0  0  0  0  0  0  0
    8.5065    0.4841   21.5025 N   0  0  0  0  0  0  0  0  0  0  0  0
    8.9394    0.8257   20.6389 H   0  0  0  0  0  0  0  0  0  0  0  0
    7.7387    1.5781   22.0858 N   0  0  0  0  0  0  0  0  0  0  0  0
    8.4203    2.8753   22.1998 C   0  0  0  0  0  0  0  0  0  0  0  0
    8.4920    3.3801   21.2283 H   0  0  0  0  0  0  0  0  0  0  0  0
    9.4465    2.7528   22.5858 H   0  0  0  0  0  0  0  0  0  0  0  0
    7.5348    3.6475   23.1916 C   0  0  0  0  0  0  0  0  0  0  0  0
    6.7923    4.2338   22.6443 H   0  0  0  0  0  0  0  0  0  0  0  0
    8.1308    4.3444   23.7855 H   0  0  0  0  0  0  0  0  0  0  0  0
    6.8419    2.5705   24.0627 C   0  0  2  0  0  0  0  0  0  0  0  0
    5.7606    2.7058   24.0275 H   0  0  0  0  0  0  0  0  0  0  0  0
    7.3146    2.4660   25.5187 C   0  0  0  0  0  0  0  0  0  0  0  0
    6.4927    2.0977   26.1664 H   0  0  0  0  0  0  0  0  0  0  0  0
    7.6270    3.4534   25.8939 H   0  0  0  0  0  0  0  0  0  0  0  0
    8.4478    1.5453   25.4952 N   0  0  0  0  0  0  0  0  0  0  0  0
    8.8258    0.9134   26.7452 C   0  0  0  0  0  0  0  0  0  0  0  0
    8.3409   -0.0663   26.9283 H   0  0  0  0  0  0  0  0  0  0  0  0
    8.5454    1.5588   27.5862 H   0  0  0  0  0  0  0  0  0  0  0  0
    9.9115    0.7425   26.7572 H   0  0  0  0  0  0  0  0  0  0  0  0
    8.2892    0.6173   24.3790 C   0  0  0  0  0  0  0  0  0  0  0  0
    7.9251   -0.3675   24.7164 H   0  0  0  0  0  0  0  0  0  0  0  0
    9.2376    0.4344   23.8577 H   0  0  0  0  0  0  0  0  0  0  0  0
    7.2425    1.2305   23.4206 C   0  0  2  0  0  0  0  0  0  0  0  0
    6.3853    0.5558   23.3162 H   0  0  0  0  0  0  0  0  0  0  0  0
    5.3586    0.5636   20.0395 C   0  0  0  0  0  0  0  0  0  0  0  0
    4.9216    0.5180   21.0375 H   0  0  0  0  0  0  0  0  0  0  0  0
    4.7655    1.2954   19.0068 C   0  0  0  0  0  0  0  0  0  0  0  0
    3.8432    1.8404   19.1608 H   0  0  0  0  0  0  0  0  0  0  0  0
  1  2  1  0
  2  3  2  0
  3  4  1  0
  4  5  1  0
  4  6  2  0
  6  7  1  0
  7  8  1  0
  8  9  1  0
  8 10  1  0
 10 11  1  0
 11 12  1  0
 11 13  1  0
 11 14  1  0
 14 15  1  0
 14 16  1  0
 14 17  1  0
 17 18  1  1
 17 19  1  0
 19 20  1  0
 19 21  1  0
 19 22  1  0
 22 23  1  0
 23 24  1  0
 23 25  1  0
 23 26  1  0
 22 27  1  0
 27 28  1  0
 27 29  1  0
 27 30  1  0
 30 31  1  6
  6 32  1  0
 32 33  1  0
 32 34  2  0
 34 35  1  0
 34  2  1  0
 30 10  1  0
 30 17  1  0
M  END
>  <cnnaffinity>  (1) 
-4.55248

>  <filename>  (1) 
CN1C[C@H]2CCN(NSc3cccnc3)[C@H]2C1

$$$$
