
     RDKit          3D

 43 46  0  0  0  0  0  0  0  0999 V2000
    7.6845    3.9728   27.4667 C   0  0  0  0  0  0  0  0  0  0  0  0
    8.4633    3.6634   26.2758 N   0  0  0  0  0  0  0  0  0  0  0  0
    8.4641    2.4228   25.6657 C   0  0  0  0  0  0  0  0  0  0  0  0
    8.8426    2.5272   24.3521 C   0  0  0  0  0  0  0  0  0  0  0  0
    8.8517    1.5621   23.2600 C   0  0  0  0  0  0  0  0  0  0  0  0
    7.8973    0.6978   22.9266 N   0  0  0  0  0  0  0  0  0  0  0  0
    8.3168    0.2145   21.7328 C   0  0  0  0  0  0  0  0  0  0  0  0
    7.5117   -0.7353   20.8876 C   0  0  0  0  0  0  0  0  0  0  0  0
    6.7517   -0.0460   19.7577 C   0  0  0  0  0  0  0  0  0  0  0  0
    5.5968    0.7013   20.0267 C   0  0  0  0  0  0  0  0  0  0  0  0
    4.9413    1.3358   18.9668 C   0  0  0  0  0  0  0  0  0  0  0  0
    5.4800    1.2267   17.6809 C   0  0  0  0  0  0  0  0  0  0  0  0
    6.5982    0.5359   17.4079 N   0  0  0  0  0  0  0  0  0  0  0  0
    7.2072   -0.0751   18.4307 C   0  0  0  0  0  0  0  0  0  0  0  0
    8.1231   -0.6192   18.1944 H   0  0  0  0  0  0  0  0  0  0  0  0
    5.0043    1.7131   16.8290 H   0  0  0  0  0  0  0  0  0  0  0  0
    4.0406    1.9226   19.1181 H   0  0  0  0  0  0  0  0  0  0  0  0
    5.2366    0.7819   21.0549 H   0  0  0  0  0  0  0  0  0  0  0  0
    6.8120   -1.2550   21.5516 H   0  0  0  0  0  0  0  0  0  0  0  0
    8.2051   -1.4769   20.4735 H   0  0  0  0  0  0  0  0  0  0  0  0
    9.4868    0.6659   21.3306 N   0  0  0  0  0  0  0  0  0  0  0  0
    9.8350    1.5429   22.2993 N   0  0  0  0  0  0  0  0  0  0  0  0
   11.2214    2.0090   22.3016 C   0  0  0  0  0  0  0  0  0  0  0  0
   12.1875    1.0950   23.0425 C   0  0  0  0  0  0  0  0  0  0  0  0
   13.4251    1.6167   22.9305 F   0  0  0  0  0  0  0  0  0  0  0  0
   12.2320   -0.1553   22.5726 F   0  0  0  0  0  0  0  0  0  0  0  0
   11.8862    1.0419   24.3509 F   0  0  0  0  0  0  0  0  0  0  0  0
   11.5455    2.0771   21.2627 H   0  0  0  0  0  0  0  0  0  0  0  0
   11.3098    2.9889   22.7742 H   0  0  0  0  0  0  0  0  0  0  0  0
    9.0935    3.9300   24.1291 C   0  0  0  0  0  0  0  0  0  0  0  0
    9.3892    4.6564   22.9650 C   0  0  0  0  0  0  0  0  0  0  0  0
    9.5694    6.0268   23.0385 C   0  0  0  0  0  0  0  0  0  0  0  0
    9.4357    6.6920   24.2811 C   0  0  0  0  0  0  0  0  0  0  0  0
    9.0946    5.9981   25.4400 C   0  0  0  0  0  0  0  0  0  0  0  0
    8.8761    4.6056   25.3438 C   0  0  0  0  0  0  0  0  0  0  0  0
    9.0407    6.5280   26.3853 H   0  0  0  0  0  0  0  0  0  0  0  0
    9.5916    7.7656   24.3217 H   0  0  0  0  0  0  0  0  0  0  0  0
    9.8256    6.5733   22.1379 H   0  0  0  0  0  0  0  0  0  0  0  0
    9.4500    4.0967   22.0419 H   0  0  0  0  0  0  0  0  0  0  0  0
    8.2591    1.5417   26.2726 H   0  0  0  0  0  0  0  0  0  0  0  0
    8.1212    4.8194   28.0027 H   0  0  0  0  0  0  0  0  0  0  0  0
    7.6823    3.1009   28.1254 H   0  0  0  0  0  0  0  0  0  0  0  0
    6.6446    4.2226   27.2129 H   0  0  0  0  0  0  0  0  0  0  0  0
  1  2  1  0
  2  3  1  0
  3  4  2  0
  4  5  1  0
  5  6  2  0
  6  7  1  0
  7  8  1  0
  8  9  1  0
  9 10  2  0
 10 11  1  0
 11 12  2  0
 12 13  1  0
 13 14  2  0
 14 15  1  0
 12 16  1  0
 11 17  1  0
 10 18  1  0
  8 19  1  0
  8 20  1  0
  7 21  2  0
 21 22  1  0
 22 23  1  0
 23 24  1  0
 24 25  1  0
 24 26  1  0
 24 27  1  0
 23 28  1  0
 23 29  1  0
  4 30  1  0
 30 31  2  0
 31 32  1  0
 32 33  2  0
 33 34  1  0
 34 35  2  0
 34 36  1  0
 33 37  1  0
 32 38  1  0
 31 39  1  0
  3 40  1  0
  1 41  1  0
  1 42  1  0
  1 43  1  0
 35  2  1  0
 22  5  1  0
 35 30  1  0
 14  9  1  0
M  END
>  <cnnaffinity>  (1) 
-6.03672

>  <filename>  (1) 
Cn1cc(-c2nc(Cc3cccnc3)nn2CC(F)(F)F)c2ccccc21

$$$$
