
     RDKit          3D

 39 41  0  0  0  0  0  0  0  0999 V2000
    4.9230    1.7909   17.0192 H   0  0  0  0  0  0  0  0  0  0  0  0
    5.4027    1.2895   17.8569 C   0  0  0  0  0  0  0  0  0  0  0  0
    6.5626    0.6799   17.5745 N   0  0  0  0  0  0  0  0  0  0  0  0
    7.1908    0.0570   18.5765 C   0  0  0  0  0  0  0  0  0  0  0  0
    8.1429   -0.4146   18.3497 H   0  0  0  0  0  0  0  0  0  0  0  0
    6.6880   -0.0286   19.8995 C   0  0  0  0  0  0  0  0  0  0  0  0
    7.3505   -0.8000   20.8948 N   0  0  0  0  0  0  0  0  0  0  0  0
    8.7164   -1.0922   20.9438 C   0  0  0  0  0  0  0  0  0  0  0  0
    9.5934   -0.5725   20.3150 O   0  0  0  0  0  0  0  0  0  0  0  0
    8.9270   -2.0775   21.8469 O   0  0  0  0  0  0  0  0  0  0  0  0
    7.7056   -2.4457   22.4883 C   0  0  0  0  0  0  0  0  0  0  0  0
    7.8509   -2.3612   23.5705 H   0  0  0  0  0  0  0  0  0  0  0  0
    7.4431   -3.4762   22.2284 H   0  0  0  0  0  0  0  0  0  0  0  0
    6.6579   -1.4213   21.9999 C   0  0  1  0  0  0  0  0  0  0  0  0
    5.7132   -1.8752   21.6757 H   0  0  0  0  0  0  0  0  0  0  0  0
    6.2762   -0.5309   23.0015 O   0  0  0  0  0  0  0  0  0  0  0  0
    7.2306    0.3103   23.6363 C   0  0  0  0  0  0  0  0  0  0  0  0
    8.2600    0.0571   23.3372 H   0  0  0  0  0  0  0  0  0  0  0  0
    6.9071    1.7471   23.1934 C   0  0  0  0  0  0  0  0  0  0  0  0
    5.8226    1.8502   23.0571 H   0  0  0  0  0  0  0  0  0  0  0  0
    7.3731    1.9243   22.2160 H   0  0  0  0  0  0  0  0  0  0  0  0
    7.3756    2.7428   24.2522 C   0  0  0  0  0  0  0  0  0  0  0  0
    8.4719    2.6198   24.3789 H   0  0  0  0  0  0  0  0  0  0  0  0
    7.2107    3.7805   23.9295 H   0  0  0  0  0  0  0  0  0  0  0  0
    6.6593    2.5450   25.5296 N   0  0  0  0  0  0  0  0  0  0  0  0
    7.3899    3.1336   26.6442 C   0  0  0  0  0  0  0  0  0  0  0  0
    6.7517    3.1662   27.5355 H   0  0  0  0  0  0  0  0  0  0  0  0
    7.6616    4.1650   26.3937 H   0  0  0  0  0  0  0  0  0  0  0  0
    8.3230    2.5939   26.9109 H   0  0  0  0  0  0  0  0  0  0  0  0
    6.1848    1.1743   25.7939 C   0  0  0  0  0  0  0  0  0  0  0  0
    6.1140    1.0320   26.8801 H   0  0  0  0  0  0  0  0  0  0  0  0
    5.1605    1.0475   25.4060 H   0  0  0  0  0  0  0  0  0  0  0  0
    7.1153    0.1247   25.1639 C   0  0  0  0  0  0  0  0  0  0  0  0
    6.7741   -0.8882   25.3991 H   0  0  0  0  0  0  0  0  0  0  0  0
    8.1151    0.2576   25.6010 H   0  0  0  0  0  0  0  0  0  0  0  0
    5.4785    0.6239   20.1793 C   0  0  0  0  0  0  0  0  0  0  0  0
    5.0662    0.5860   21.1874 H   0  0  0  0  0  0  0  0  0  0  0  0
    4.8315    1.2973   19.1322 C   0  0  0  0  0  0  0  0  0  0  0  0
    3.8963    1.8204   19.2819 H   0  0  0  0  0  0  0  0  0  0  0  0
  1  2  1  0
  2  3  2  0
  3  4  1  0
  4  5  1  0
  4  6  2  0
  6  7  1  0
  7  8  1  0
  8  9  2  0
  8 10  1  0
 10 11  1  0
 11 12  1  0
 11 13  1  0
 11 14  1  0
 14 15  1  6
 14 16  1  0
 16 17  1  0
 17 18  1  0
 17 19  1  0
 19 20  1  0
 19 21  1  0
 19 22  1  0
 22 23  1  0
 22 24  1  0
 22 25  1  0
 25 26  1  0
 26 27  1  0
 26 28  1  0
 26 29  1  0
 25 30  1  0
 30 31  1  0
 30 32  1  0
 30 33  1  0
 33 34  1  0
 33 35  1  0
  6 36  1  0
 36 37  1  0
 36 38  2  0
 38 39  1  0
 38  2  1  0
 14  7  1  0
 33 17  1  0
M  END
>  <cnnaffinity>  (1) 
-4.1552

>  <filename>  (1) 
CN1CCC(O[C@@H]2COC(=O)N2c2cccnc2)CC1

$$$$
