
     RDKit          3D

 37 39  0  0  0  0  0  0  0  0999 V2000
    4.9514    1.7866   16.9890 H   0  0  0  0  0  0  0  0  0  0  0  0
    5.4077    1.2814   17.8385 C   0  0  0  0  0  0  0  0  0  0  0  0
    6.5679    0.6528   17.5968 N   0  0  0  0  0  0  0  0  0  0  0  0
    7.1638    0.0340   18.6191 C   0  0  0  0  0  0  0  0  0  0  0  0
    8.1119   -0.4490   18.3856 H   0  0  0  0  0  0  0  0  0  0  0  0
    6.6436    0.0120   19.9239 C   0  0  0  0  0  0  0  0  0  0  0  0
    7.3694   -0.6865   20.9813 C   0  0  0  0  0  0  0  0  0  0  0  0
    7.9941   -1.8830   20.7552 N   0  0  0  0  0  0  0  0  0  0  0  0
    8.4536   -2.2854   21.9064 C   0  0  0  0  0  0  0  0  0  0  0  0
    8.9883   -3.2106   22.0900 H   0  0  0  0  0  0  0  0  0  0  0  0
    8.1780   -1.4035   22.8978 N   0  0  0  0  0  0  0  0  0  0  0  0
    8.5661   -1.4663   23.8345 H   0  0  0  0  0  0  0  0  0  0  0  0
    7.5043   -0.3320   22.3049 C   0  0  0  0  0  0  0  0  0  0  0  0
    7.2028    0.9870   22.9183 C   0  0  0  0  0  0  0  0  0  0  0  0
    7.1757    2.0189   22.2671 O   0  0  0  0  0  0  0  0  0  0  0  0
    7.0073    0.9755   24.2928 N   0  0  0  0  0  0  0  0  0  0  0  0
    6.0730    0.0509   24.9690 C   0  0  0  0  0  0  0  0  0  0  0  0
    5.0511    0.4631   24.9692 H   0  0  0  0  0  0  0  0  0  0  0  0
    6.0364   -0.8978   24.4280 H   0  0  0  0  0  0  0  0  0  0  0  0
    6.5027   -0.1954   26.4182 C   0  0  0  0  0  0  0  0  0  0  0  0
    5.7462   -0.8102   26.9191 H   0  0  0  0  0  0  0  0  0  0  0  0
    7.4529   -0.7668   26.4264 H   0  0  0  0  0  0  0  0  0  0  0  0
    6.6337    1.0664   27.1546 N   0  0  0  0  0  0  0  0  0  0  0  0
    6.9784    0.8354   28.5506 C   0  0  0  0  0  0  0  0  0  0  0  0
    7.0383    1.7915   29.0839 H   0  0  0  0  0  0  0  0  0  0  0  0
    7.9490    0.3133   28.6838 H   0  0  0  0  0  0  0  0  0  0  0  0
    6.1995    0.2314   29.0315 H   0  0  0  0  0  0  0  0  0  0  0  0
    7.6312    1.9104   26.4883 C   0  0  0  0  0  0  0  0  0  0  0  0
    7.7224    2.8510   27.0413 H   0  0  0  0  0  0  0  0  0  0  0  0
    8.6316    1.4280   26.4864 H   0  0  0  0  0  0  0  0  0  0  0  0
    7.2310    2.2204   25.0422 C   0  0  0  0  0  0  0  0  0  0  0  0
    8.0358    2.7722   24.5479 H   0  0  0  0  0  0  0  0  0  0  0  0
    6.3329    2.8545   25.0201 H   0  0  0  0  0  0  0  0  0  0  0  0
    5.4189    0.6545   20.1573 C   0  0  0  0  0  0  0  0  0  0  0  0
    4.9774    0.6627   21.1557 H   0  0  0  0  0  0  0  0  0  0  0  0
    4.7981    1.3021   19.0946 C   0  0  0  0  0  0  0  0  0  0  0  0
    3.8734    1.8413   19.2386 H   0  0  0  0  0  0  0  0  0  0  0  0
  1  2  1  0
  2  3  2  0
  3  4  1  0
  4  5  1  0
  4  6  2  0
  6  7  1  0
  7  8  1  0
  8  9  2  0
  9 10  1  0
  9 11  1  0
 11 12  1  0
 11 13  1  0
 13 14  1  0
 14 15  2  0
 14 16  1  0
 16 17  1  0
 17 18  1  0
 17 19  1  0
 17 20  1  0
 20 21  1  0
 20 22  1  0
 20 23  1  0
 23 24  1  0
 24 25  1  0
 24 26  1  0
 24 27  1  0
 23 28  1  0
 28 29  1  0
 28 30  1  0
 28 31  1  0
 31 32  1  0
 31 33  1  0
  6 34  1  0
 34 35  1  0
 34 36  2  0
 36 37  1  0
 36  2  1  0
 13  7  2  0
 31 16  1  0
M  END
>  <cnnaffinity>  (1) 
-5.37863

>  <filename>  (1) 
CN1CCN(C(=O)c2[nH]cnc2-c2cccnc2)CC1

$$$$
