
     RDKit          3D

 39 41  0  0  0  0  0  0  0  0999 V2000
    4.9661    1.8483   17.0265 H   0  0  0  0  0  0  0  0  0  0  0  0
    5.4133    1.2914   17.8489 C   0  0  0  0  0  0  0  0  0  0  0  0
    6.5369    0.6234   17.5583 N   0  0  0  0  0  0  0  0  0  0  0  0
    7.1362   -0.0387   18.5599 C   0  0  0  0  0  0  0  0  0  0  0  0
    8.0356   -0.5864   18.2827 H   0  0  0  0  0  0  0  0  0  0  0  0
    6.6709   -0.0742   19.8950 C   0  0  0  0  0  0  0  0  0  0  0  0
    7.4480   -0.6576   21.0382 C   0  0  0  0  0  0  0  0  0  0  0  0
    7.2729    0.0048   22.1545 N   0  0  0  0  0  0  0  0  0  0  0  0
    7.9180   -0.5406   23.2923 N   0  0  0  0  0  0  0  0  0  0  0  0
    8.1964    0.2757   24.4381 C   0  0  0  0  0  0  0  0  0  0  0  0
    9.2275    0.1157   25.0717 O   0  0  0  0  0  0  0  0  0  0  0  0
    7.2494    1.2242   24.7867 N   0  0  0  0  0  0  0  0  0  0  0  0
    5.8430    1.2201   24.3423 C   0  0  0  0  0  0  0  0  0  0  0  0
    5.7201    1.9158   23.5012 H   0  0  0  0  0  0  0  0  0  0  0  0
    5.5704    0.2254   23.9911 H   0  0  0  0  0  0  0  0  0  0  0  0
    4.8993    1.6385   25.4760 C   0  0  0  0  0  0  0  0  0  0  0  0
    3.8803    1.6997   25.0715 H   0  0  0  0  0  0  0  0  0  0  0  0
    4.8908    0.8473   26.2549 H   0  0  0  0  0  0  0  0  0  0  0  0
    5.2890    2.9397   26.0216 N   0  0  0  0  0  0  0  0  0  0  0  0
    4.3196    3.4544   26.9747 C   0  0  0  0  0  0  0  0  0  0  0  0
    4.6080    4.4629   27.2927 H   0  0  0  0  0  0  0  0  0  0  0  0
    4.2109    2.8232   27.8793 H   0  0  0  0  0  0  0  0  0  0  0  0
    3.3347    3.5345   26.4972 H   0  0  0  0  0  0  0  0  0  0  0  0
    6.6479    2.8478   26.5710 C   0  0  0  0  0  0  0  0  0  0  0  0
    6.9273    3.8238   26.9890 H   0  0  0  0  0  0  0  0  0  0  0  0
    6.7052    2.1098   27.3958 H   0  0  0  0  0  0  0  0  0  0  0  0
    7.6553    2.4622   25.4780 C   0  0  0  0  0  0  0  0  0  0  0  0
    7.7233    3.2913   24.7572 H   0  0  0  0  0  0  0  0  0  0  0  0
    8.6439    2.3209   25.9229 H   0  0  0  0  0  0  0  0  0  0  0  0
    8.3754   -1.8622   23.2443 C   0  0  0  0  0  0  0  0  0  0  0  0
    8.7044   -2.3151   24.1685 H   0  0  0  0  0  0  0  0  0  0  0  0
    8.4211   -2.5532   22.0633 C   0  0  0  0  0  0  0  0  0  0  0  0
    8.7665   -3.5901   21.9684 H   0  0  0  0  0  0  0  0  0  0  0  0
    8.5436   -1.7513   20.7051 C   0  0  0  0  0  0  0  0  0  0  0  0
    8.4667   -1.7560   20.7514 O   0  0  0  0  0  0  0  0  0  0  0  0
    5.4578    0.6053   20.1492 C   0  0  0  0  0  0  0  0  0  0  0  0
    5.0399    0.5885   21.1562 H   0  0  0  0  0  0  0  0  0  0  0  0
    4.8221    1.2902   19.1165 C   0  0  0  0  0  0  0  0  0  0  0  0
    3.9221    1.8713   19.2940 H   0  0  0  0  0  0  0  0  0  0  0  0
  1  2  1  0
  2  3  2  0
  3  4  1  0
  4  5  1  0
  4  6  2  0
  6  7  1  0
  7  8  2  0
  8  9  1  0
  9 10  1  0
 10 11  2  0
 10 12  1  0
 12 13  1  0
 13 14  1  0
 13 15  1  0
 13 16  1  0
 16 17  1  0
 16 18  1  0
 16 19  1  0
 19 20  1  0
 20 21  1  0
 20 22  1  0
 20 23  1  0
 19 24  1  0
 24 25  1  0
 24 26  1  0
 24 27  1  0
 27 28  1  0
 27 29  1  0
  9 30  1  0
 30 31  1  0
 30 32  2  0
 32 33  1  0
 32 34  1  0
 34 35  2  0
  6 36  1  0
 36 37  1  0
 36 38  2  0
 38 39  1  0
 38  2  1  0
 34  7  1  0
 27 12  1  0
M  END
>  <cnnaffinity>  (1) 
-4.83324

>  <filename>  (1) 
CN1CCN(C(=O)n2ccc(=O)c(-c3cccnc3)n2)CC1

$$$$
