
     RDKit          3D

 42 44  0  0  0  0  0  0  0  0999 V2000
    4.7698   -2.5650   26.3794 C   0  0  0  0  0  0  0  0  0  0  0  0
    5.9398   -3.3762   26.6758 N   0  0  0  0  0  0  0  0  0  0  0  0
    6.2510   -3.9483   27.8877 C   0  0  0  0  0  0  0  0  0  0  0  0
    7.4422   -4.5928   27.7101 C   0  0  0  0  0  0  0  0  0  0  0  0
    7.8648   -4.4452   26.4156 N   0  0  0  0  0  0  0  0  0  0  0  0
    6.9474   -3.7197   25.8204 C   0  0  0  0  0  0  0  0  0  0  0  0
    7.0334   -3.2508   24.4051 C   0  0  0  0  0  0  0  0  0  0  0  0
    7.7756   -1.8904   24.2584 C   0  0  0  0  0  0  0  0  0  0  0  0
    7.8308   -1.4132   22.8482 C   0  0  0  0  0  0  0  0  0  0  0  0
    6.9379   -0.6657   22.2367 N   0  0  0  0  0  0  0  0  0  0  0  0
    7.3568   -0.6840   20.9469 C   0  0  0  0  0  0  0  0  0  0  0  0
    6.6473    0.0135   19.8936 C   0  0  0  0  0  0  0  0  0  0  0  0
    5.4319    0.6585   20.1537 C   0  0  0  0  0  0  0  0  0  0  0  0
    4.8070    1.3066   19.0974 C   0  0  0  0  0  0  0  0  0  0  0  0
    5.4168    1.2817   17.8375 C   0  0  0  0  0  0  0  0  0  0  0  0
    6.5798    0.6624   17.5833 N   0  0  0  0  0  0  0  0  0  0  0  0
    7.1855    0.0474   18.6014 C   0  0  0  0  0  0  0  0  0  0  0  0
    8.1403   -0.4333   18.3804 H   0  0  0  0  0  0  0  0  0  0  0  0
    4.9555    1.7851   16.9938 H   0  0  0  0  0  0  0  0  0  0  0  0
    3.8741    1.8399   19.2377 H   0  0  0  0  0  0  0  0  0  0  0  0
    5.0078    0.6451   21.1607 H   0  0  0  0  0  0  0  0  0  0  0  0
    8.4479   -1.3871   20.7332 N   0  0  0  0  0  0  0  0  0  0  0  0
    8.7596   -1.8394   21.9669 N   0  0  0  0  0  0  0  0  0  0  0  0
   10.0061   -2.5433   22.1781 C   0  0  0  0  0  0  0  0  0  0  0  0
   11.1718   -1.7256   22.7432 C   0  0  0  0  0  0  0  0  0  0  0  0
   11.7291   -0.6561   21.8371 C   0  0  0  0  0  0  0  0  0  0  0  0
   12.1664   -1.2178   20.6931 F   0  0  0  0  0  0  0  0  0  0  0  0
   12.7942   -0.0722   22.4193 F   0  0  0  0  0  0  0  0  0  0  0  0
   10.8700    0.3199   21.5197 F   0  0  0  0  0  0  0  0  0  0  0  0
   10.9642   -1.2674   23.7160 H   0  0  0  0  0  0  0  0  0  0  0  0
   11.9977   -2.4308   22.8547 H   0  0  0  0  0  0  0  0  0  0  0  0
    9.8159   -3.3995   22.8377 H   0  0  0  0  0  0  0  0  0  0  0  0
   10.2582   -2.9057   21.1851 H   0  0  0  0  0  0  0  0  0  0  0  0
    7.2737   -1.1110   24.8407 H   0  0  0  0  0  0  0  0  0  0  0  0
    8.7936   -1.9805   24.6580 H   0  0  0  0  0  0  0  0  0  0  0  0
    6.0291   -3.1630   23.9702 H   0  0  0  0  0  0  0  0  0  0  0  0
    7.5571   -4.0348   23.8453 H   0  0  0  0  0  0  0  0  0  0  0  0
    8.0534   -5.1373   28.4222 H   0  0  0  0  0  0  0  0  0  0  0  0
    5.6257   -3.7942   28.7576 H   0  0  0  0  0  0  0  0  0  0  0  0
    4.0703   -3.1042   25.7289 H   0  0  0  0  0  0  0  0  0  0  0  0
    5.0651   -1.6301   25.8867 H   0  0  0  0  0  0  0  0  0  0  0  0
    4.2721   -2.3175   27.3207 H   0  0  0  0  0  0  0  0  0  0  0  0
  1  2  1  0
  2  3  1  0
  3  4  2  0
  4  5  1  0
  5  6  2  0
  6  7  1  0
  7  8  1  0
  8  9  1  0
  9 10  2  0
 10 11  1  0
 11 12  1  0
 12 13  2  0
 13 14  1  0
 14 15  2  0
 15 16  1  0
 16 17  2  0
 17 18  1  0
 15 19  1  0
 14 20  1  0
 13 21  1  0
 11 22  2  0
 22 23  1  0
 23 24  1  0
 24 25  1  0
 25 26  1  0
 26 27  1  0
 26 28  1  0
 26 29  1  0
 25 30  1  0
 25 31  1  0
 24 32  1  0
 24 33  1  0
  8 34  1  0
  8 35  1  0
  7 36  1  0
  7 37  1  0
  4 38  1  0
  3 39  1  0
  1 40  1  0
  1 41  1  0
  1 42  1  0
  6  2  1  0
 23  9  1  0
 17 12  1  0
M  END
>  <cnnaffinity>  (1) 
-6.22669

>  <filename>  (1) 
Cn1ccnc1CCc1nc(-c2cccnc2)nn1CCC(F)(F)F

$$$$
