
     RDKit          3D

 37 39  0  0  0  0  0  0  0  0999 V2000
    4.9178    1.7781   16.9995 H   0  0  0  0  0  0  0  0  0  0  0  0
    5.4046    1.2947   17.8397 C   0  0  0  0  0  0  0  0  0  0  0  0
    6.5705    0.6819   17.5786 N   0  0  0  0  0  0  0  0  0  0  0  0
    7.1720    0.0582   18.5929 C   0  0  0  0  0  0  0  0  0  0  0  0
    8.1178   -0.4362   18.3781 H   0  0  0  0  0  0  0  0  0  0  0  0
    6.6458    0.0141   19.8893 C   0  0  0  0  0  0  0  0  0  0  0  0
    7.3689   -0.7339   20.9138 C   0  0  0  0  0  0  0  0  0  0  0  0
    7.9979   -1.8663   20.7370 N   0  0  0  0  0  0  0  0  0  0  0  0
    8.4832   -2.2784   21.9521 N   0  0  0  0  0  0  0  0  0  0  0  0
    8.1655   -1.3660   22.8274 C   0  0  0  0  0  0  0  0  0  0  0  0
    8.3964   -1.3829   23.8827 H   0  0  0  0  0  0  0  0  0  0  0  0
    7.4591   -0.3453   22.2373 N   0  0  0  0  0  0  0  0  0  0  0  0
    6.9865    0.8401   22.8009 N   0  0  0  0  0  0  0  0  0  0  0  0
    6.3251    0.7965   24.0996 C   0  0  0  0  0  0  0  0  0  0  0  0
    5.8857   -0.1944   24.2411 H   0  0  0  0  0  0  0  0  0  0  0  0
    5.4845    1.5038   24.0845 H   0  0  0  0  0  0  0  0  0  0  0  0
    7.2516    1.1556   25.2875 C   0  0  0  0  0  0  0  0  0  0  0  0
    8.2379    0.7281   25.0747 H   0  0  0  0  0  0  0  0  0  0  0  0
    6.8997    0.6382   26.1884 H   0  0  0  0  0  0  0  0  0  0  0  0
    7.3876    2.5905   25.5945 N   0  0  0  0  0  0  0  0  0  0  0  0
    6.3930    3.0376   26.5583 C   0  0  0  0  0  0  0  0  0  0  0  0
    6.5032    2.4830   27.4964 H   0  0  0  0  0  0  0  0  0  0  0  0
    5.3525    2.9042   26.2037 H   0  0  0  0  0  0  0  0  0  0  0  0
    6.5359    4.0975   26.7896 H   0  0  0  0  0  0  0  0  0  0  0  0
    7.4327    3.4930   24.4357 C   0  0  0  0  0  0  0  0  0  0  0  0
    7.8427    4.4511   24.7784 H   0  0  0  0  0  0  0  0  0  0  0  0
    6.4159    3.7324   24.0636 H   0  0  0  0  0  0  0  0  0  0  0  0
    8.2547    2.9873   23.2479 C   0  0  0  0  0  0  0  0  0  0  0  0
    8.6466    3.8488   22.6913 H   0  0  0  0  0  0  0  0  0  0  0  0
    9.1228    2.4282   23.6045 H   0  0  0  0  0  0  0  0  0  0  0  0
    7.4561    2.1152   22.2652 C   0  0  0  0  0  0  0  0  0  0  0  0
    6.5742    2.6856   21.9337 H   0  0  0  0  0  0  0  0  0  0  0  0
    8.0473    1.9401   21.3562 H   0  0  0  0  0  0  0  0  0  0  0  0
    5.4294    0.6610   20.1548 C   0  0  0  0  0  0  0  0  0  0  0  0
    5.0050    0.6385   21.1641 H   0  0  0  0  0  0  0  0  0  0  0  0
    4.7994    1.3140   19.1031 C   0  0  0  0  0  0  0  0  0  0  0  0
    3.8676    1.8463   19.2589 H   0  0  0  0  0  0  0  0  0  0  0  0
  1  2  1  0
  2  3  2  0
  3  4  1  0
  4  5  1  0
  4  6  2  0
  6  7  1  0
  7  8  2  0
  8  9  1  0
  9 10  2  0
 10 11  1  0
 10 12  1  0
 12 13  1  0
 13 14  1  0
 14 15  1  0
 14 16  1  0
 14 17  1  0
 17 18  1  0
 17 19  1  0
 17 20  1  0
 20 21  1  0
 21 22  1  0
 21 23  1  0
 21 24  1  0
 20 25  1  0
 25 26  1  0
 25 27  1  0
 25 28  1  0
 28 29  1  0
 28 30  1  0
 28 31  1  0
 31 32  1  0
 31 33  1  0
  6 34  1  0
 34 35  1  0
 34 36  2  0
 36 37  1  0
 36  2  1  0
 12  7  1  0
 31 13  1  0
M  END
>  <cnnaffinity>  (1) 
-4.88321

>  <filename>  (1) 
CN1CCCN(n2cnnc2-c2cccnc2)CC1

$$$$
