
     RDKit          3D

 43 45  0  0  0  0  0  0  0  0999 V2000
    6.2635   -4.5793   21.9857 C   0  0  0  0  0  0  0  0  0  0  0  0
    5.4898   -4.0961   23.1162 N   0  0  0  0  0  0  0  0  0  0  0  0
    4.1196   -4.1684   23.1864 C   0  0  0  0  0  0  0  0  0  0  0  0
    3.7058   -3.5889   24.3577 C   0  0  0  0  0  0  0  0  0  0  0  0
    4.8754   -3.1501   25.0326 C   0  0  0  0  0  0  0  0  0  0  0  0
    5.9659   -3.4806   24.2557 C   0  0  0  0  0  0  0  0  0  0  0  0
    7.4128   -3.1736   24.5256 C   0  0  0  0  0  0  0  0  0  0  0  0
    7.7939   -1.7016   24.2232 C   0  0  0  0  0  0  0  0  0  0  0  0
    7.6219   -1.3052   22.7863 C   0  0  0  0  0  0  0  0  0  0  0  0
    6.6951   -0.5312   22.2469 N   0  0  0  0  0  0  0  0  0  0  0  0
    6.9811   -0.5855   20.9221 C   0  0  0  0  0  0  0  0  0  0  0  0
    6.3144    0.1528   19.8542 C   0  0  0  0  0  0  0  0  0  0  0  0
    5.1297    0.8805   20.0153 C   0  0  0  0  0  0  0  0  0  0  0  0
    4.6153    1.5314   18.8937 C   0  0  0  0  0  0  0  0  0  0  0  0
    5.3058    1.4449   17.6782 C   0  0  0  0  0  0  0  0  0  0  0  0
    6.4529    0.7695   17.5242 N   0  0  0  0  0  0  0  0  0  0  0  0
    6.9426    0.1478   18.5970 C   0  0  0  0  0  0  0  0  0  0  0  0
    7.8861   -0.3768   18.4576 H   0  0  0  0  0  0  0  0  0  0  0  0
    4.9240    1.9349   16.7863 H   0  0  0  0  0  0  0  0  0  0  0  0
    3.7037    2.1146   18.9438 H   0  0  0  0  0  0  0  0  0  0  0  0
    4.6389    0.9467   20.9894 H   0  0  0  0  0  0  0  0  0  0  0  0
    8.0293   -1.3311   20.6251 N   0  0  0  0  0  0  0  0  0  0  0  0
    8.4513   -1.7872   21.8202 N   0  0  0  0  0  0  0  0  0  0  0  0
    9.8149   -2.3155   21.8628 C   0  0  0  0  0  0  0  0  0  0  0  0
   10.8402   -1.1758   21.9880 C   0  0  0  0  0  0  0  0  0  0  0  0
   12.2787   -1.5945   21.8370 C   0  0  0  0  0  0  0  0  0  0  0  0
   12.6449   -1.8078   20.5634 F   0  0  0  0  0  0  0  0  0  0  0  0
   12.4914   -2.7336   22.5113 F   0  0  0  0  0  0  0  0  0  0  0  0
   13.1105   -0.6539   22.3287 F   0  0  0  0  0  0  0  0  0  0  0  0
   10.7733   -0.7123   22.9747 H   0  0  0  0  0  0  0  0  0  0  0  0
   10.6192   -0.4169   21.2357 H   0  0  0  0  0  0  0  0  0  0  0  0
    9.8988   -3.0354   22.6810 H   0  0  0  0  0  0  0  0  0  0  0  0
    9.9264   -2.8448   20.9165 H   0  0  0  0  0  0  0  0  0  0  0  0
    8.8365   -1.5239   24.5123 H   0  0  0  0  0  0  0  0  0  0  0  0
    7.1919   -1.0404   24.8496 H   0  0  0  0  0  0  0  0  0  0  0  0
    8.0681   -3.8613   23.9753 H   0  0  0  0  0  0  0  0  0  0  0  0
    7.6021   -3.3716   25.5873 H   0  0  0  0  0  0  0  0  0  0  0  0
    4.9079   -2.6279   25.9805 H   0  0  0  0  0  0  0  0  0  0  0  0
    2.6839   -3.4672   24.6881 H   0  0  0  0  0  0  0  0  0  0  0  0
    3.5602   -4.6220   22.3790 H   0  0  0  0  0  0  0  0  0  0  0  0
    5.6162   -4.5985   21.1069 H   0  0  0  0  0  0  0  0  0  0  0  0
    7.1064   -3.9154   21.7691 H   0  0  0  0  0  0  0  0  0  0  0  0
    6.6378   -5.5943   22.1609 H   0  0  0  0  0  0  0  0  0  0  0  0
  1  2  1  0
  2  3  1  0
  3  4  2  0
  4  5  1  0
  5  6  2  0
  6  7  1  0
  7  8  1  0
  8  9  1  0
  9 10  2  0
 10 11  1  0
 11 12  1  0
 12 13  2  0
 13 14  1  0
 14 15  2  0
 15 16  1  0
 16 17  2  0
 17 18  1  0
 15 19  1  0
 14 20  1  0
 13 21  1  0
 11 22  2  0
 22 23  1  0
 23 24  1  0
 24 25  1  0
 25 26  1  0
 26 27  1  0
 26 28  1  0
 26 29  1  0
 25 30  1  0
 25 31  1  0
 24 32  1  0
 24 33  1  0
  8 34  1  0
  8 35  1  0
  7 36  1  0
  7 37  1  0
  5 38  1  0
  4 39  1  0
  3 40  1  0
  1 41  1  0
  1 42  1  0
  1 43  1  0
  6  2  1  0
 23  9  1  0
 17 12  1  0
M  END
>  <cnnaffinity>  (1) 
-6.17679

>  <filename>  (1) 
Cn1cccc1CCc1nc(-c2cccnc2)nn1CCC(F)(F)F

$$$$
