
     RDKit          3D

 41 44  0  0  0  0  0  0  0  0999 V2000
    4.9247    1.8228   16.9718 H   0  0  0  0  0  0  0  0  0  0  0  0
    5.4012    1.3137   17.8072 C   0  0  0  0  0  0  0  0  0  0  0  0
    6.5651    0.6975   17.5455 N   0  0  0  0  0  0  0  0  0  0  0  0
    7.1722    0.0706   18.5627 C   0  0  0  0  0  0  0  0  0  0  0  0
    8.1195   -0.4046   18.3051 H   0  0  0  0  0  0  0  0  0  0  0  0
    6.6682    0.0187   19.8826 C   0  0  0  0  0  0  0  0  0  0  0  0
    7.3723   -0.6777   20.9869 C   0  0  0  0  0  0  0  0  0  0  0  0
    7.5934   -0.3021   22.3118 C   0  0  0  0  0  0  0  0  0  0  0  0
    7.1727    0.8884   22.8946 N   0  0  0  0  0  0  0  0  0  0  0  0
    6.9687    1.6211   22.2212 H   0  0  0  0  0  0  0  0  0  0  0  0
    7.6154    1.2819   24.1474 N   0  0  0  0  0  0  0  0  0  0  0  0
    6.7398    2.2777   24.7715 C   0  0  0  0  0  0  0  0  0  0  0  0
    5.7808    1.8354   25.0574 H   0  0  0  0  0  0  0  0  0  0  0  0
    6.5404    3.1203   24.0818 H   0  0  0  0  0  0  0  0  0  0  0  0
    7.5435    2.7842   25.9647 C   0  0  0  0  0  0  0  0  0  0  0  0
    7.4077    2.1320   26.8319 H   0  0  0  0  0  0  0  0  0  0  0  0
    7.2397    3.7916   26.2717 H   0  0  0  0  0  0  0  0  0  0  0  0
    8.9895    2.7447   25.4583 C   0  0  2  0  0  0  0  0  0  0  0  0
    9.6735    2.3964   26.2304 H   0  0  0  0  0  0  0  0  0  0  0  0
    9.5103    4.0628   24.8686 C   0  0  0  0  0  0  0  0  0  0  0  0
   10.0776    4.6497   25.5979 H   0  0  0  0  0  0  0  0  0  0  0  0
    8.6687    4.7039   24.5321 H   0  0  0  0  0  0  0  0  0  0  0  0
   10.3478    3.6466   23.7435 N   0  0  0  0  0  0  0  0  0  0  0  0
   10.7245    4.7320   22.8539 C   0  0  0  0  0  0  0  0  0  0  0  0
   11.3675    4.3705   22.0405 H   0  0  0  0  0  0  0  0  0  0  0  0
    9.8536    5.2487   22.3990 H   0  0  0  0  0  0  0  0  0  0  0  0
   11.2998    5.4734   23.4149 H   0  0  0  0  0  0  0  0  0  0  0  0
    9.5650    2.5951   23.0911 C   0  0  0  0  0  0  0  0  0  0  0  0
   10.1762    1.9948   22.4087 H   0  0  0  0  0  0  0  0  0  0  0  0
    8.7357    3.0169   22.4886 H   0  0  0  0  0  0  0  0  0  0  0  0
    9.0074    1.7632   24.2598 C   0  0  2  0  0  0  0  0  0  0  0  0
    9.6710    0.9123   24.4499 H   0  0  0  0  0  0  0  0  0  0  0  0
    8.3096   -1.3812   22.8834 C   0  0  0  0  0  0  0  0  0  0  0  0
    8.6571   -1.4788   23.9063 H   0  0  0  0  0  0  0  0  0  0  0  0
    8.5320   -2.3471   22.0000 N   0  0  0  0  0  0  0  0  0  0  0  0
    7.9755   -1.8925   20.8623 N   0  0  0  0  0  0  0  0  0  0  0  0
    7.9171   -2.5087   20.0613 H   0  0  0  0  0  0  0  0  0  0  0  0
    5.4472    0.6763   20.1252 C   0  0  0  0  0  0  0  0  0  0  0  0
    5.0050    0.6580   21.1232 H   0  0  0  0  0  0  0  0  0  0  0  0
    4.8025    1.3227   19.0695 C   0  0  0  0  0  0  0  0  0  0  0  0
    3.8611    1.8395   19.2126 H   0  0  0  0  0  0  0  0  0  0  0  0
  1  2  1  0
  2  3  2  0
  3  4  1  0
  4  5  1  0
  4  6  2  0
  6  7  1  0
  7  8  2  0
  8  9  1  0
  9 10  1  0
  9 11  1  0
 11 12  1  0
 12 13  1  0
 12 14  1  0
 12 15  1  0
 15 16  1  0
 15 17  1  0
 15 18  1  0
 18 19  1  1
 18 20  1  0
 20 21  1  0
 20 22  1  0
 20 23  1  0
 23 24  1  0
 24 25  1  0
 24 26  1  0
 24 27  1  0
 23 28  1  0
 28 29  1  0
 28 30  1  0
 28 31  1  0
 31 32  1  1
  8 33  1  0
 33 34  1  0
 33 35  2  0
 35 36  1  0
 36 37  1  0
  6 38  1  0
 38 39  1  0
 38 40  2  0
 40 41  1  0
 40  2  1  0
 36  7  1  0
 31 11  1  0
 31 18  1  0
M  END
>  <cnnaffinity>  (1) 
-5.35235

>  <filename>  (1) 
CN1C[C@H]2CCN(Nc3cn[nH]c3-c3cccnc3)[C@H]2C1

$$$$
