
     RDKit          3D

 43 47  0  0  0  0  0  0  0  0999 V2000
    6.9580   -4.6926   25.7277 C   0  0  0  0  0  0  0  0  0  0  0  0
    7.2069   -3.2770   25.4128 N   0  0  0  0  0  0  0  0  0  0  0  0
    7.0841   -2.8209   24.1166 C   0  0  0  0  0  0  0  0  0  0  0  0
    7.4622   -1.5592   23.7820 C   0  0  0  0  0  0  0  0  0  0  0  0
    7.7157   -1.1748   22.3794 C   0  0  0  0  0  0  0  0  0  0  0  0
    6.7477   -1.1877   21.4521 N   0  0  0  0  0  0  0  0  0  0  0  0
    7.2899   -0.4140   20.4931 C   0  0  0  0  0  0  0  0  0  0  0  0
    6.5522    0.1075   19.3406 C   0  0  0  0  0  0  0  0  0  0  0  0
    5.2238    0.5445   19.4473 C   0  0  0  0  0  0  0  0  0  0  0  0
    4.6616    1.2024   18.3556 C   0  0  0  0  0  0  0  0  0  0  0  0
    5.4379    1.3778   17.2034 C   0  0  0  0  0  0  0  0  0  0  0  0
    6.6897    0.9125   17.0779 N   0  0  0  0  0  0  0  0  0  0  0  0
    7.2317    0.2982   18.1334 C   0  0  0  0  0  0  0  0  0  0  0  0
    8.2560   -0.0548   18.0119 H   0  0  0  0  0  0  0  0  0  0  0  0
    5.0350    1.9086   16.3429 H   0  0  0  0  0  0  0  0  0  0  0  0
    3.6530    1.6023   18.3867 H   0  0  0  0  0  0  0  0  0  0  0  0
    4.6666    0.3923   20.3756 H   0  0  0  0  0  0  0  0  0  0  0  0
    8.5282   -0.0231   20.7626 N   0  0  0  0  0  0  0  0  0  0  0  0
    8.8060   -0.5191   21.9814 N   0  0  0  0  0  0  0  0  0  0  0  0
   10.7780   -1.9804   22.1606 C   0  0  0  0  0  0  0  0  0  0  0  0
   11.0189   -1.8749   22.2030 C   0  0  0  0  0  0  0  0  0  0  0  0
   10.3638   -2.8676   23.0359 C   0  0  0  0  0  0  0  0  0  0  0  0
    9.5942   -2.9491   22.4059 H   0  0  0  0  0  0  0  0  0  0  0  0
   10.5751   -3.1892   24.0752 H   0  0  0  0  0  0  0  0  0  0  0  0
   10.9452   -2.2173   20.9581 H   0  0  0  0  0  0  0  0  0  0  0  0
   12.5752   -1.6030   22.4396 H   0  0  0  0  0  0  0  0  0  0  0  0
   10.4880   -0.7850   22.0752 H   0  0  0  0  0  0  0  0  0  0  0  0
    7.6528   -0.5560   24.8164 C   0  0  0  0  0  0  0  0  0  0  0  0
    7.5553    0.8516   24.5914 C   0  0  0  0  0  0  0  0  0  0  0  0
    7.7681    1.7376   25.6310 C   0  0  0  0  0  0  0  0  0  0  0  0
    8.0814    1.2583   26.9225 C   0  0  0  0  0  0  0  0  0  0  0  0
    8.1467   -0.1017   27.1651 C   0  0  0  0  0  0  0  0  0  0  0  0
    7.8774   -1.0184   26.1302 C   0  0  0  0  0  0  0  0  0  0  0  0
    7.7952   -2.4786   26.4210 C   0  0  0  0  0  0  0  0  0  0  0  0
    8.1530   -2.9833   27.4727 O   0  0  0  0  0  0  0  0  0  0  0  0
    8.4007   -0.4712   28.1572 H   0  0  0  0  0  0  0  0  0  0  0  0
    8.2586    1.9607   27.7310 H   0  0  0  0  0  0  0  0  0  0  0  0
    7.6939    2.8108   25.4556 H   0  0  0  0  0  0  0  0  0  0  0  0
    7.2890    1.2250   23.6031 H   0  0  0  0  0  0  0  0  0  0  0  0
    6.6585   -3.5387   23.4077 H   0  0  0  0  0  0  0  0  0  0  0  0
    6.3623   -5.1595   24.9360 H   0  0  0  0  0  0  0  0  0  0  0  0
    6.4215   -4.7670   26.6771 H   0  0  0  0  0  0  0  0  0  0  0  0
    7.9062   -5.2303   25.8311 H   0  0  0  0  0  0  0  0  0  0  0  0
  1  2  1  0
  2  3  1  0
  3  4  2  0
  4  5  1  0
  5  6  2  0
  6  7  1  0
  7  8  1  0
  8  9  2  0
  9 10  1  0
 10 11  2  0
 11 12  1  0
 12 13  2  0
 13 14  1  0
 11 15  1  0
 10 16  1  0
  9 17  1  0
  7 18  2  0
 18 19  1  0
 19 20  1  0
 20 21  1  0
 21 22  1  0
 22 23  1  0
 22 24  1  0
 21 25  1  0
 21 26  1  0
 20 27  1  0
  4 28  1  0
 28 29  2  0
 29 30  1  0
 30 31  2  0
 31 32  1  0
 32 33  2  0
 33 34  1  0
 34 35  2  0
 32 36  1  0
 31 37  1  0
 30 38  1  0
 29 39  1  0
  3 40  1  0
  1 41  1  0
  1 42  1  0
  1 43  1  0
 34  2  1  0
 19  5  1  0
 22 20  1  0
 33 28  1  0
 13  8  1  0
M  END
>  <cnnaffinity>  (1) 
-5.98981

>  <filename>  (1) 
Cn1cc(-c2nc(-c3cccnc3)nn2C2CC2)c2ccccc2c1=O

$$$$
