
     RDKit          3D

 45 48  0  0  0  0  0  0  0  0999 V2000
    4.1751   -0.1088   25.8863 C   0  0  0  0  0  0  0  0  0  0  0  0
    5.4218   -0.7646   25.5475 N   0  0  0  0  0  0  0  0  0  0  0  0
    6.5555    0.1151   25.2576 C   0  0  0  0  0  0  0  0  0  0  0  0
    7.8849   -0.6412   25.2584 C   0  0  0  0  0  0  0  0  0  0  0  0
    7.8203   -1.8523   24.3064 C   0  0  0  0  0  0  0  0  0  0  0  0
    7.8223   -1.4576   22.8401 C   0  0  0  0  0  0  0  0  0  0  0  0
    6.8966   -0.7715   22.1983 N   0  0  0  0  0  0  0  0  0  0  0  0
    7.3702   -0.6986   20.9326 C   0  0  0  0  0  0  0  0  0  0  0  0
    6.6570    0.0028   19.8849 C   0  0  0  0  0  0  0  0  0  0  0  0
    5.4439    0.6511   20.1475 C   0  0  0  0  0  0  0  0  0  0  0  0
    4.8145    1.3016   19.0955 C   0  0  0  0  0  0  0  0  0  0  0  0
    5.4211    1.2811   17.8336 C   0  0  0  0  0  0  0  0  0  0  0  0
    6.5820    0.6583   17.5743 N   0  0  0  0  0  0  0  0  0  0  0  0
    7.1894    0.0401   18.5889 C   0  0  0  0  0  0  0  0  0  0  0  0
    8.1418   -0.4404   18.3602 H   0  0  0  0  0  0  0  0  0  0  0  0
    4.9578    1.7915   16.9951 H   0  0  0  0  0  0  0  0  0  0  0  0
    3.8800    1.8333   19.2405 H   0  0  0  0  0  0  0  0  0  0  0  0
    5.0189    0.6411   21.1535 H   0  0  0  0  0  0  0  0  0  0  0  0
    8.5262   -1.3005   20.7462 N   0  0  0  0  0  0  0  0  0  0  0  0
    8.7999   -1.7977   21.9692 N   0  0  0  0  0  0  0  0  0  0  0  0
   10.0439   -2.5059   22.1553 C   0  0  0  0  0  0  0  0  0  0  0  0
   11.1690   -1.6215   22.6421 C   0  0  0  0  0  0  0  0  0  0  0  0
   10.8342   -1.0869   23.8823 F   0  0  0  0  0  0  0  0  0  0  0  0
   12.0655   -2.2384   22.7482 H   0  0  0  0  0  0  0  0  0  0  0  0
   11.3650   -0.7947   21.9541 H   0  0  0  0  0  0  0  0  0  0  0  0
   10.2839   -2.8810   21.1625 H   0  0  0  0  0  0  0  0  0  0  0  0
    9.9194   -3.3484   22.8470 H   0  0  0  0  0  0  0  0  0  0  0  0
    6.5910   -2.6990   24.6167 C   0  0  0  0  0  0  0  0  0  0  0  0
    6.5703   -4.0477   24.2500 C   0  0  0  0  0  0  0  0  0  0  0  0
    5.4330   -4.8360   24.4336 C   0  0  0  0  0  0  0  0  0  0  0  0
    4.2770   -4.2616   24.9778 C   0  0  0  0  0  0  0  0  0  0  0  0
    4.2746   -2.9128   25.3310 C   0  0  0  0  0  0  0  0  0  0  0  0
    5.4236   -2.1053   25.1647 C   0  0  0  0  0  0  0  0  0  0  0  0
    3.3845   -2.4487   25.7342 H   0  0  0  0  0  0  0  0  0  0  0  0
    3.3815   -4.8628   25.1376 H   0  0  0  0  0  0  0  0  0  0  0  0
    5.4508   -5.8839   24.1534 H   0  0  0  0  0  0  0  0  0  0  0  0
    7.4663   -4.4808   23.8047 H   0  0  0  0  0  0  0  0  0  0  0  0
    8.7157   -2.4648   24.4647 H   0  0  0  0  0  0  0  0  0  0  0  0
    8.0865   -1.0069   26.2727 H   0  0  0  0  0  0  0  0  0  0  0  0
    8.7130    0.0207   24.9802 H   0  0  0  0  0  0  0  0  0  0  0  0
    6.4161    0.6197   24.2868 H   0  0  0  0  0  0  0  0  0  0  0  0
    6.5736    0.8950   26.0312 H   0  0  0  0  0  0  0  0  0  0  0  0
    3.7717   -0.4801   26.8395 H   0  0  0  0  0  0  0  0  0  0  0  0
    3.4045   -0.2464   25.1120 H   0  0  0  0  0  0  0  0  0  0  0  0
    4.3611    0.9643   25.9883 H   0  0  0  0  0  0  0  0  0  0  0  0
  1  2  1  0
  2  3  1  0
  3  4  1  0
  4  5  1  0
  5  6  1  0
  6  7  2  0
  7  8  1  0
  8  9  1  0
  9 10  2  0
 10 11  1  0
 11 12  2  0
 12 13  1  0
 13 14  2  0
 14 15  1  0
 12 16  1  0
 11 17  1  0
 10 18  1  0
  8 19  2  0
 19 20  1  0
 20 21  1  0
 21 22  1  0
 22 23  1  0
 22 24  1  0
 22 25  1  0
 21 26  1  0
 21 27  1  0
  5 28  1  0
 28 29  2  0
 29 30  1  0
 30 31  2  0
 31 32  1  0
 32 33  2  0
 32 34  1  0
 31 35  1  0
 30 36  1  0
 29 37  1  0
  5 38  1  0
  4 39  1  0
  4 40  1  0
  3 41  1  0
  3 42  1  0
  1 43  1  0
  1 44  1  0
  1 45  1  0
 33  2  1  0
 20  6  1  0
 33 28  1  0
 14  9  1  0
M  END
>  <cnnaffinity>  (1) 
-5.7674

>  <filename>  (1) 
CN1CCC(c2nc(-c3cccnc3)nn2CCF)c2ccccc21

$$$$
