
     RDKit          3D

 41 43  0  0  0  0  0  0  0  0999 V2000
    7.7350   -1.7163   20.6638 H   0  0  0  0  0  0  0  0  0  0  0  0
    7.3495   -0.7267   20.9446 C   0  0  0  0  0  0  0  0  0  0  0  0
    7.5849   -0.3035   22.1996 C   0  0  0  0  0  0  0  0  0  0  0  0
    7.4922    1.0578   22.7752 C   0  0  0  0  0  0  0  0  0  0  0  0
    7.4250    2.3569   21.9178 C   0  0  0  0  0  0  0  0  0  0  0  0
    8.0975    2.4445   20.9014 O   0  0  0  0  0  0  0  0  0  0  0  0
    6.6103    3.3865   22.3776 N   0  0  0  0  0  0  0  0  0  0  0  0
    6.8013    4.7562   21.8649 C   0  0  0  0  0  0  0  0  0  0  0  0
    7.8547    4.8679   21.5929 H   0  0  0  0  0  0  0  0  0  0  0  0
    6.1941    4.9165   20.9625 H   0  0  0  0  0  0  0  0  0  0  0  0
    6.4324    5.8125   22.9271 C   0  0  0  0  0  0  0  0  0  0  0  0
    6.4967    6.8091   22.4728 H   0  0  0  0  0  0  0  0  0  0  0  0
    7.1758    5.7663   23.7512 H   0  0  0  0  0  0  0  0  0  0  0  0
    5.0707    5.6288   23.4410 N   0  0  0  0  0  0  0  0  0  0  0  0
    4.6779    6.6806   24.3716 C   0  0  0  0  0  0  0  0  0  0  0  0
    3.6373    6.5319   24.6847 H   0  0  0  0  0  0  0  0  0  0  0  0
    5.3018    6.7287   25.2877 H   0  0  0  0  0  0  0  0  0  0  0  0
    4.7385    7.6566   23.8754 H   0  0  0  0  0  0  0  0  0  0  0  0
    4.9625    4.2913   24.0250 C   0  0  0  0  0  0  0  0  0  0  0  0
    5.6402    4.1707   24.8946 H   0  0  0  0  0  0  0  0  0  0  0  0
    3.9320    4.1549   24.3775 H   0  0  0  0  0  0  0  0  0  0  0  0
    5.2826    3.1924   22.9980 C   0  0  0  0  0  0  0  0  0  0  0  0
    5.2874    2.2295   23.5122 H   0  0  0  0  0  0  0  0  0  0  0  0
    4.4903    3.1944   22.2278 H   0  0  0  0  0  0  0  0  0  0  0  0
    7.6185    1.0969   24.0589 N   0  0  0  0  0  0  0  0  0  0  0  0
    7.9226   -0.2402   24.5707 C   0  0  0  0  0  0  0  0  0  0  0  0
    8.8211   -0.1827   25.1998 H   0  0  0  0  0  0  0  0  0  0  0  0
    7.0861   -0.5507   25.2082 H   0  0  0  0  0  0  0  0  0  0  0  0
    8.0922   -1.1778   23.3424 C   0  0  0  0  0  0  0  0  0  0  0  0
    9.1412   -1.4504   23.1681 H   0  0  0  0  0  0  0  0  0  0  0  0
    7.5353   -2.1178   23.4256 H   0  0  0  0  0  0  0  0  0  0  0  0
    6.6290    0.0070   19.8836 C   0  0  0  0  0  0  0  0  0  0  0  0
    7.1388    0.0641   18.5733 C   0  0  0  0  0  0  0  0  0  0  0  0
    8.0958   -0.4089   18.3414 H   0  0  0  0  0  0  0  0  0  0  0  0
    6.5438    0.6878   17.5530 N   0  0  0  0  0  0  0  0  0  0  0  0
    5.3807    1.3155   17.8083 C   0  0  0  0  0  0  0  0  0  0  0  0
    4.9248    1.8285   16.9608 H   0  0  0  0  0  0  0  0  0  0  0  0
    4.7825    1.3235   19.0702 C   0  0  0  0  0  0  0  0  0  0  0  0
    3.8517    1.8577   19.2158 H   0  0  0  0  0  0  0  0  0  0  0  0
    5.4153    0.6626   20.1231 C   0  0  0  0  0  0  0  0  0  0  0  0
    5.0103    0.6529   21.1349 H   0  0  0  0  0  0  0  0  0  0  0  0
  1  2  1  0
  2  3  2  3
  3  4  1  0
  4  5  1  0
  5  6  2  0
  5  7  1  0
  7  8  1  0
  8  9  1  0
  8 10  1  0
  8 11  1  0
 11 12  1  0
 11 13  1  0
 11 14  1  0
 14 15  1  0
 15 16  1  0
 15 17  1  0
 15 18  1  0
 14 19  1  0
 19 20  1  0
 19 21  1  0
 19 22  1  0
 22 23  1  0
 22 24  1  0
  4 25  2  0
 25 26  1  0
 26 27  1  0
 26 28  1  0
 26 29  1  0
 29 30  1  0
 29 31  1  0
  2 32  1  0
 32 33  2  0
 33 34  1  0
 33 35  1  0
 35 36  2  0
 36 37  1  0
 36 38  1  0
 38 39  1  0
 38 40  2  0
 40 41  1  0
 29  3  1  0
 40 32  1  0
 22  7  1  0
M  END
>  <cnnaffinity>  (1) 
-4.82656

>  <filename>  (1) 
CN1CCN(C(=O)C2=NCCC2=Cc2cccnc2)CC1

$$$$
