
     RDKit          3D

 39 41  0  0  0  0  0  0  0  0999 V2000
    4.9543    1.7972   16.9788 H   0  0  0  0  0  0  0  0  0  0  0  0
    5.4402    1.2863   17.8098 C   0  0  0  0  0  0  0  0  0  0  0  0
    6.5868    0.6476   17.5262 N   0  0  0  0  0  0  0  0  0  0  0  0
    7.2256    0.0075   18.5164 C   0  0  0  0  0  0  0  0  0  0  0  0
    8.1583   -0.4897   18.2490 H   0  0  0  0  0  0  0  0  0  0  0  0
    6.7403   -0.0420   19.8446 C   0  0  0  0  0  0  0  0  0  0  0  0
    7.3702   -0.7695   20.8966 N   0  0  0  0  0  0  0  0  0  0  0  0
    6.6735   -1.4640   21.9015 C   0  0  0  0  0  0  0  0  0  0  0  0
    5.6214   -1.6637   21.8094 H   0  0  0  0  0  0  0  0  0  0  0  0
    7.5686   -1.8496   22.8390 C   0  0  0  0  0  0  0  0  0  0  0  0
    7.4804   -2.4686   24.0647 N   0  0  0  0  0  0  0  0  0  0  0  0
    8.6112   -3.2862   24.5144 C   0  0  0  0  0  0  0  0  0  0  0  0
    8.3830   -3.6338   25.5275 H   0  0  0  0  0  0  0  0  0  0  0  0
    9.4958   -2.6498   24.6243 H   0  0  0  0  0  0  0  0  0  0  0  0
    8.9943   -4.4977   23.6371 C   0  0  0  0  0  0  0  0  0  0  0  0
    9.7592   -5.0702   24.1970 H   0  0  0  0  0  0  0  0  0  0  0  0
    9.4964   -4.0957   22.7448 H   0  0  0  0  0  0  0  0  0  0  0  0
    7.9214   -5.3560   23.1580 N   0  0  0  0  0  0  0  0  0  0  0  0
    8.3727   -6.4853   22.3860 C   0  0  0  0  0  0  0  0  0  0  0  0
    8.8119   -7.3184   22.9657 H   0  0  0  0  0  0  0  0  0  0  0  0
    7.5370   -6.8857   21.8011 H   0  0  0  0  0  0  0  0  0  0  0  0
    9.1297   -6.1502   21.6687 H   0  0  0  0  0  0  0  0  0  0  0  0
    6.6716   -5.4770   23.8906 C   0  0  0  0  0  0  0  0  0  0  0  0
    6.1519   -6.3616   23.5042 H   0  0  0  0  0  0  0  0  0  0  0  0
    6.8187   -5.6902   24.9701 H   0  0  0  0  0  0  0  0  0  0  0  0
    5.7558   -4.2538   23.6844 C   0  0  0  0  0  0  0  0  0  0  0  0
    5.7800   -3.9985   22.6165 H   0  0  0  0  0  0  0  0  0  0  0  0
    4.7171   -4.5100   23.9375 H   0  0  0  0  0  0  0  0  0  0  0  0
    6.1752   -2.9984   24.4578 C   0  0  0  0  0  0  0  0  0  0  0  0
    5.4216   -2.2148   24.3484 H   0  0  0  0  0  0  0  0  0  0  0  0
    6.2047   -3.2005   25.5396 H   0  0  0  0  0  0  0  0  0  0  0  0
    8.8008   -1.3978   22.4276 N   0  0  0  0  0  0  0  0  0  0  0  0
    9.6862   -1.6156   22.8292 H   0  0  0  0  0  0  0  0  0  0  0  0
    8.7343   -0.7451   21.2310 C   0  0  0  0  0  0  0  0  0  0  0  0
    9.6803   -0.2806   20.6311 O   0  0  0  0  0  0  0  0  0  0  0  0
    5.5465    0.6383   20.1219 C   0  0  0  0  0  0  0  0  0  0  0  0
    5.1630    0.6385   21.1415 H   0  0  0  0  0  0  0  0  0  0  0  0
    4.8818    1.3057   19.0902 C   0  0  0  0  0  0  0  0  0  0  0  0
    3.9503    1.8321   19.2665 H   0  0  0  0  0  0  0  0  0  0  0  0
  1  2  1  0
  2  3  2  0
  3  4  1  0
  4  5  1  0
  4  6  2  0
  6  7  1  0
  7  8  1  0
  8  9  1  0
  8 10  2  0
 10 11  1  0
 11 12  1  0
 12 13  1  0
 12 14  1  0
 12 15  1  0
 15 16  1  0
 15 17  1  0
 15 18  1  0
 18 19  1  0
 19 20  1  0
 19 21  1  0
 19 22  1  0
 18 23  1  0
 23 24  1  0
 23 25  1  0
 23 26  1  0
 26 27  1  0
 26 28  1  0
 26 29  1  0
 29 30  1  0
 29 31  1  0
 10 32  1  0
 32 33  1  0
 32 34  1  0
 34 35  2  0
  6 36  1  0
 36 37  1  0
 36 38  2  0
 38 39  1  0
 38  2  1  0
 34  7  1  0
 29 11  1  0
M  END
>  <cnnaffinity>  (1) 
-4.91868

>  <filename>  (1) 
CN1CCCN(c2cn(-c3cccnc3)c(=O)[nH]2)CC1

$$$$
