
     RDKit          3D

 34 35  0  0  0  0  0  0  0  0999 V2000
    4.9311    1.7990   16.9721 H   0  0  0  0  0  0  0  0  0  0  0  0
    5.3910    1.2893   17.8185 C   0  0  0  0  0  0  0  0  0  0  0  0
    6.5536    0.6606   17.5737 N   0  0  0  0  0  0  0  0  0  0  0  0
    7.1701    0.0635   18.6018 C   0  0  0  0  0  0  0  0  0  0  0  0
    8.1147   -0.4316   18.3785 H   0  0  0  0  0  0  0  0  0  0  0  0
    6.6728    0.0603   19.9232 C   0  0  0  0  0  0  0  0  0  0  0  0
    7.3967   -0.5361   21.0037 N   0  0  0  0  0  0  0  0  0  0  0  0
    7.8309   -1.4409   20.8791 H   0  0  0  0  0  0  0  0  0  0  0  0
    7.4781   -0.1840   22.3147 C   0  0  0  0  0  0  0  0  0  0  0  0
    8.1159   -1.2742   23.3990 S   0  0  0  0  0  0  0  0  0  0  0  0
    7.0280    1.0392   22.5637 O   0  0  0  0  0  0  0  0  0  0  0  0
    7.1654    1.6280   23.8848 C   0  0  0  0  0  0  0  0  0  0  0  0
    6.8890    0.8608   24.6245 H   0  0  0  0  0  0  0  0  0  0  0  0
    6.2039    2.8115   23.9378 C   0  0  0  0  0  0  0  0  0  0  0  0
    6.4076    3.4809   23.0903 H   0  0  0  0  0  0  0  0  0  0  0  0
    5.1687    2.4635   23.8398 H   0  0  0  0  0  0  0  0  0  0  0  0
    6.3748    3.5818   25.2508 C   0  0  0  0  0  0  0  0  0  0  0  0
    6.0506    2.9378   26.0989 H   0  0  0  0  0  0  0  0  0  0  0  0
    5.7260    4.4688   25.2487 H   0  0  0  0  0  0  0  0  0  0  0  0
    7.7593    4.0263   25.4247 N   0  0  0  0  0  0  0  0  0  0  0  0
    7.9188    4.8350   26.6245 C   0  0  0  0  0  0  0  0  0  0  0  0
    7.6927    4.2797   27.5564 H   0  0  0  0  0  0  0  0  0  0  0  0
    8.9474    5.2057   26.6970 H   0  0  0  0  0  0  0  0  0  0  0  0
    7.2583    5.7082   26.5857 H   0  0  0  0  0  0  0  0  0  0  0  0
    8.6925    2.8986   25.4134 C   0  0  0  0  0  0  0  0  0  0  0  0
    9.7080    3.2962   25.5202 H   0  0  0  0  0  0  0  0  0  0  0  0
    8.5086    2.2142   26.2721 H   0  0  0  0  0  0  0  0  0  0  0  0
    8.5991    2.1084   24.1065 C   0  0  0  0  0  0  0  0  0  0  0  0
    8.8937    2.7519   23.2666 H   0  0  0  0  0  0  0  0  0  0  0  0
    9.2854    1.2549   24.1308 H   0  0  0  0  0  0  0  0  0  0  0  0
    5.4356    0.6746   20.1489 C   0  0  0  0  0  0  0  0  0  0  0  0
    5.0057    0.6502   21.1456 H   0  0  0  0  0  0  0  0  0  0  0  0
    4.7903    1.3073   19.0803 C   0  0  0  0  0  0  0  0  0  0  0  0
    3.8554    1.8406   19.2273 H   0  0  0  0  0  0  0  0  0  0  0  0
  1  2  1  0
  2  3  2  0
  3  4  1  0
  4  5  1  0
  4  6  2  0
  6  7  1  0
  7  8  1  0
  7  9  1  0
  9 10  2  0
  9 11  1  0
 11 12  1  0
 12 13  1  0
 12 14  1  0
 14 15  1  0
 14 16  1  0
 14 17  1  0
 17 18  1  0
 17 19  1  0
 17 20  1  0
 20 21  1  0
 21 22  1  0
 21 23  1  0
 21 24  1  0
 20 25  1  0
 25 26  1  0
 25 27  1  0
 25 28  1  0
 28 29  1  0
 28 30  1  0
  6 31  1  0
 31 32  1  0
 31 33  2  0
 33 34  1  0
 33  2  1  0
 28 12  1  0
M  END
>  <cnnaffinity>  (1) 
-4.35306

>  <filename>  (1) 
CN1CCC(OC(=S)Nc2cccnc2)CC1

$$$$
