
     RDKit          3D

 38 40  0  0  0  0  0  0  0  0999 V2000
    7.1990    0.8689   22.8202 C   0  0  0  0  0  0  0  0  0  0  0  0
    7.4844   -0.3997   22.1714 N   0  0  0  0  0  0  0  0  0  0  0  0
    8.1985   -1.4602   22.6851 C   0  0  0  0  0  0  0  0  0  0  0  0
    8.8776   -1.5209   24.3106 S   0  0  0  0  0  0  0  0  0  0  0  0
   10.3437   -0.4497   23.9812 C   0  0  0  0  0  0  0  0  0  0  0  0
   10.7532    0.4965   25.1163 C   0  0  2  0  0  0  0  0  0  0  0  0
   11.0089   -0.1887   26.3092 O   0  0  0  0  0  0  0  0  0  0  0  0
   11.2877   -1.0851   26.0928 H   0  0  0  0  0  0  0  0  0  0  0  0
    9.7953    1.6579   25.3765 C   0  0  0  0  0  0  0  0  0  0  0  0
    9.9843    2.8531   24.6491 C   0  0  0  0  0  0  0  0  0  0  0  0
    9.2922    4.0272   24.9648 C   0  0  0  0  0  0  0  0  0  0  0  0
    8.3521    4.0168   26.0043 C   0  0  0  0  0  0  0  0  0  0  0  0
    8.0647    2.8230   26.6683 C   0  0  0  0  0  0  0  0  0  0  0  0
    8.7551    1.6533   26.3327 C   0  0  0  0  0  0  0  0  0  0  0  0
    8.1965    0.2112   27.1321 Cl  0  0  0  0  0  0  0  0  0  0  0  0
    7.2983    2.7548   27.4373 H   0  0  0  0  0  0  0  0  0  0  0  0
    7.8241    4.9228   26.2855 H   0  0  0  0  0  0  0  0  0  0  0  0
    9.4975    4.9433   24.4160 H   0  0  0  0  0  0  0  0  0  0  0  0
   10.6938    2.8460   23.8202 H   0  0  0  0  0  0  0  0  0  0  0  0
   11.6948    0.9498   24.7513 H   0  0  0  0  0  0  0  0  0  0  0  0
   11.1855   -1.1123   23.7693 H   0  0  0  0  0  0  0  0  0  0  0  0
   10.1579    0.1357   23.0763 H   0  0  0  0  0  0  0  0  0  0  0  0
    8.4075   -2.3639   21.7646 N   0  0  0  0  0  0  0  0  0  0  0  0
    7.8335   -1.9086   20.6163 N   0  0  0  0  0  0  0  0  0  0  0  0
    7.2745   -0.7549   20.8660 C   0  0  0  0  0  0  0  0  0  0  0  0
    6.5595    0.0330   19.8554 C   0  0  0  0  0  0  0  0  0  0  0  0
    5.3575    0.7145   20.0727 C   0  0  0  0  0  0  0  0  0  0  0  0
    4.7719    1.3801   18.9918 C   0  0  0  0  0  0  0  0  0  0  0  0
    5.4301    1.3516   17.7561 C   0  0  0  0  0  0  0  0  0  0  0  0
    6.5755    0.6879   17.5335 N   0  0  0  0  0  0  0  0  0  0  0  0
    7.1101    0.0338   18.5655 C   0  0  0  0  0  0  0  0  0  0  0  0
    8.0248   -0.5227   18.3743 H   0  0  0  0  0  0  0  0  0  0  0  0
    5.0170    1.8751   16.8992 H   0  0  0  0  0  0  0  0  0  0  0  0
    3.8426    1.9279   19.1019 H   0  0  0  0  0  0  0  0  0  0  0  0
    4.8916    0.7068   21.0598 H   0  0  0  0  0  0  0  0  0  0  0  0
    6.2615    0.8474   23.3858 H   0  0  0  0  0  0  0  0  0  0  0  0
    7.1401    1.6591   22.0687 H   0  0  0  0  0  0  0  0  0  0  0  0
    8.0066    1.1157   23.5135 H   0  0  0  0  0  0  0  0  0  0  0  0
  1  2  1  0
  2  3  1  0
  3  4  1  0
  4  5  1  0
  5  6  1  0
  6  7  1  0
  7  8  1  0
  6  9  1  0
  9 10  2  0
 10 11  1  0
 11 12  2  0
 12 13  1  0
 13 14  2  0
 14 15  1  0
 13 16  1  0
 12 17  1  0
 11 18  1  0
 10 19  1  0
  6 20  1  6
  5 21  1  0
  5 22  1  0
  3 23  2  0
 23 24  1  0
 24 25  2  0
 25 26  1  0
 26 27  2  0
 27 28  1  0
 28 29  2  0
 29 30  1  0
 30 31  2  0
 31 32  1  0
 29 33  1  0
 28 34  1  0
 27 35  1  0
  1 36  1  0
  1 37  1  0
  1 38  1  0
 25  2  1  0
 31 26  1  0
 14  9  1  0
M  END
>  <cnnaffinity>  (1) 
-5.34771

>  <filename>  (1) 
Cn1c(SC[C@H](O)c2ccccc2Cl)nnc1-c1cccnc1

$$$$
