
     RDKit          3D

 41 43  0  0  0  0  0  0  0  0999 V2000
    4.9475    1.7858   17.0105 H   0  0  0  0  0  0  0  0  0  0  0  0
    5.4321    1.2870   17.8465 C   0  0  0  0  0  0  0  0  0  0  0  0
    6.6032    0.6846   17.5785 N   0  0  0  0  0  0  0  0  0  0  0  0
    7.2299    0.0679   18.5860 C   0  0  0  0  0  0  0  0  0  0  0  0
    8.1798   -0.4158   18.3590 H   0  0  0  0  0  0  0  0  0  0  0  0
    6.7221   -0.0085   19.9024 C   0  0  0  0  0  0  0  0  0  0  0  0
    7.4204   -0.6662   20.9357 N   0  0  0  0  0  0  0  0  0  0  0  0
    6.8437   -1.6172   21.7776 C   0  0  0  0  0  0  0  0  0  0  0  0
    5.7920   -2.1931   21.5935 O   0  0  0  0  0  0  0  0  0  0  0  0
    7.7762   -1.7996   22.8010 N   0  0  0  0  0  0  0  0  0  0  0  0
    7.5577   -2.5448   23.9432 N   0  0  0  0  0  0  0  0  0  0  0  0
    7.7403   -3.9736   23.6804 C   0  0  0  0  0  0  0  0  0  0  0  0
    8.7301   -4.1447   23.2295 H   0  0  0  0  0  0  0  0  0  0  0  0
    6.9978   -4.2375   22.9180 H   0  0  0  0  0  0  0  0  0  0  0  0
    7.6122   -4.8918   24.8983 C   0  0  0  0  0  0  0  0  0  0  0  0
    6.7705   -4.5521   25.5305 H   0  0  0  0  0  0  0  0  0  0  0  0
    7.3343   -5.8825   24.5197 H   0  0  0  0  0  0  0  0  0  0  0  0
    8.8776   -5.0190   25.6242 N   0  0  0  0  0  0  0  0  0  0  0  0
    9.0148   -6.2515   26.3783 C   0  0  0  0  0  0  0  0  0  0  0  0
    8.3358   -6.3287   27.2534 H   0  0  0  0  0  0  0  0  0  0  0  0
    8.8558   -7.1200   25.7358 H   0  0  0  0  0  0  0  0  0  0  0  0
   10.0484   -6.3085   26.7296 H   0  0  0  0  0  0  0  0  0  0  0  0
    9.2346   -3.8843   26.4724 C   0  0  0  0  0  0  0  0  0  0  0  0
    8.5497   -3.7851   27.3436 H   0  0  0  0  0  0  0  0  0  0  0  0
   10.2252   -4.1082   26.8908 H   0  0  0  0  0  0  0  0  0  0  0  0
    9.3304   -2.5358   25.7650 C   0  0  0  0  0  0  0  0  0  0  0  0
   10.0856   -2.5921   24.9693 H   0  0  0  0  0  0  0  0  0  0  0  0
    9.6895   -1.8179   26.5099 H   0  0  0  0  0  0  0  0  0  0  0  0
    8.0140   -1.9798   25.2177 C   0  0  0  0  0  0  0  0  0  0  0  0
    8.0727   -0.8912   25.0981 H   0  0  0  0  0  0  0  0  0  0  0  0
    7.2111   -2.1536   25.9483 H   0  0  0  0  0  0  0  0  0  0  0  0
    9.1054   -1.3714   22.4244 C   0  0  0  0  0  0  0  0  0  0  0  0
    9.7702   -2.2381   22.2729 H   0  0  0  0  0  0  0  0  0  0  0  0
    9.5217   -0.7217   23.2043 H   0  0  0  0  0  0  0  0  0  0  0  0
    8.8676   -0.6262   21.1007 C   0  0  0  0  0  0  0  0  0  0  0  0
    9.3705   -1.1365   20.2689 H   0  0  0  0  0  0  0  0  0  0  0  0
    9.2318    0.4031   21.1360 H   0  0  0  0  0  0  0  0  0  0  0  0
    5.4846    0.6051   20.1627 C   0  0  0  0  0  0  0  0  0  0  0  0
    5.0559    0.5534   21.1617 H   0  0  0  0  0  0  0  0  0  0  0  0
    4.8451    1.2776   19.1174 C   0  0  0  0  0  0  0  0  0  0  0  0
    3.9039    1.7913   19.2730 H   0  0  0  0  0  0  0  0  0  0  0  0
  1  2  1  0
  2  3  2  0
  3  4  1  0
  4  5  1  0
  4  6  2  0
  6  7  1  0
  7  8  1  0
  8  9  2  0
  8 10  1  0
 10 11  1  0
 11 12  1  0
 12 13  1  0
 12 14  1  0
 12 15  1  0
 15 16  1  0
 15 17  1  0
 15 18  1  0
 18 19  1  0
 19 20  1  0
 19 21  1  0
 19 22  1  0
 18 23  1  0
 23 24  1  0
 23 25  1  0
 23 26  1  0
 26 27  1  0
 26 28  1  0
 26 29  1  0
 29 30  1  0
 29 31  1  0
 10 32  1  0
 32 33  1  0
 32 34  1  0
 32 35  1  0
 35 36  1  0
 35 37  1  0
  6 38  1  0
 38 39  1  0
 38 40  2  0
 40 41  1  0
 40  2  1  0
 35  7  1  0
 29 11  1  0
M  END
>  <cnnaffinity>  (1) 
-4.81141

>  <filename>  (1) 
CN1CCCN(N2CCN(c3cccnc3)C2=O)CC1

$$$$
