
     RDKit          3D

 36 38  0  0  0  0  0  0  0  0999 V2000
    9.5783    0.0800   20.6405 C   0  0  0  0  0  0  0  0  0  0  0  0
    8.5432   -0.6913   21.3099 N   0  0  0  0  0  0  0  0  0  0  0  0
    8.7214   -1.6284   22.3033 C   0  0  0  0  0  0  0  0  0  0  0  0
   10.2131   -1.8574   23.2489 S   0  0  0  0  0  0  0  0  0  0  0  0
   10.1630   -0.4810   24.4756 C   0  0  0  0  0  0  0  0  0  0  0  0
    9.0383   -0.5781   25.4867 C   0  0  0  0  0  0  0  0  0  0  0  0
    8.2597   -0.6450   26.4184 C   0  0  0  0  0  0  0  0  0  0  0  0
    6.9042   -1.0475   26.9874 C   0  0  0  0  0  0  0  0  0  0  0  0
    5.6414   -1.7484   26.6190 C   0  0  0  0  0  0  0  0  0  0  0  0
    4.4670   -2.0983   27.3490 C   0  0  0  0  0  0  0  0  0  0  0  0
    4.5314   -1.6300   28.7938 C   0  0  0  0  0  0  0  0  0  0  0  0
    3.2682   -1.9574   29.9057 Cl  0  0  0  0  0  0  0  0  0  0  0  0
    5.7086   -0.9728   29.0250 C   0  0  0  0  0  0  0  0  0  0  0  0
    6.7377   -0.9859   27.4170 C   0  0  0  0  0  0  0  0  0  0  0  0
    9.1704   -0.0619   28.0256 H   0  0  0  0  0  0  0  0  0  0  0  0
    6.2599   -0.4506   29.7705 H   0  0  0  0  0  0  0  0  0  0  0  0
    3.6121   -2.6422   26.9380 H   0  0  0  0  0  0  0  0  0  0  0  0
    5.7649   -1.9781   25.5742 H   0  0  0  0  0  0  0  0  0  0  0  0
   10.1779    0.4828   23.9474 H   0  0  0  0  0  0  0  0  0  0  0  0
   11.1431   -0.5629   24.9737 H   0  0  0  0  0  0  0  0  0  0  0  0
    7.6357   -2.3453   22.4385 N   0  0  0  0  0  0  0  0  0  0  0  0
    6.6958   -1.8581   21.5685 N   0  0  0  0  0  0  0  0  0  0  0  0
    7.2387   -0.8740   20.9059 C   0  0  0  0  0  0  0  0  0  0  0  0
    6.5729   -0.0677   19.8636 C   0  0  0  0  0  0  0  0  0  0  0  0
    5.3804    0.6397   20.0921 C   0  0  0  0  0  0  0  0  0  0  0  0
    4.8228    1.3556   19.0324 C   0  0  0  0  0  0  0  0  0  0  0  0
    5.4616    1.3365   17.7880 C   0  0  0  0  0  0  0  0  0  0  0  0
    6.5939    0.6564   17.5507 N   0  0  0  0  0  0  0  0  0  0  0  0
    7.1245   -0.0202   18.5740 C   0  0  0  0  0  0  0  0  0  0  0  0
    8.0409   -0.5683   18.3550 H   0  0  0  0  0  0  0  0  0  0  0  0
    5.0459    1.8829   16.9438 H   0  0  0  0  0  0  0  0  0  0  0  0
    3.9115    1.9314   19.1544 H   0  0  0  0  0  0  0  0  0  0  0  0
    4.9064    0.6379   21.0764 H   0  0  0  0  0  0  0  0  0  0  0  0
    9.1611    1.0267   20.2933 H   0  0  0  0  0  0  0  0  0  0  0  0
    9.9794   -0.4770   19.7875 H   0  0  0  0  0  0  0  0  0  0  0  0
   10.3966    0.2906   21.3319 H   0  0  0  0  0  0  0  0  0  0  0  0
  1  2  1  0
  2  3  1  0
  3  4  1  0
  4  5  1  0
  5  6  1  0
  6  7  3  0
  7  8  1  0
  8  9  2  0
  9 10  1  0
 10 11  2  0
 11 12  1  0
 11 13  1  0
 13 14  2  0
 14 15  1  0
 13 16  1  0
 10 17  1  0
  9 18  1  0
  5 19  1  0
  5 20  1  0
  3 21  2  0
 21 22  1  0
 22 23  2  0
 23 24  1  0
 24 25  2  0
 25 26  1  0
 26 27  2  0
 27 28  1  0
 28 29  2  0
 29 30  1  0
 27 31  1  0
 26 32  1  0
 25 33  1  0
  1 34  1  0
  1 35  1  0
  1 36  1  0
 23  2  1  0
 29 24  1  0
 14  8  1  0
M  END
>  <cnnaffinity>  (1) 
-5.298

>  <filename>  (1) 
Cn1c(SCC#Cc2ccc(Cl)cc2)nnc1-c1cccnc1

$$$$
