
     RDKit          3D

 39 41  0  0  0  0  0  0  0  0999 V2000
    4.9417    1.7863   16.9930 H   0  0  0  0  0  0  0  0  0  0  0  0
    5.4054    1.2910   17.8442 C   0  0  0  0  0  0  0  0  0  0  0  0
    6.5669    0.6640   17.5978 N   0  0  0  0  0  0  0  0  0  0  0  0
    7.1623    0.0427   18.6229 C   0  0  0  0  0  0  0  0  0  0  0  0
    8.1060   -0.4377   18.3629 H   0  0  0  0  0  0  0  0  0  0  0  0
    6.6408   -0.0195   19.9322 C   0  0  0  0  0  0  0  0  0  0  0  0
    7.3483   -0.7376   21.0314 C   0  0  0  0  0  0  0  0  0  0  0  0
    6.5811   -1.3304   22.0104 N   0  0  0  0  0  0  0  0  0  0  0  0
    7.1536   -1.9656   23.0001 C   0  0  0  0  0  0  0  0  0  0  0  0
    6.2999   -2.5208   23.8817 O   0  0  0  0  0  0  0  0  0  0  0  0
    6.6773   -3.0007   25.2022 C   0  0  0  0  0  0  0  0  0  0  0  0
    7.5196   -3.6902   25.0837 H   0  0  0  0  0  0  0  0  0  0  0  0
    7.0625   -1.8386   26.1224 C   0  0  0  0  0  0  0  0  0  0  0  0
    7.8907   -1.2689   25.6953 H   0  0  0  0  0  0  0  0  0  0  0  0
    7.4233   -2.2668   27.0667 H   0  0  0  0  0  0  0  0  0  0  0  0
    5.8487   -0.9342   26.4082 C   0  0  0  0  0  0  0  0  0  0  0  0
    5.5325   -0.4424   25.4777 H   0  0  0  0  0  0  0  0  0  0  0  0
    6.1148   -0.1428   27.1210 H   0  0  0  0  0  0  0  0  0  0  0  0
    4.7022   -1.6670   26.9519 N   0  0  0  0  0  0  0  0  0  0  0  0
    4.8356   -2.0347   28.3561 C   0  0  0  0  0  0  0  0  0  0  0  0
    5.6320   -2.7688   28.5685 H   0  0  0  0  0  0  0  0  0  0  0  0
    3.8916   -2.4626   28.7153 H   0  0  0  0  0  0  0  0  0  0  0  0
    5.0371   -1.1346   28.9500 H   0  0  0  0  0  0  0  0  0  0  0  0
    4.3009   -2.7692   26.0749 C   0  0  0  0  0  0  0  0  0  0  0  0
    3.9069   -2.3486   25.1383 H   0  0  0  0  0  0  0  0  0  0  0  0
    3.4719   -3.3014   26.5614 H   0  0  0  0  0  0  0  0  0  0  0  0
    5.4555   -3.7407   25.7623 C   0  0  0  0  0  0  0  0  0  0  0  0
    5.1281   -4.5218   25.0689 H   0  0  0  0  0  0  0  0  0  0  0  0
    5.7587   -4.2352   26.6967 H   0  0  0  0  0  0  0  0  0  0  0  0
    8.6822   -2.0961   23.1169 C   0  0  0  0  0  0  0  0  0  0  0  0
    9.3791   -2.6626   23.9464 O   0  0  0  0  0  0  0  0  0  0  0  0
    9.3347   -1.4403   22.0952 N   0  0  0  0  0  0  0  0  0  0  0  0
   10.3374   -1.5506   22.2205 H   0  0  0  0  0  0  0  0  0  0  0  0
    8.7140   -0.7683   21.0601 C   0  0  0  0  0  0  0  0  0  0  0  0
    9.3377   -0.2643   20.3350 H   0  0  0  0  0  0  0  0  0  0  0  0
    5.4243    0.6451   20.1632 C   0  0  0  0  0  0  0  0  0  0  0  0
    4.9882    0.6244   21.1631 H   0  0  0  0  0  0  0  0  0  0  0  0
    4.8046    1.3131   19.1067 C   0  0  0  0  0  0  0  0  0  0  0  0
    3.8710    1.8496   19.2447 H   0  0  0  0  0  0  0  0  0  0  0  0
  1  2  1  0
  2  3  2  0
  3  4  1  0
  4  5  1  0
  4  6  2  0
  6  7  1  0
  7  8  1  0
  8  9  2  0
  9 10  1  0
 10 11  1  0
 11 12  1  0
 11 13  1  0
 13 14  1  0
 13 15  1  0
 13 16  1  0
 16 17  1  0
 16 18  1  0
 16 19  1  0
 19 20  1  0
 20 21  1  0
 20 22  1  0
 20 23  1  0
 19 24  1  0
 24 25  1  0
 24 26  1  0
 24 27  1  0
 27 28  1  0
 27 29  1  0
  9 30  1  0
 30 31  2  0
 30 32  1  0
 32 33  1  0
 32 34  1  0
 34 35  1  0
  6 36  1  0
 36 37  1  0
 36 38  2  0
 38 39  1  0
 38  2  1  0
 34  7  2  0
 27 11  1  0
M  END
>  <cnnaffinity>  (1) 
-4.97001

>  <filename>  (1) 
CN1CCC(Oc2nc(-c3cccnc3)c[nH]c2=O)CC1

$$$$
