
     RDKit          3D

 38 40  0  0  0  0  0  0  0  0999 V2000
    7.1677    0.9928   22.7943 C   0  0  0  0  0  0  0  0  0  0  0  0
    7.5750   -0.2696   22.1958 N   0  0  0  0  0  0  0  0  0  0  0  0
    8.3064   -1.2631   22.7975 C   0  0  0  0  0  0  0  0  0  0  0  0
    8.6973   -1.2913   24.5212 S   0  0  0  0  0  0  0  0  0  0  0  0
    7.1507   -2.0487   25.1611 C   0  0  0  0  0  0  0  0  0  0  0  0
    6.9565   -3.5038   24.7240 C   0  0  0  0  0  0  0  0  0  0  0  0
    5.6314   -3.8502   25.0542 O   0  0  0  0  0  0  0  0  0  0  0  0
    5.6390   -4.7854   25.2914 H   0  0  0  0  0  0  0  0  0  0  0  0
    8.0165   -4.4009   25.3576 C   0  0  0  0  0  0  0  0  0  0  0  0
    9.1382   -4.7418   24.5742 C   0  0  0  0  0  0  0  0  0  0  0  0
   10.2338   -5.3950   25.1349 C   0  0  0  0  0  0  0  0  0  0  0  0
   10.2251   -5.7221   26.4921 C   0  0  0  0  0  0  0  0  0  0  0  0
    9.1474   -5.3759   27.3019 C   0  0  0  0  0  0  0  0  0  0  0  0
    8.0435   -4.7475   26.7283 C   0  0  0  0  0  0  0  0  0  0  0  0
    6.7169   -4.4025   27.8103 Cl  0  0  0  0  0  0  0  0  0  0  0  0
    9.1703   -5.5719   28.3708 H   0  0  0  0  0  0  0  0  0  0  0  0
   11.0328   -6.2670   26.9484 H   0  0  0  0  0  0  0  0  0  0  0  0
   11.1118   -5.6164   24.5385 H   0  0  0  0  0  0  0  0  0  0  0  0
    9.1459   -4.4509   23.5206 H   0  0  0  0  0  0  0  0  0  0  0  0
    7.1068   -3.5414   23.6309 H   0  0  0  0  0  0  0  0  0  0  0  0
    6.2875   -1.4523   24.8517 H   0  0  0  0  0  0  0  0  0  0  0  0
    7.2201   -2.0246   26.2530 H   0  0  0  0  0  0  0  0  0  0  0  0
    8.6026   -2.2034   21.9323 N   0  0  0  0  0  0  0  0  0  0  0  0
    8.0397   -1.8451   20.7370 N   0  0  0  0  0  0  0  0  0  0  0  0
    7.4075   -0.7145   20.9081 C   0  0  0  0  0  0  0  0  0  0  0  0
    6.6319   -0.0071   19.8794 C   0  0  0  0  0  0  0  0  0  0  0  0
    5.4150    0.6520   20.1148 C   0  0  0  0  0  0  0  0  0  0  0  0
    4.8101    1.3153   19.0503 C   0  0  0  0  0  0  0  0  0  0  0  0
    5.4365    1.3091   17.7989 C   0  0  0  0  0  0  0  0  0  0  0  0
    6.5884    0.6619   17.5571 N   0  0  0  0  0  0  0  0  0  0  0  0
    7.1531    0.0130   18.5768 C   0  0  0  0  0  0  0  0  0  0  0  0
    8.0780   -0.5208   18.3674 H   0  0  0  0  0  0  0  0  0  0  0  0
    4.9927    1.8363   16.9559 H   0  0  0  0  0  0  0  0  0  0  0  0
    3.8766    1.8514   19.1750 H   0  0  0  0  0  0  0  0  0  0  0  0
    4.9467    0.6502   21.1038 H   0  0  0  0  0  0  0  0  0  0  0  0
    6.1839    0.9130   23.2733 H   0  0  0  0  0  0  0  0  0  0  0  0
    7.1405    1.7734   22.0290 H   0  0  0  0  0  0  0  0  0  0  0  0
    7.8962    1.2847   23.5543 H   0  0  0  0  0  0  0  0  0  0  0  0
  1  2  1  0
  2  3  1  0
  3  4  1  0
  4  5  1  0
  5  6  1  0
  6  7  1  0
  7  8  1  0
  6  9  1  0
  9 10  2  0
 10 11  1  0
 11 12  2  0
 12 13  1  0
 13 14  2  0
 14 15  1  0
 13 16  1  0
 12 17  1  0
 11 18  1  0
 10 19  1  0
  6 20  1  0
  5 21  1  0
  5 22  1  0
  3 23  2  0
 23 24  1  0
 24 25  2  0
 25 26  1  0
 26 27  2  0
 27 28  1  0
 28 29  2  0
 29 30  1  0
 30 31  2  0
 31 32  1  0
 29 33  1  0
 28 34  1  0
 27 35  1  0
  1 36  1  0
  1 37  1  0
  1 38  1  0
 25  2  1  0
 31 26  1  0
 14  9  1  0
M  END
>  <cnnaffinity>  (1) 
-5.38936

>  <filename>  (1) 
Cn1c(SCC(O)c2ccccc2Cl)nnc1-c1cccnc1

$$$$
