
     RDKit          3D

 41 43  0  0  0  0  0  0  0  0999 V2000
    5.3271   -2.4386   21.1331 H   0  0  0  0  0  0  0  0  0  0  0  0
    5.9310   -2.3306   22.0336 C   0  0  0  0  0  0  0  0  0  0  0  0
    5.3678   -3.1939   23.1405 C   0  0  0  0  0  0  0  0  0  0  0  0
    4.6552   -4.1393   22.8330 O   0  0  0  0  0  0  0  0  0  0  0  0
    5.6609   -2.9280   24.4836 N   0  0  0  0  0  0  0  0  0  0  0  0
    5.4679   -4.0099   25.4716 C   0  0  0  0  0  0  0  0  0  0  0  0
    5.5101   -4.9793   24.9725 H   0  0  0  0  0  0  0  0  0  0  0  0
    6.2999   -3.9512   26.1876 H   0  0  0  0  0  0  0  0  0  0  0  0
    4.1485   -3.8841   26.2576 C   0  0  0  0  0  0  0  0  0  0  0  0
    4.1200   -4.6554   27.0394 H   0  0  0  0  0  0  0  0  0  0  0  0
    3.2995   -4.0841   25.5684 H   0  0  0  0  0  0  0  0  0  0  0  0
    4.0587   -2.5758   26.9158 N   0  0  0  0  0  0  0  0  0  0  0  0
    2.9184   -2.4834   27.8125 C   0  0  0  0  0  0  0  0  0  0  0  0
    1.9328   -2.6175   27.3227 H   0  0  0  0  0  0  0  0  0  0  0  0
    3.0113   -3.2548   28.5877 H   0  0  0  0  0  0  0  0  0  0  0  0
    2.9135   -1.5149   28.3259 H   0  0  0  0  0  0  0  0  0  0  0  0
    4.1707   -1.4894   25.9319 C   0  0  0  0  0  0  0  0  0  0  0  0
    3.3227   -1.4814   25.2175 H   0  0  0  0  0  0  0  0  0  0  0  0
    4.1605   -0.5265   26.4636 H   0  0  0  0  0  0  0  0  0  0  0  0
    5.5117   -1.6200   25.1642 C   0  0  0  0  0  0  0  0  0  0  0  0
    5.6502   -0.7910   24.4681 H   0  0  0  0  0  0  0  0  0  0  0  0
    6.3044   -1.5581   25.9228 H   0  0  0  0  0  0  0  0  0  0  0  0
    7.0785   -1.6335   22.0210 C   0  0  0  0  0  0  0  0  0  0  0  0
    7.5750   -0.6828   20.9706 C   0  0  0  0  0  0  0  0  0  0  0  0
    6.7412   -0.0351   19.9369 C   0  0  0  0  0  0  0  0  0  0  0  0
    7.2728    0.0406   18.6410 C   0  0  0  0  0  0  0  0  0  0  0  0
    8.2413   -0.4095   18.4261 H   0  0  0  0  0  0  0  0  0  0  0  0
    6.6564    0.6396   17.6224 N   0  0  0  0  0  0  0  0  0  0  0  0
    5.4760    1.2270   17.8747 C   0  0  0  0  0  0  0  0  0  0  0  0
    5.0089    1.7236   17.0270 H   0  0  0  0  0  0  0  0  0  0  0  0
    4.8690    1.2268   19.1341 C   0  0  0  0  0  0  0  0  0  0  0  0
    3.9319    1.7529   19.2672 H   0  0  0  0  0  0  0  0  0  0  0  0
    5.5033    0.5693   20.1887 C   0  0  0  0  0  0  0  0  0  0  0  0
    5.0666    0.5526   21.1898 H   0  0  0  0  0  0  0  0  0  0  0  0
    8.8319   -0.4509   21.0381 N   0  0  0  0  0  0  0  0  0  0  0  0
    9.4073   -1.1945   22.1567 C   0  0  0  0  0  0  0  0  0  0  0  0
   10.0443   -1.9749   21.7291 H   0  0  0  0  0  0  0  0  0  0  0  0
   10.0435   -0.5283   22.7437 H   0  0  0  0  0  0  0  0  0  0  0  0
    8.2448   -1.8073   22.9840 C   0  0  0  0  0  0  0  0  0  0  0  0
    8.4114   -2.8589   23.2366 H   0  0  0  0  0  0  0  0  0  0  0  0
    8.0984   -1.2408   23.9117 H   0  0  0  0  0  0  0  0  0  0  0  0
  1  2  1  0
  2  3  1  0
  3  4  2  0
  3  5  1  0
  5  6  1  0
  6  7  1  0
  6  8  1  0
  6  9  1  0
  9 10  1  0
  9 11  1  0
  9 12  1  0
 12 13  1  0
 13 14  1  0
 13 15  1  0
 13 16  1  0
 12 17  1  0
 17 18  1  0
 17 19  1  0
 17 20  1  0
 20 21  1  0
 20 22  1  0
  2 23  2  3
 23 24  1  0
 24 25  1  0
 25 26  2  0
 26 27  1  0
 26 28  1  0
 28 29  2  0
 29 30  1  0
 29 31  1  0
 31 32  1  0
 31 33  2  0
 33 34  1  0
 24 35  2  0
 35 36  1  0
 36 37  1  0
 36 38  1  0
 36 39  1  0
 39 40  1  0
 39 41  1  0
 20  5  1  0
 39 23  1  0
 33 25  1  0
M  END
>  <cnnaffinity>  (1) 
-5.02024

>  <filename>  (1) 
CN1CCN(C(=O)C=C2CCN=C2c2cccnc2)CC1

$$$$
