
     RDKit          3D

 27 28  0  0  0  0  0  0  0  0999 V2000
    4.8925    1.7807   17.0134 H   0  0  0  0  0  0  0  0  0  0  0  0
    5.3999    1.2934   17.8380 C   0  0  0  0  0  0  0  0  0  0  0  0
    6.5680    0.6799   17.5813 N   0  0  0  0  0  0  0  0  0  0  0  0
    7.1863    0.0564   18.5977 C   0  0  0  0  0  0  0  0  0  0  0  0
    8.1320   -0.4391   18.3934 H   0  0  0  0  0  0  0  0  0  0  0  0
    6.6623    0.0141   19.8985 C   0  0  0  0  0  0  0  0  0  0  0  0
    7.4163   -0.6969   20.9850 C   0  0  2  0  0  0  0  0  0  0  0  0
    8.2843   -1.2077   20.5537 H   0  0  0  0  0  0  0  0  0  0  0  0
    6.2538   -2.0864   21.7793 Br  0  0  0  0  0  0  0  0  0  0  0  0
    7.8757    0.3163   22.0363 C   0  0  0  0  0  0  0  0  0  0  0  0
    7.0261    0.6860   22.6142 H   0  0  0  0  0  0  0  0  0  0  0  0
    8.3613    1.1703   21.5562 H   0  0  0  0  0  0  0  0  0  0  0  0
    8.8474   -0.3304   22.9578 C   0  0  0  0  0  0  0  0  0  0  0  0
    8.5745   -0.9200   24.1499 C   0  0  0  0  0  0  0  0  0  0  0  0
    7.6156   -1.0403   24.6458 H   0  0  0  0  0  0  0  0  0  0  0  0
    9.8418   -1.3966   24.6371 C   0  0  0  0  0  0  0  0  0  0  0  0
    9.9636   -1.9309   25.5681 H   0  0  0  0  0  0  0  0  0  0  0  0
   10.8083   -1.0976   23.7974 N   0  0  0  0  0  0  0  0  0  0  0  0
   10.2167   -0.4441   22.7654 N   0  0  0  0  0  0  0  0  0  0  0  0
   10.9578    0.0960   21.6171 C   0  0  0  0  0  0  0  0  0  0  0  0
   10.9499    1.1894   21.6450 H   0  0  0  0  0  0  0  0  0  0  0  0
   11.9968   -0.2461   21.6501 H   0  0  0  0  0  0  0  0  0  0  0  0
   10.5106   -0.2466   20.6804 H   0  0  0  0  0  0  0  0  0  0  0  0
    5.4462    0.6491   20.1605 C   0  0  0  0  0  0  0  0  0  0  0  0
    5.0100    0.6308   21.1572 H   0  0  0  0  0  0  0  0  0  0  0  0
    4.8119    1.3092   19.1100 C   0  0  0  0  0  0  0  0  0  0  0  0
    3.8762    1.8394   19.2665 H   0  0  0  0  0  0  0  0  0  0  0  0
  1  2  1  0
  2  3  2  0
  3  4  1  0
  4  5  1  0
  4  6  2  0
  6  7  1  0
  7  8  1  6
  7  9  1  0
  7 10  1  0
 10 11  1  0
 10 12  1  0
 10 13  1  0
 13 14  2  0
 14 15  1  0
 14 16  1  0
 16 17  1  0
 16 18  2  0
 18 19  1  0
 19 20  1  0
 20 21  1  0
 20 22  1  0
 20 23  1  0
  6 24  1  0
 24 25  1  0
 24 26  2  0
 26 27  1  0
 26  2  1  0
 19 13  1  0
M  END
>  <cnnaffinity>  (1) 
-4.63429

>  <filename>  (1) 
Cn1nccc1C[C@@H](Br)c1cccnc1

$$$$
