
     RDKit          3D

 42 44  0  0  0  0  0  0  0  0999 V2000
    4.8356   -2.6156   26.4326 C   0  0  0  0  0  0  0  0  0  0  0  0
    6.0215   -3.4102   26.6655 N   0  0  0  0  0  0  0  0  0  0  0  0
    6.2424   -3.9217   27.8827 N   0  0  0  0  0  0  0  0  0  0  0  0
    7.4036   -4.5518   27.7902 C   0  0  0  0  0  0  0  0  0  0  0  0
    7.9336   -4.4651   26.4901 C   0  0  0  0  0  0  0  0  0  0  0  0
    7.0026   -3.7290   25.7814 C   0  0  0  0  0  0  0  0  0  0  0  0
    7.0294   -3.2397   24.3721 C   0  0  0  0  0  0  0  0  0  0  0  0
    7.7630   -1.8824   24.2505 C   0  0  0  0  0  0  0  0  0  0  0  0
    7.8315   -1.3999   22.8509 C   0  0  0  0  0  0  0  0  0  0  0  0
    6.9317   -0.6612   22.2383 N   0  0  0  0  0  0  0  0  0  0  0  0
    7.3477   -0.6810   20.9489 C   0  0  0  0  0  0  0  0  0  0  0  0
    6.6422    0.0145   19.8915 C   0  0  0  0  0  0  0  0  0  0  0  0
    5.4293    0.6610   20.1483 C   0  0  0  0  0  0  0  0  0  0  0  0
    4.8041    1.3091   19.0920 C   0  0  0  0  0  0  0  0  0  0  0  0
    5.4196    1.2829   17.8339 C   0  0  0  0  0  0  0  0  0  0  0  0
    6.5827    0.6621   17.5807 N   0  0  0  0  0  0  0  0  0  0  0  0
    7.1848    0.0470   18.6011 C   0  0  0  0  0  0  0  0  0  0  0  0
    8.1405   -0.4352   18.3824 H   0  0  0  0  0  0  0  0  0  0  0  0
    4.9560    1.7876   16.9911 H   0  0  0  0  0  0  0  0  0  0  0  0
    3.8708    1.8422   19.2346 H   0  0  0  0  0  0  0  0  0  0  0  0
    5.0074    0.6476   21.1583 H   0  0  0  0  0  0  0  0  0  0  0  0
    8.4402   -1.3834   20.7337 N   0  0  0  0  0  0  0  0  0  0  0  0
    8.7542   -1.8322   21.9658 N   0  0  0  0  0  0  0  0  0  0  0  0
   10.0010   -2.5377   22.1740 C   0  0  0  0  0  0  0  0  0  0  0  0
   11.1705   -1.7300   22.7374 C   0  0  0  0  0  0  0  0  0  0  0  0
   11.7328   -0.6558   21.8384 C   0  0  0  0  0  0  0  0  0  0  0  0
   10.8788    0.3206   21.5122 F   0  0  0  0  0  0  0  0  0  0  0  0
   12.1780   -1.2116   20.6954 F   0  0  0  0  0  0  0  0  0  0  0  0
   12.7937   -0.0714   22.4267 F   0  0  0  0  0  0  0  0  0  0  0  0
   11.9995   -2.4303   22.8529 H   0  0  0  0  0  0  0  0  0  0  0  0
   10.9671   -1.2773   23.7117 H   0  0  0  0  0  0  0  0  0  0  0  0
   10.2566   -2.9041   21.1838 H   0  0  0  0  0  0  0  0  0  0  0  0
    9.8170   -3.3966   22.8257 H   0  0  0  0  0  0  0  0  0  0  0  0
    8.7756   -1.9826   24.6514 H   0  0  0  0  0  0  0  0  0  0  0  0
    7.2546   -1.1203   24.8497 H   0  0  0  0  0  0  0  0  0  0  0  0
    6.0137   -3.1437   23.9630 H   0  0  0  0  0  0  0  0  0  0  0  0
    7.5329   -4.0024   23.7628 H   0  0  0  0  0  0  0  0  0  0  0  0
    8.8654   -4.8695   26.1124 H   0  0  0  0  0  0  0  0  0  0  0  0
    7.8125   -5.0273   28.6732 H   0  0  0  0  0  0  0  0  0  0  0  0
    5.1054   -1.6377   26.0182 H   0  0  0  0  0  0  0  0  0  0  0  0
    4.3524   -2.4804   27.3991 H   0  0  0  0  0  0  0  0  0  0  0  0
    4.1566   -3.1279   25.7432 H   0  0  0  0  0  0  0  0  0  0  0  0
  1  2  1  0
  2  3  1  0
  3  4  2  0
  4  5  1  0
  5  6  2  0
  6  7  1  0
  7  8  1  0
  8  9  1  0
  9 10  2  0
 10 11  1  0
 11 12  1  0
 12 13  2  0
 13 14  1  0
 14 15  2  0
 15 16  1  0
 16 17  2  0
 17 18  1  0
 15 19  1  0
 14 20  1  0
 13 21  1  0
 11 22  2  0
 22 23  1  0
 23 24  1  0
 24 25  1  0
 25 26  1  0
 26 27  1  0
 26 28  1  0
 26 29  1  0
 25 30  1  0
 25 31  1  0
 24 32  1  0
 24 33  1  0
  8 34  1  0
  8 35  1  0
  7 36  1  0
  7 37  1  0
  5 38  1  0
  4 39  1  0
  1 40  1  0
  1 41  1  0
  1 42  1  0
  6  2  1  0
 23  9  1  0
 17 12  1  0
M  END
>  <cnnaffinity>  (1) 
-6.2049

>  <filename>  (1) 
Cn1nccc1CCc1nc(-c2cccnc2)nn1CCC(F)(F)F

$$$$
