
     RDKit          3D

 35 38  0  0  0  0  0  0  0  0999 V2000
   10.0283   -2.5152   22.2875 C   0  0  0  0  0  0  0  0  0  0  0  0
    8.8484   -1.7273   22.0151 N   0  0  0  0  0  0  0  0  0  0  0  0
    8.5610   -1.2816   20.7777 N   0  0  0  0  0  0  0  0  0  0  0  0
    7.3995   -0.6692   20.9639 C   0  0  0  0  0  0  0  0  0  0  0  0
    6.6591    0.0021   19.9084 C   0  0  0  0  0  0  0  0  0  0  0  0
    5.4378    0.6473   20.1639 C   0  0  0  0  0  0  0  0  0  0  0  0
    4.8115    1.2980   19.1063 C   0  0  0  0  0  0  0  0  0  0  0  0
    5.4204    1.2762   17.8455 C   0  0  0  0  0  0  0  0  0  0  0  0
    6.5804    0.6524   17.5919 N   0  0  0  0  0  0  0  0  0  0  0  0
    7.1854    0.0370   18.6099 C   0  0  0  0  0  0  0  0  0  0  0  0
    8.1372   -0.4407   18.3790 H   0  0  0  0  0  0  0  0  0  0  0  0
    4.9599    1.7839   17.0014 H   0  0  0  0  0  0  0  0  0  0  0  0
    3.8779    1.8356   19.2445 H   0  0  0  0  0  0  0  0  0  0  0  0
    5.0067    0.6427   21.1684 H   0  0  0  0  0  0  0  0  0  0  0  0
    6.9346   -0.7057   22.2375 N   0  0  0  0  0  0  0  0  0  0  0  0
    7.8400   -1.4273   22.8571 C   0  0  0  0  0  0  0  0  0  0  0  0
    7.8242   -1.8342   24.2527 C   0  0  0  0  0  0  0  0  0  0  0  0
    7.8920   -0.8336   25.1879 C   0  0  0  0  0  0  0  0  0  0  0  0
    7.9624   -1.0660   26.5151 N   0  0  0  0  0  0  0  0  0  0  0  0
    7.9407   -2.3147   26.9392 C   0  0  0  0  0  0  0  0  0  0  0  0
    7.8240   -3.4419   26.0811 C   0  0  0  0  0  0  0  0  0  0  0  0
    7.7457   -4.7885   26.5436 C   0  0  0  0  0  0  0  0  0  0  0  0
    7.7854   -5.0958   28.2504 Cl  0  0  0  0  0  0  0  0  0  0  0  0
    7.6208   -5.8460   25.6749 C   0  0  0  0  0  0  0  0  0  0  0  0
    7.5520   -5.6062   24.2797 C   0  0  0  0  0  0  0  0  0  0  0  0
    7.6083   -4.3140   23.7941 C   0  0  0  0  0  0  0  0  0  0  0  0
    7.7614   -3.2035   24.6753 C   0  0  0  0  0  0  0  0  0  0  0  0
    7.5282   -4.1187   22.7313 H   0  0  0  0  0  0  0  0  0  0  0  0
    7.4485   -6.4395   23.5892 H   0  0  0  0  0  0  0  0  0  0  0  0
    7.5665   -6.8448   26.0933 H   0  0  0  0  0  0  0  0  0  0  0  0
    8.0265   -2.4496   28.0075 H   0  0  0  0  0  0  0  0  0  0  0  0
    7.9295    0.2121   24.8856 H   0  0  0  0  0  0  0  0  0  0  0  0
   10.7842   -2.2383   21.5549 H   0  0  0  0  0  0  0  0  0  0  0  0
    9.7821   -3.5752   22.2191 H   0  0  0  0  0  0  0  0  0  0  0  0
   10.3838   -2.3061   23.3009 H   0  0  0  0  0  0  0  0  0  0  0  0
  1  2  1  0
  2  3  1  0
  3  4  2  0
  4  5  1  0
  5  6  2  0
  6  7  1  0
  7  8  2  0
  8  9  1  0
  9 10  2  0
 10 11  1  0
  8 12  1  0
  7 13  1  0
  6 14  1  0
  4 15  1  0
 15 16  2  0
 16 17  1  0
 17 18  2  0
 18 19  1  0
 19 20  2  0
 20 21  1  0
 21 22  2  0
 22 23  1  0
 22 24  1  0
 24 25  2  0
 25 26  1  0
 26 27  2  0
 26 28  1  0
 25 29  1  0
 24 30  1  0
 20 31  1  0
 18 32  1  0
  1 33  1  0
  1 34  1  0
  1 35  1  0
 16  2  1  0
 27 17  1  0
 10  5  1  0
 27 21  1  0
M  END
>  <cnnaffinity>  (1) 
-5.74959

>  <filename>  (1) 
Cn1nc(-c2cccnc2)nc1-c1cncc2c(Cl)cccc12

$$$$
