
     RDKit          3D

 36 39  0  0  0  0  0  0  0  0999 V2000
    7.3151    2.4906   24.6040 C   0  0  0  0  0  0  0  0  0  0  0  0
    7.6099    1.7192   23.3877 N   0  0  0  0  0  0  0  0  0  0  0  0
    6.7484    0.8298   22.8327 N   0  0  0  0  0  0  0  0  0  0  0  0
    7.4600    0.2960   21.8671 C   0  0  0  0  0  0  0  0  0  0  0  0
    6.9695   -0.7525   20.8958 C   0  0  0  0  0  0  0  0  0  0  0  0
    6.3572   -0.1208   19.6584 C   0  0  0  0  0  0  0  0  0  0  0  0
    5.2160    0.6721   19.7894 C   0  0  0  0  0  0  0  0  0  0  0  0
    4.7469    1.3288   18.6521 C   0  0  0  0  0  0  0  0  0  0  0  0
    5.4140    1.1799   17.4311 C   0  0  0  0  0  0  0  0  0  0  0  0
    6.4873    0.3812   17.2881 N   0  0  0  0  0  0  0  0  0  0  0  0
    6.9402   -0.2615   18.3810 C   0  0  0  0  0  0  0  0  0  0  0  0
    7.8072   -0.9078   18.2767 H   0  0  0  0  0  0  0  0  0  0  0  0
    5.0547    1.7308   16.5674 H   0  0  0  0  0  0  0  0  0  0  0  0
    3.8802    1.9779   18.7076 H   0  0  0  0  0  0  0  0  0  0  0  0
    4.7323    0.7895   20.7592 H   0  0  0  0  0  0  0  0  0  0  0  0
    6.2274   -1.3846   21.3923 H   0  0  0  0  0  0  0  0  0  0  0  0
    7.8213   -1.3791   20.6135 H   0  0  0  0  0  0  0  0  0  0  0  0
    8.7550    0.7752   21.7758 N   0  0  0  0  0  0  0  0  0  0  0  0
    8.8169    1.6729   22.7155 C   0  0  0  0  0  0  0  0  0  0  0  0
   10.0145    2.4596   22.9790 C   0  0  0  0  0  0  0  0  0  0  0  0
   10.1437    3.8038   23.2408 C   0  0  0  0  0  0  0  0  0  0  0  0
   11.4693    4.1626   23.3087 O   0  0  0  0  0  0  0  0  0  0  0  0
   12.1874    3.0129   23.0970 C   0  0  0  0  0  0  0  0  0  0  0  0
   11.3449    1.9265   22.9158 C   0  0  0  0  0  0  0  0  0  0  0  0
   11.8554    0.6318   22.7283 C   0  0  0  0  0  0  0  0  0  0  0  0
   10.7136   -0.8923   22.5279 Br  0  0  0  0  0  0  0  0  0  0  0  0
   13.2412    0.4605   22.6749 C   0  0  0  0  0  0  0  0  0  0  0  0
   14.0996    1.5524   22.8325 C   0  0  0  0  0  0  0  0  0  0  0  0
   13.5700    2.8355   23.0613 C   0  0  0  0  0  0  0  0  0  0  0  0
   14.2147    3.6979   23.1954 H   0  0  0  0  0  0  0  0  0  0  0  0
   15.1693    1.3945   22.7298 H   0  0  0  0  0  0  0  0  0  0  0  0
   13.6567   -0.5281   22.4938 H   0  0  0  0  0  0  0  0  0  0  0  0
    9.3187    4.5086   23.3172 H   0  0  0  0  0  0  0  0  0  0  0  0
    6.4897    2.0218   25.1383 H   0  0  0  0  0  0  0  0  0  0  0  0
    8.1782    2.5229   25.2789 H   0  0  0  0  0  0  0  0  0  0  0  0
    7.0199    3.5117   24.3475 H   0  0  0  0  0  0  0  0  0  0  0  0
  1  2  1  0
  2  3  1  0
  3  4  2  0
  4  5  1  0
  5  6  1  0
  6  7  2  0
  7  8  1  0
  8  9  2  0
  9 10  1  0
 10 11  2  0
 11 12  1  0
  9 13  1  0
  8 14  1  0
  7 15  1  0
  5 16  1  0
  5 17  1  0
  4 18  1  0
 18 19  2  0
 19 20  1  0
 20 21  2  0
 21 22  1  0
 22 23  1  0
 23 24  2  0
 24 25  1  0
 25 26  1  0
 25 27  2  0
 27 28  1  0
 28 29  2  0
 29 30  1  0
 28 31  1  0
 27 32  1  0
 21 33  1  0
  1 34  1  0
  1 35  1  0
  1 36  1  0
 19  2  1  0
 24 20  1  0
 11  6  1  0
 29 23  1  0
M  END
>  <cnnaffinity>  (1) 
-5.93257

>  <filename>  (1) 
Cn1nc(Cc2cccnc2)nc1-c1coc2cccc(Br)c12

$$$$
