
     RDKit          3D

 39 41  0  0  0  0  0  0  0  0999 V2000
    7.6604    5.1635   26.8479 C   0  0  0  0  0  0  0  0  0  0  0  0
    8.3044    4.6967   25.6306 N   0  0  0  0  0  0  0  0  0  0  0  0
    9.4851    5.1146   25.2511 N   0  0  0  0  0  0  0  0  0  0  0  0
    9.7436    4.4091   24.1317 C   0  0  0  0  0  0  0  0  0  0  0  0
   11.1111    4.4543   23.3514 C   0  0  0  0  0  0  0  0  0  0  0  0
   11.6514    5.5430   23.1812 O   0  0  0  0  0  0  0  0  0  0  0  0
   11.5244    3.3222   22.9644 O   0  0  0  0  0  1  0  0  0  0  0  0
    8.6201    3.5729   23.8845 C   0  0  0  0  0  0  0  0  0  0  0  0
    8.3168    2.5722   22.7704 C   0  0  0  0  0  0  0  0  0  0  0  0
    7.1821    2.3384   22.3775 O   0  0  0  0  0  0  0  0  0  0  0  0
    9.4118    1.9555   22.2651 N   0  0  0  0  0  0  0  0  0  0  0  0
    9.3091    1.0413   21.1398 C   0  0  0  0  0  0  0  0  0  0  0  0
    8.6486   -0.2824   21.5132 C   0  0  0  0  0  0  0  0  0  0  0  0
    9.2673   -1.0764   22.4932 C   0  0  0  0  0  0  0  0  0  0  0  0
    8.6658   -2.2476   22.9592 C   0  0  0  0  0  0  0  0  0  0  0  0
    7.4159   -2.6297   22.4631 C   0  0  0  0  0  0  0  0  0  0  0  0
    6.7872   -1.8460   21.4950 C   0  0  0  0  0  0  0  0  0  0  0  0
    7.4034   -0.6913   20.9887 C   0  0  0  0  0  0  0  0  0  0  0  0
    6.6988    0.0539   19.8973 C   0  0  0  0  0  0  0  0  0  0  0  0
    5.4800    0.7028   20.1381 C   0  0  0  0  0  0  0  0  0  0  0  0
    4.8302    1.3300   19.0717 C   0  0  0  0  0  0  0  0  0  0  0  0
    5.4202    1.2799   17.8031 C   0  0  0  0  0  0  0  0  0  0  0  0
    6.5739    0.6455   17.5452 N   0  0  0  0  0  0  0  0  0  0  0  0
    7.1901    0.0548   18.5813 C   0  0  0  0  0  0  0  0  0  0  0  0
    8.1256   -0.4582   18.3549 H   0  0  0  0  0  0  0  0  0  0  0  0
    4.9429    1.7664   16.9552 H   0  0  0  0  0  0  0  0  0  0  0  0
    3.8907    1.8553   19.2069 H   0  0  0  0  0  0  0  0  0  0  0  0
    5.0899    0.7384   21.1589 H   0  0  0  0  0  0  0  0  0  0  0  0
    5.8130   -2.1209   21.1019 H   0  0  0  0  0  0  0  0  0  0  0  0
    6.9293   -3.5275   22.8323 H   0  0  0  0  0  0  0  0  0  0  0  0
    9.1638   -2.8547   23.7121 H   0  0  0  0  0  0  0  0  0  0  0  0
   10.2239   -0.7564   22.9057 H   0  0  0  0  0  0  0  0  0  0  0  0
    8.7693    1.5245   20.3191 H   0  0  0  0  0  0  0  0  0  0  0  0
   10.3327    0.8527   20.7983 H   0  0  0  0  0  0  0  0  0  0  0  0
   10.3251    2.3851   22.4915 H   0  0  0  0  0  0  0  0  0  0  0  0
    7.7352    3.8035   24.8673 N   0  0  0  0  0  0  0  0  0  0  0  0
    7.0000    6.0046   26.6344 H   0  0  0  0  0  0  0  0  0  0  0  0
    7.0911    4.3273   27.2547 H   0  0  0  0  0  0  0  0  0  0  0  0
    8.4318    5.4787   27.5464 H   0  0  0  0  0  0  0  0  0  0  0  0
  1  2  1  0
  2  3  1  0
  3  4  2  0
  4  5  1  0
  5  6  2  0
  5  7  1  0
  4  8  1  0
  8  9  1  0
  9 10  2  0
  9 11  1  0
 11 12  1  0
 12 13  1  0
 13 14  2  0
 14 15  1  0
 15 16  2  0
 16 17  1  0
 17 18  2  0
 18 19  1  0
 19 20  2  0
 20 21  1  0
 21 22  2  0
 22 23  1  0
 23 24  2  0
 24 25  1  0
 22 26  1  0
 21 27  1  0
 20 28  1  0
 17 29  1  0
 16 30  1  0
 15 31  1  0
 14 32  1  0
 12 33  1  0
 12 34  1  0
 11 35  1  0
  8 36  2  0
  1 37  1  0
  1 38  1  0
  1 39  1  0
 36  2  1  0
 18 13  1  0
 24 19  1  0
M  CHG  1   7  -1
M  END
>  <cnnaffinity>  (1) 
-5.02759

>  <filename>  (1) 
Cn1nc(C(=O)[O-])c(C(=O)NCc2ccccc2-c2cccnc2)n1

$$$$
