
     RDKit          3D

 25 26  0  0  0  0  0  0  0  0999 V2000
    4.9278    1.7848   16.9915 H   0  0  0  0  0  0  0  0  0  0  0  0
    5.4027    1.2905   17.8373 C   0  0  0  0  0  0  0  0  0  0  0  0
    6.5638    0.6708   17.5779 N   0  0  0  0  0  0  0  0  0  0  0  0
    7.1621    0.0526   18.6042 C   0  0  0  0  0  0  0  0  0  0  0  0
    8.1106   -0.4225   18.3650 H   0  0  0  0  0  0  0  0  0  0  0  0
    6.6545   -0.0006   19.9101 C   0  0  0  0  0  0  0  0  0  0  0  0
    7.3644   -0.7823   20.9830 C   0  0  0  0  0  0  0  0  0  0  0  0
    7.1679   -0.3352   21.9694 H   0  0  0  0  0  0  0  0  0  0  0  0
    8.4518   -0.7816   20.8158 H   0  0  0  0  0  0  0  0  0  0  0  0
    6.8644   -2.1284   20.9458 O   0  0  0  0  0  0  0  0  0  0  0  0
    7.3732   -2.9719   21.8603 C   0  0  0  0  0  0  0  0  0  0  0  0
    8.3144   -2.8340   22.8538 C   0  0  0  0  0  0  0  0  0  0  0  0
    8.8569   -1.9360   23.1177 H   0  0  0  0  0  0  0  0  0  0  0  0
    8.3817   -4.1248   23.4189 C   0  0  0  0  0  0  0  0  0  0  0  0
    8.9969   -4.4730   24.2352 H   0  0  0  0  0  0  0  0  0  0  0  0
    7.5678   -4.9801   22.8283 N   0  0  0  0  0  0  0  0  0  0  0  0
    6.9412   -4.2600   21.8752 N   0  0  0  0  0  0  0  0  0  0  0  0
    6.0021   -4.8968   20.9871 C   0  0  0  0  0  0  0  0  0  0  0  0
    5.7066   -5.8495   21.4213 H   0  0  0  0  0  0  0  0  0  0  0  0
    6.4255   -5.0707   19.9965 H   0  0  0  0  0  0  0  0  0  0  0  0
    5.1288   -4.2628   20.8886 H   0  0  0  0  0  0  0  0  0  0  0  0
    5.4403    0.6503   20.1599 C   0  0  0  0  0  0  0  0  0  0  0  0
    5.0010    0.6370   21.1628 H   0  0  0  0  0  0  0  0  0  0  0  0
    4.8058    1.3085   19.1033 C   0  0  0  0  0  0  0  0  0  0  0  0
    3.8748    1.8426   19.2503 H   0  0  0  0  0  0  0  0  0  0  0  0
  1  2  1  0
  2  3  2  0
  3  4  1  0
  4  5  1  0
  4  6  2  0
  6  7  1  0
  7  8  1  0
  7  9  1  0
  7 10  1  0
 10 11  1  0
 11 12  2  0
 12 13  1  0
 12 14  1  0
 14 15  1  0
 14 16  2  0
 16 17  1  0
 17 18  1  0
 18 19  1  0
 18 20  1  0
 18 21  1  0
  6 22  1  0
 22 23  1  0
 22 24  2  0
 24 25  1  0
 24  2  1  0
 17 11  1  0
M  END
>  <cnnaffinity>  (1) 
-4.10042

>  <filename>  (1) 
Cn1nccc1OCc1cccnc1

$$$$
