
     RDKit          3D

 33 36  0  0  0  0  0  0  0  0999 V2000
   10.0510   -2.3430   22.1280 C   0  0  0  0  0  0  0  0  0  0  0  0
    8.8207   -1.5922   21.9710 N   0  0  0  0  0  0  0  0  0  0  0  0
    8.5181   -1.0936   20.7537 N   0  0  0  0  0  0  0  0  0  0  0  0
    7.2722   -0.6703   20.9071 C   0  0  0  0  0  0  0  0  0  0  0  0
    6.5513    0.0294   19.8504 C   0  0  0  0  0  0  0  0  0  0  0  0
    5.3355    0.7013   20.0564 C   0  0  0  0  0  0  0  0  0  0  0  0
    4.7670    1.3626   18.9692 C   0  0  0  0  0  0  0  0  0  0  0  0
    5.4234    1.3219   17.7332 C   0  0  0  0  0  0  0  0  0  0  0  0
    6.5776    0.6723   17.5268 N   0  0  0  0  0  0  0  0  0  0  0  0
    7.1272    0.0489   18.5720 C   0  0  0  0  0  0  0  0  0  0  0  0
    8.0680   -0.4660   18.3861 H   0  0  0  0  0  0  0  0  0  0  0  0
    5.0006    1.8344   16.8719 H   0  0  0  0  0  0  0  0  0  0  0  0
    3.8388    1.9145   19.0665 H   0  0  0  0  0  0  0  0  0  0  0  0
    4.8582    0.7017   21.0389 H   0  0  0  0  0  0  0  0  0  0  0  0
    6.7461   -0.9128   22.1289 N   0  0  0  0  0  0  0  0  0  0  0  0
    7.7538   -1.4448   22.7933 C   0  0  0  0  0  0  0  0  0  0  0  0
    7.7417   -1.8013   24.2036 C   0  0  0  0  0  0  0  0  0  0  0  0
    6.7011   -2.5744   24.7107 C   0  0  0  0  0  0  0  0  0  0  0  0
    6.6765   -3.0504   25.9706 N   0  0  0  0  0  0  0  0  0  0  0  0
    7.6507   -2.6953   26.8132 C   0  0  0  0  0  0  0  0  0  0  0  0
    8.6607   -1.7787   26.4406 C   0  0  0  0  0  0  0  0  0  0  0  0
    8.7244   -1.3358   25.1084 C   0  0  0  0  0  0  0  0  0  0  0  0
    9.7618   -0.3571   25.0416 C   0  0  0  0  0  0  0  0  0  0  0  0
   10.2887   -0.2377   26.2994 C   0  0  0  0  0  0  0  0  0  0  0  0
    9.6379   -1.1086   27.1502 N   0  0  0  0  0  0  0  0  0  0  0  0
    9.7364   -1.1077   28.1547 H   0  0  0  0  0  0  0  0  0  0  0  0
   11.0655    0.4142   26.6797 H   0  0  0  0  0  0  0  0  0  0  0  0
   10.0363    0.1539   24.1285 H   0  0  0  0  0  0  0  0  0  0  0  0
    7.6627   -3.1567   27.7950 H   0  0  0  0  0  0  0  0  0  0  0  0
    5.8680   -2.8580   24.0695 H   0  0  0  0  0  0  0  0  0  0  0  0
   10.2789   -2.7582   21.1492 H   0  0  0  0  0  0  0  0  0  0  0  0
   10.8837   -1.7160   22.4552 H   0  0  0  0  0  0  0  0  0  0  0  0
    9.9106   -3.1519   22.8472 H   0  0  0  0  0  0  0  0  0  0  0  0
  1  2  1  0
  2  3  1  0
  3  4  2  0
  4  5  1  0
  5  6  2  0
  6  7  1  0
  7  8  2  0
  8  9  1  0
  9 10  2  0
 10 11  1  0
  8 12  1  0
  7 13  1  0
  6 14  1  0
  4 15  1  0
 15 16  2  0
 16 17  1  0
 17 18  2  0
 18 19  1  0
 19 20  2  0
 20 21  1  0
 21 22  2  0
 22 23  1  0
 23 24  2  0
 24 25  1  0
 25 26  1  0
 24 27  1  0
 23 28  1  0
 20 29  1  0
 18 30  1  0
  1 31  1  0
  1 32  1  0
  1 33  1  0
 16  2  1  0
 22 17  1  0
 10  5  1  0
 25 21  1  0
M  END
>  <cnnaffinity>  (1) 
-5.4234

>  <filename>  (1) 
Cn1nc(-c2cccnc2)nc1-c1cncc2[nH]ccc12

$$$$
