
     RDKit          3D

 33 35  0  0  0  0  0  0  0  0999 V2000
    9.7259   -2.2719   22.3200 C   0  0  0  0  0  0  0  0  0  0  0  0
    8.4548   -1.7780   21.8377 N   0  0  0  0  0  0  0  0  0  0  0  0
    8.3544   -1.2133   20.6132 N   0  0  0  0  0  0  0  0  0  0  0  0
    7.1054   -0.7757   20.5978 C   0  0  0  0  0  0  0  0  0  0  0  0
    6.5028    0.0095   19.5246 C   0  0  0  0  0  0  0  0  0  0  0  0
    5.3122    0.7317   19.7212 C   0  0  0  0  0  0  0  0  0  0  0  0
    4.8054    1.4656   18.6539 C   0  0  0  0  0  0  0  0  0  0  0  0
    5.4919    1.4413   17.4342 C   0  0  0  0  0  0  0  0  0  0  0  0
    6.6288    0.7573   17.2375 N   0  0  0  0  0  0  0  0  0  0  0  0
    7.1284    0.0749   18.2732 C   0  0  0  0  0  0  0  0  0  0  0  0
    8.0750   -0.4369   18.1049 H   0  0  0  0  0  0  0  0  0  0  0  0
    5.1142    1.9988   16.5805 H   0  0  0  0  0  0  0  0  0  0  0  0
    3.9100    2.0683   18.7590 H   0  0  0  0  0  0  0  0  0  0  0  0
    4.8152    0.7223   20.6939 H   0  0  0  0  0  0  0  0  0  0  0  0
    6.4074   -1.0413   21.7292 N   0  0  0  0  0  0  0  0  0  0  0  0
    7.2878   -1.6495   22.4977 C   0  0  0  0  0  0  0  0  0  0  0  0
    7.1324   -1.9072   23.9688 C   0  0  0  0  0  0  0  0  0  0  0  0
    7.9482   -0.8980   24.7808 C   0  0  0  0  0  0  0  0  0  0  0  0
    7.6870    0.4638   24.5490 C   0  0  0  0  0  0  0  0  0  0  0  0
    8.5103    1.4687   25.0494 C   0  0  0  0  0  0  0  0  0  0  0  0
    9.6272    1.1099   25.8085 C   0  0  0  0  0  0  0  0  0  0  0  0
    9.8741   -0.2254   26.1254 C   0  0  0  0  0  0  0  0  0  0  0  0
    9.0062   -1.2156   25.6433 C   0  0  0  0  0  0  0  0  0  0  0  0
    9.2726   -2.8502   26.2068 Cl  0  0  0  0  0  0  0  0  0  0  0  0
   10.7106   -0.4996   26.7626 H   0  0  0  0  0  0  0  0  0  0  0  0
   10.3023    1.8763   26.1645 H   0  0  0  0  0  0  0  0  0  0  0  0
    8.2741    2.5110   24.8460 H   0  0  0  0  0  0  0  0  0  0  0  0
    6.8280    0.7206   23.9316 H   0  0  0  0  0  0  0  0  0  0  0  0
    6.0698   -1.7643   24.1736 H   0  0  0  0  0  0  0  0  0  0  0  0
    7.3723   -2.9458   24.2104 H   0  0  0  0  0  0  0  0  0  0  0  0
   10.3873   -2.3679   21.4606 H   0  0  0  0  0  0  0  0  0  0  0  0
   10.1751   -1.5884   23.0486 H   0  0  0  0  0  0  0  0  0  0  0  0
    9.5945   -3.2485   22.7897 H   0  0  0  0  0  0  0  0  0  0  0  0
  1  2  1  0
  2  3  1  0
  3  4  2  0
  4  5  1  0
  5  6  2  0
  6  7  1  0
  7  8  2  0
  8  9  1  0
  9 10  2  0
 10 11  1  0
  8 12  1  0
  7 13  1  0
  6 14  1  0
  4 15  1  0
 15 16  2  0
 16 17  1  0
 17 18  1  0
 18 19  2  0
 19 20  1  0
 20 21  2  0
 21 22  1  0
 22 23  2  0
 23 24  1  0
 22 25  1  0
 21 26  1  0
 20 27  1  0
 19 28  1  0
 17 29  1  0
 17 30  1  0
  1 31  1  0
  1 32  1  0
  1 33  1  0
 16  2  1  0
 23 18  1  0
 10  5  1  0
M  END
>  <cnnaffinity>  (1) 
-5.31182

>  <filename>  (1) 
Cn1nc(-c2cccnc2)nc1Cc1ccccc1Cl

$$$$
