
     RDKit          3D

 30 32  0  0  0  0  0  0  0  0999 V2000
    4.9193    1.7973   16.9906 H   0  0  0  0  0  0  0  0  0  0  0  0
    5.3932    1.2994   17.8336 C   0  0  0  0  0  0  0  0  0  0  0  0
    6.5549    0.6825   17.5666 N   0  0  0  0  0  0  0  0  0  0  0  0
    7.1655    0.0568   18.5822 C   0  0  0  0  0  0  0  0  0  0  0  0
    8.1160   -0.4235   18.3607 H   0  0  0  0  0  0  0  0  0  0  0  0
    6.6592   -0.0197   19.9062 C   0  0  0  0  0  0  0  0  0  0  0  0
    7.3238   -0.7272   20.9169 N   0  0  0  0  0  0  0  0  0  0  0  0
    6.7830   -1.0742   21.6991 H   0  0  0  0  0  0  0  0  0  0  0  0
    8.7086   -0.7293   21.1206 C   0  0  0  0  0  0  0  0  0  0  0  0
    9.7008    0.1711   20.6704 C   0  0  0  0  0  0  0  0  0  0  0  0
    9.5481    1.0376   20.0471 H   0  0  0  0  0  0  0  0  0  0  0  0
   10.9154   -0.1603   21.0870 N   0  0  0  0  0  0  0  0  0  0  0  0
   10.7189   -1.2702   21.8084 N   0  0  0  0  0  0  0  0  0  0  0  0
   11.5196   -1.7496   22.1951 H   0  0  0  0  0  0  0  0  0  0  0  0
    9.4139   -1.6606   21.8690 C   0  0  0  0  0  0  0  0  0  0  0  0
    8.9086   -2.8544   22.4999 C   0  0  0  0  0  0  0  0  0  0  0  0
    7.8800   -3.6651   22.0731 C   0  0  0  0  0  0  0  0  0  0  0  0
    7.3416   -3.5152   21.1489 H   0  0  0  0  0  0  0  0  0  0  0  0
    7.7831   -4.6630   23.0517 C   0  0  0  0  0  0  0  0  0  0  0  0
    7.1165   -5.5140   23.1027 H   0  0  0  0  0  0  0  0  0  0  0  0
    8.6724   -4.4810   24.0191 N   0  0  0  0  0  0  0  0  0  0  0  0
    9.3421   -3.3749   23.6805 N   0  0  0  0  0  0  0  0  0  0  0  0
   10.3960   -2.8947   24.5399 C   0  0  0  0  0  0  0  0  0  0  0  0
   10.1948   -3.2807   25.5371 H   0  0  0  0  0  0  0  0  0  0  0  0
   10.3910   -1.8018   24.5541 H   0  0  0  0  0  0  0  0  0  0  0  0
   11.3697   -3.2664   24.2100 H   0  0  0  0  0  0  0  0  0  0  0  0
    5.4412    0.6264   20.1604 C   0  0  0  0  0  0  0  0  0  0  0  0
    5.0268    0.6170   21.1702 H   0  0  0  0  0  0  0  0  0  0  0  0
    4.8128    1.3019   19.1066 C   0  0  0  0  0  0  0  0  0  0  0  0
    3.8852    1.8346   19.2608 H   0  0  0  0  0  0  0  0  0  0  0  0
  1  2  1  0
  2  3  2  0
  3  4  1  0
  4  5  1  0
  4  6  2  0
  6  7  1  0
  7  8  1  0
  7  9  1  0
  9 10  1  0
 10 11  1  0
 10 12  2  0
 12 13  1  0
 13 14  1  0
 13 15  1  0
 15 16  1  0
 16 17  2  0
 17 18  1  0
 17 19  1  0
 19 20  1  0
 19 21  2  0
 21 22  1  0
 22 23  1  0
 23 24  1  0
 23 25  1  0
 23 26  1  0
  6 27  1  0
 27 28  1  0
 27 29  2  0
 29 30  1  0
 29  2  1  0
 15  9  2  0
 22 16  1  0
M  END
>  <cnnaffinity>  (1) 
-5.4984

>  <filename>  (1) 
Cn1nccc1-c1[nH]ncc1Nc1cccnc1

$$$$
