
     RDKit          3D

 25 26  0  0  0  0  0  0  0  0999 V2000
    5.6542   -1.4418   21.8217 H   0  0  0  0  0  0  0  0  0  0  0  0
    6.7354   -1.4628   21.8972 C   0  0  0  0  0  0  0  0  0  0  0  0
    7.4183   -0.7455   20.9236 C   0  0  0  0  0  0  0  0  0  0  0  0
    9.3397   -0.6927   20.9398 Br  0  0  0  0  0  0  0  0  0  0  0  0
    6.6870   -0.0057   19.8651 C   0  0  0  0  0  0  0  0  0  0  0  0
    7.2259    0.0922   18.5682 C   0  0  0  0  0  0  0  0  0  0  0  0
    8.1833   -0.3743   18.3502 H   0  0  0  0  0  0  0  0  0  0  0  0
    6.6019    0.7274   17.5550 N   0  0  0  0  0  0  0  0  0  0  0  0
    5.4206    1.3222   17.7997 C   0  0  0  0  0  0  0  0  0  0  0  0
    4.9138    1.8448   16.9927 H   0  0  0  0  0  0  0  0  0  0  0  0
    4.8158    1.2880   19.0578 C   0  0  0  0  0  0  0  0  0  0  0  0
    3.8624    1.7898   19.1972 H   0  0  0  0  0  0  0  0  0  0  0  0
    5.4531    0.6184   20.1073 C   0  0  0  0  0  0  0  0  0  0  0  0
    5.0126    0.6127   21.1020 H   0  0  0  0  0  0  0  0  0  0  0  0
    7.3733   -2.2866   22.9595 C   0  0  0  0  0  0  0  0  0  0  0  0
    8.5767   -2.9186   22.8720 C   0  0  0  0  0  0  0  0  0  0  0  0
    9.2390   -2.9053   22.0189 H   0  0  0  0  0  0  0  0  0  0  0  0
    8.7784   -3.6344   24.1139 C   0  0  0  0  0  0  0  0  0  0  0  0
    9.6454   -4.2495   24.3457 H   0  0  0  0  0  0  0  0  0  0  0  0
    7.7611   -3.4464   24.9161 N   0  0  0  0  0  0  0  0  0  0  0  0
    6.8982   -2.6338   24.2279 N   0  0  0  0  0  0  0  0  0  0  0  0
    5.6773   -2.1094   24.8487 C   0  0  0  0  0  0  0  0  0  0  0  0
    5.7295   -2.2816   25.9240 H   0  0  0  0  0  0  0  0  0  0  0  0
    4.7830   -2.6037   24.4637 H   0  0  0  0  0  0  0  0  0  0  0  0
    5.5892   -1.0344   24.6811 H   0  0  0  0  0  0  0  0  0  0  0  0
  1  2  1  0
  2  3  2  3
  3  4  1  0
  3  5  1  0
  5  6  2  0
  6  7  1  0
  6  8  1  0
  8  9  2  0
  9 10  1  0
  9 11  1  0
 11 12  1  0
 11 13  2  0
 13 14  1  0
  2 15  1  0
 15 16  2  0
 16 17  1  0
 16 18  1  0
 18 19  1  0
 18 20  2  0
 20 21  1  0
 21 22  1  0
 22 23  1  0
 22 24  1  0
 22 25  1  0
 13  5  1  0
 21 15  1  0
M  END
>  <cnnaffinity>  (1) 
-4.32105

>  <filename>  (1) 
Cn1nccc1C=C(Br)c1cccnc1

$$$$
