
     RDKit          3D

 38 39  0  0  0  0  0  0  0  0999 V2000
    8.4068   -5.6846   27.6180 C   0  0  0  0  0  0  0  0  0  0  0  0
    8.1970   -4.9393   26.3840 N   0  0  0  0  0  0  0  0  0  0  0  0
    9.2278   -4.3899   25.7342 N   0  0  0  0  0  0  0  0  0  0  0  0
    8.7631   -3.7660   24.7003 N   0  0  0  0  0  0  0  0  0  0  0  0
    7.4177   -3.8860   24.6506 C   0  0  0  0  0  0  0  0  0  0  0  0
    6.5468   -3.2821   23.5614 C   0  0  0  0  0  0  0  0  0  0  0  0
    7.1557   -2.1696   22.8190 N   0  0  0  0  0  0  0  0  0  0  0  0
    6.6362   -1.8022   21.5991 C   0  0  0  0  0  0  0  0  0  0  0  0
    5.6870   -2.3624   21.0861 O   0  0  0  0  0  0  0  0  0  0  0  0
    7.3272   -0.7351   20.9733 N   0  0  0  0  0  0  0  0  0  0  0  0
    8.6625   -0.2542   21.3366 C   0  0  0  0  0  0  0  0  0  0  0  0
    8.6468    1.0828   22.0692 C   0  0  0  0  0  0  0  0  0  0  0  0
    7.9474    0.9632   23.2368 F   0  0  0  0  0  0  0  0  0  0  0  0
    9.9300    1.4168   22.3788 F   0  0  0  0  0  0  0  0  0  0  0  0
    8.2121    1.8920   21.4760 H   0  0  0  0  0  0  0  0  0  0  0  0
    9.2562   -0.1078   20.4248 H   0  0  0  0  0  0  0  0  0  0  0  0
    9.2160   -0.9727   21.9498 H   0  0  0  0  0  0  0  0  0  0  0  0
    6.6618   -0.0214   19.9146 C   0  0  0  0  0  0  0  0  0  0  0  0
    5.4481    0.6375   20.1633 C   0  0  0  0  0  0  0  0  0  0  0  0
    4.8192    1.3083   19.1097 C   0  0  0  0  0  0  0  0  0  0  0  0
    5.4165    1.2931   17.8447 C   0  0  0  0  0  0  0  0  0  0  0  0
    6.5814    0.6789   17.5870 N   0  0  0  0  0  0  0  0  0  0  0  0
    7.1901    0.0528   18.6031 C   0  0  0  0  0  0  0  0  0  0  0  0
    8.1335   -0.4395   18.3662 H   0  0  0  0  0  0  0  0  0  0  0  0
    4.9442    1.7875   17.0021 H   0  0  0  0  0  0  0  0  0  0  0  0
    3.8838    1.8369   19.2536 H   0  0  0  0  0  0  0  0  0  0  0  0
    5.0184    0.6055   21.1647 H   0  0  0  0  0  0  0  0  0  0  0  0
    7.6316   -1.4288   23.3154 H   0  0  0  0  0  0  0  0  0  0  0  0
    5.5754   -3.0115   24.0121 H   0  0  0  0  0  0  0  0  0  0  0  0
    6.3019   -4.0679   22.8330 H   0  0  0  0  0  0  0  0  0  0  0  0
    7.0461   -4.6681   25.7282 C   0  0  0  0  0  0  0  0  0  0  0  0
    5.6904   -5.0455   26.1904 C   0  0  0  0  0  0  0  0  0  0  0  0
    5.1500   -4.1116   26.9936 F   0  0  0  0  0  0  0  0  0  0  0  0
    5.6799   -6.2061   26.8746 F   0  0  0  0  0  0  0  0  0  0  0  0
    4.8657   -5.1994   25.1352 F   0  0  0  0  0  0  0  0  0  0  0  0
    7.7174   -5.3242   28.3851 H   0  0  0  0  0  0  0  0  0  0  0  0
    8.2455   -6.7519   27.4501 H   0  0  0  0  0  0  0  0  0  0  0  0
    9.4368   -5.5011   27.9235 H   0  0  0  0  0  0  0  0  0  0  0  0
  1  2  1  0
  2  3  1  0
  3  4  2  0
  4  5  1  0
  5  6  1  0
  6  7  1  0
  7  8  1  0
  8  9  2  0
  8 10  1  0
 10 11  1  0
 11 12  1  0
 12 13  1  0
 12 14  1  0
 12 15  1  0
 11 16  1  0
 11 17  1  0
 10 18  1  0
 18 19  2  0
 19 20  1  0
 20 21  2  0
 21 22  1  0
 22 23  2  0
 23 24  1  0
 21 25  1  0
 20 26  1  0
 19 27  1  0
  7 28  1  0
  6 29  1  0
  6 30  1  0
  5 31  2  0
 31 32  1  0
 32 33  1  0
 32 34  1  0
 32 35  1  0
  1 36  1  0
  1 37  1  0
  1 38  1  0
 31  2  1  0
 23 18  1  0
M  END
>  <cnnaffinity>  (1) 
-5.46549

>  <filename>  (1) 
Cn1nnc(CNC(=O)N(CC(F)F)c2cccnc2)c1C(F)(F)F

$$$$
