
     RDKit          3D

 36 39  0  0  0  0  0  0  0  0999 V2000
    8.8210    2.8288   24.1579 C   0  0  0  0  0  0  0  0  0  0  0  0
    8.8078    1.8208   23.0827 N   0  0  0  0  0  0  0  0  0  0  0  0
    7.7484    1.0409   22.7564 N   0  0  0  0  0  0  0  0  0  0  0  0
    8.2186    0.3047   21.7756 C   0  0  0  0  0  0  0  0  0  0  0  0
    7.3886   -0.6780   20.9836 C   0  0  0  0  0  0  0  0  0  0  0  0
    6.6532   -0.0143   19.8282 C   0  0  0  0  0  0  0  0  0  0  0  0
    5.4479    0.6406   20.0752 C   0  0  0  0  0  0  0  0  0  0  0  0
    4.8295    1.2991   19.0137 C   0  0  0  0  0  0  0  0  0  0  0  0
    5.4148    1.2782   17.7428 C   0  0  0  0  0  0  0  0  0  0  0  0
    6.5552    0.6091   17.4850 N   0  0  0  0  0  0  0  0  0  0  0  0
    7.1602   -0.0224   18.5104 C   0  0  0  0  0  0  0  0  0  0  0  0
    8.0899   -0.5509   18.3140 H   0  0  0  0  0  0  0  0  0  0  0  0
    4.9246    1.8188   16.9384 H   0  0  0  0  0  0  0  0  0  0  0  0
    3.9103    1.8509   19.1722 H   0  0  0  0  0  0  0  0  0  0  0  0
    5.0244    0.6466   21.0788 H   0  0  0  0  0  0  0  0  0  0  0  0
    6.6688   -1.1611   21.6495 H   0  0  0  0  0  0  0  0  0  0  0  0
    8.0541   -1.4522   20.6023 H   0  0  0  0  0  0  0  0  0  0  0  0
    9.5545    0.5304   21.4712 N   0  0  0  0  0  0  0  0  0  0  0  0
    9.8879    1.5003   22.2720 C   0  0  0  0  0  0  0  0  0  0  0  0
   11.1882    2.1682   22.3178 C   0  0  0  0  0  0  0  0  0  0  0  0
   11.2694    3.5542   22.3441 C   0  0  0  0  0  0  0  0  0  0  0  0
   12.5737    4.2192   22.4971 C   0  0  0  0  0  0  0  0  0  0  0  0
   13.7171    3.4636   22.6775 C   0  0  0  0  0  0  0  0  0  0  0  0
   13.6230    2.0705   22.7313 N   0  0  0  0  0  0  0  0  0  0  0  0
   14.6657    1.2208   22.9289 N   0  0  0  0  0  0  0  0  0  0  0  0
   14.1576    0.0258   22.7514 C   0  0  0  0  0  0  0  0  0  0  0  0
   12.7527    0.0845   22.4175 C   0  0  0  0  0  0  0  0  0  0  0  0
   11.6402   -1.4080   21.9697 Br  0  0  0  0  0  0  0  0  0  0  0  0
   12.4313    1.4052   22.4635 C   0  0  0  0  0  0  0  0  0  0  0  0
   14.6989   -0.9026   22.8795 H   0  0  0  0  0  0  0  0  0  0  0  0
   14.6908    3.9330   22.7437 H   0  0  0  0  0  0  0  0  0  0  0  0
   12.6451    5.2986   22.4510 H   0  0  0  0  0  0  0  0  0  0  0  0
   10.3709    4.1592   22.2689 H   0  0  0  0  0  0  0  0  0  0  0  0
    8.0855    2.5743   24.9277 H   0  0  0  0  0  0  0  0  0  0  0  0
    9.8091    2.8862   24.6352 H   0  0  0  0  0  0  0  0  0  0  0  0
    8.5667    3.8094   23.7457 H   0  0  0  0  0  0  0  0  0  0  0  0
  1  2  1  0
  2  3  1  0
  3  4  2  0
  4  5  1  0
  5  6  1  0
  6  7  2  0
  7  8  1  0
  8  9  2  0
  9 10  1  0
 10 11  2  0
 11 12  1  0
  9 13  1  0
  8 14  1  0
  7 15  1  0
  5 16  1  0
  5 17  1  0
  4 18  1  0
 18 19  2  0
 19 20  1  0
 20 21  2  0
 21 22  1  0
 22 23  2  0
 23 24  1  0
 24 25  1  0
 25 26  2  0
 26 27  1  0
 27 28  1  0
 27 29  2  0
 26 30  1  0
 23 31  1  0
 22 32  1  0
 21 33  1  0
  1 34  1  0
  1 35  1  0
  1 36  1  0
 19  2  1  0
 29 20  1  0
 11  6  1  0
 29 24  1  0
M  END
>  <cnnaffinity>  (1) 
-6.36425

>  <filename>  (1) 
Cn1nc(Cc2cccnc2)nc1-c1cccn2ncc(Br)c12

$$$$
