
     RDKit          3D

 35 37  0  0  0  0  0  0  0  0999 V2000
    4.9637    1.8222   16.9695 H   0  0  0  0  0  0  0  0  0  0  0  0
    5.4048    1.2998   17.8144 C   0  0  0  0  0  0  0  0  0  0  0  0
    6.5431    0.6308   17.5675 N   0  0  0  0  0  0  0  0  0  0  0  0
    7.1187    0.0022   18.5943 C   0  0  0  0  0  0  0  0  0  0  0  0
    8.0244   -0.5569   18.3600 H   0  0  0  0  0  0  0  0  0  0  0  0
    6.6239    0.0419   19.9128 C   0  0  0  0  0  0  0  0  0  0  0  0
    7.3875   -0.5788   20.9943 C   0  0  0  0  0  0  0  0  0  0  0  0
    7.9478   -1.7709   20.8155 N   0  0  0  0  0  0  0  0  0  0  0  0
    8.5281   -2.0132   21.9881 N   0  0  0  0  0  0  0  0  0  0  0  0
    8.4424   -1.0296   22.8892 C   0  0  0  0  0  0  0  0  0  0  0  0
    7.6757   -0.0411   22.2926 C   0  0  0  0  0  0  0  0  0  0  0  0
    7.2573    1.2736   22.9262 C   0  0  0  0  0  0  0  0  0  0  0  0
    6.8297    1.9481   22.1815 H   0  0  0  0  0  0  0  0  0  0  0  0
    8.1354    1.8020   23.3213 H   0  0  0  0  0  0  0  0  0  0  0  0
    6.2535    1.1193   24.0789 C   0  0  0  0  0  0  0  0  0  0  0  0
    5.0470    1.2184   23.9411 O   0  0  0  0  0  0  0  0  0  0  0  0
    6.8405    0.8587   25.2769 N   0  0  0  0  0  0  0  0  0  0  0  0
    7.8411    0.8940   25.2910 H   0  0  0  0  0  0  0  0  0  0  0  0
    6.1126    0.6797   26.5186 C   0  0  0  0  0  0  0  0  0  0  0  0
    6.8304    0.6484   27.3412 H   0  0  0  0  0  0  0  0  0  0  0  0
    5.5388   -0.2537   26.5180 H   0  0  0  0  0  0  0  0  0  0  0  0
    5.4167    1.5082   26.6828 H   0  0  0  0  0  0  0  0  0  0  0  0
    9.2798   -1.3826   24.0945 C   0  0  0  0  0  0  0  0  0  0  0  0
    8.6455   -1.5431   24.9734 H   0  0  0  0  0  0  0  0  0  0  0  0
   10.0105   -0.6003   24.3292 H   0  0  0  0  0  0  0  0  0  0  0  0
    9.9876   -2.7075   23.6788 C   0  0  0  0  0  0  0  0  0  0  0  0
   11.0690   -2.5928   23.6414 H   0  0  0  0  0  0  0  0  0  0  0  0
    9.7692   -3.5098   24.3834 H   0  0  0  0  0  0  0  0  0  0  0  0
    9.4789   -3.0549   22.2600 C   0  0  0  0  0  0  0  0  0  0  0  0
   10.2729   -2.9598   21.5177 H   0  0  0  0  0  0  0  0  0  0  0  0
    8.9920   -4.0293   22.1927 H   0  0  0  0  0  0  0  0  0  0  0  0
    5.4027    0.6941   20.1420 C   0  0  0  0  0  0  0  0  0  0  0  0
    4.9529    0.6890   21.1410 H   0  0  0  0  0  0  0  0  0  0  0  0
    4.7868    1.3296   19.0696 C   0  0  0  0  0  0  0  0  0  0  0  0
    3.8460    1.8513   19.1940 H   0  0  0  0  0  0  0  0  0  0  0  0
  1  2  1  0
  2  3  2  0
  3  4  1  0
  4  5  1  0
  4  6  2  0
  6  7  1  0
  7  8  2  0
  8  9  1  0
  9 10  1  0
 10 11  2  0
 11 12  1  0
 12 13  1  0
 12 14  1  0
 12 15  1  0
 15 16  2  0
 15 17  1  0
 17 18  1  0
 17 19  1  0
 19 20  1  0
 19 21  1  0
 19 22  1  0
 10 23  1  0
 23 24  1  0
 23 25  1  0
 23 26  1  0
 26 27  1  0
 26 28  1  0
 26 29  1  0
 29 30  1  0
 29 31  1  0
  6 32  1  0
 32 33  1  0
 32 34  2  0
 34 35  1  0
 34  2  1  0
 11  7  1  0
 29  9  1  0
M  END
>  <cnnaffinity>  (1) 
-5.04919

>  <filename>  (1) 
CNC(=O)Cc1c(-c2cccnc2)nn2c1CCC2

$$$$
