
     RDKit          3D

 52 57  0  0  0  0  0  0  0  0999 V2000
    8.3692    8.3894   27.4408 C   0  0  0  0  0  0  0  0  0  0  0  0
    8.3657    7.3092   26.4726 N   0  0  0  0  0  0  0  0  0  0  0  0
    8.2247    6.0027   26.8275 C   0  0  0  0  0  0  0  0  0  0  0  0
    8.0491    5.6755   27.9952 O   0  0  0  0  0  0  0  0  0  0  0  0
    8.3315    4.9895   25.7083 C   0  0  0  0  0  0  0  0  0  0  0  0
    8.4120    3.6299   26.0662 C   0  0  0  0  0  0  0  0  0  0  0  0
    8.5901    2.6427   25.1025 C   0  0  0  0  0  0  0  0  0  0  0  0
    8.6855    2.9895   23.7506 C   0  0  0  0  0  0  0  0  0  0  0  0
    8.8429    1.9541   22.7703 N   0  0  0  0  0  0  0  0  0  0  0  0
    7.7939    1.1174   22.5260 N   0  0  0  0  0  0  0  0  0  0  0  0
    8.1856    0.4442   21.4682 C   0  0  0  0  0  0  0  0  0  0  0  0
    7.3070   -0.5775   20.8055 C   0  0  0  0  0  0  0  0  0  0  0  0
    6.5406   -0.0071   19.6194 C   0  0  0  0  0  0  0  0  0  0  0  0
    5.3898    0.7654   19.8258 C   0  0  0  0  0  0  0  0  0  0  0  0
    4.7852    1.3801   18.7280 C   0  0  0  0  0  0  0  0  0  0  0  0
    5.3599    1.2108   17.4649 C   0  0  0  0  0  0  0  0  0  0  0  0
    6.4541    0.4673   17.2409 N   0  0  0  0  0  0  0  0  0  0  0  0
    7.0140   -0.1274   18.3012 C   0  0  0  0  0  0  0  0  0  0  0  0
    7.8915   -0.7440   18.0990 H   0  0  0  0  0  0  0  0  0  0  0  0
    4.9260    1.6883   16.5902 H   0  0  0  0  0  0  0  0  0  0  0  0
    3.9023    2.0013   18.8387 H   0  0  0  0  0  0  0  0  0  0  0  0
    4.9843    0.8865   20.8336 H   0  0  0  0  0  0  0  0  0  0  0  0
    7.9530   -1.4049   20.4927 H   0  0  0  0  0  0  0  0  0  0  0  0
    6.6126   -0.9476   21.5694 H   0  0  0  0  0  0  0  0  0  0  0  0
    9.4260    0.7551   21.0217 N   0  0  0  0  0  0  0  0  0  0  0  0
    9.8455    1.6731   21.8823 C   0  0  0  0  0  0  0  0  0  0  0  0
   11.2630    2.0988   21.8657 C   0  0  0  0  0  0  0  0  0  0  0  0
   12.2121    1.8194   23.0460 C   0  0  0  0  0  0  0  0  0  0  0  0
   13.2797    0.8167   23.2677 C   0  0  0  0  0  0  0  0  0  0  0  0
   12.1565    1.0143   24.2898 C   0  0  0  0  0  0  0  0  0  0  0  0
   11.3750    0.2621   24.3904 H   0  0  0  0  0  0  0  0  0  0  0  0
   12.4107    1.5667   25.1904 H   0  0  0  0  0  0  0  0  0  0  0  0
   14.2687    1.1891   23.5215 H   0  0  0  0  0  0  0  0  0  0  0  0
   13.2670   -0.0720   22.6395 H   0  0  0  0  0  0  0  0  0  0  0  0
   11.9926    3.2168   22.6239 C   0  0  0  0  0  0  0  0  0  0  0  0
   12.9422    4.3319   22.3702 C   0  0  0  0  0  0  0  0  0  0  0  0
   11.7046    4.5314   23.2454 C   0  0  0  0  0  0  0  0  0  0  0  0
   11.7934    4.5894   24.3319 H   0  0  0  0  0  0  0  0  0  0  0  0
   10.8808    5.0782   22.8036 H   0  0  0  0  0  0  0  0  0  0  0  0
   13.9056    4.2239   22.8679 H   0  0  0  0  0  0  0  0  0  0  0  0
   12.9784    4.8257   21.3999 H   0  0  0  0  0  0  0  0  0  0  0  0
   11.7044    1.8664   20.8957 H   0  0  0  0  0  0  0  0  0  0  0  0
    8.5397    4.3289   23.3644 C   0  0  0  0  0  0  0  0  0  0  0  0
    8.3744    5.3157   24.3360 C   0  0  0  0  0  0  0  0  0  0  0  0
    8.2558    6.3327   23.9732 H   0  0  0  0  0  0  0  0  0  0  0  0
    8.5726    4.5982   22.3100 H   0  0  0  0  0  0  0  0  0  0  0  0
    8.6443    1.5969   25.3889 H   0  0  0  0  0  0  0  0  0  0  0  0
    8.3122    3.3547   27.1150 H   0  0  0  0  0  0  0  0  0  0  0  0
    8.6627    7.4934   25.5336 H   0  0  0  0  0  0  0  0  0  0  0  0
    8.5001    9.3339   26.9078 H   0  0  0  0  0  0  0  0  0  0  0  0
    7.4223    8.4204   27.9900 H   0  0  0  0  0  0  0  0  0  0  0  0
    9.1753    8.2768   28.1762 H   0  0  0  0  0  0  0  0  0  0  0  0
  1  2  1  0
  2  3  1  0
  3  4  2  0
  3  5  1  0
  5  6  2  0
  6  7  1  0
  7  8  2  0
  8  9  1  0
  9 10  1  0
 10 11  2  0
 11 12  1  0
 12 13  1  0
 13 14  2  0
 14 15  1  0
 15 16  2  0
 16 17  1  0
 17 18  2  0
 18 19  1  0
 16 20  1  0
 15 21  1  0
 14 22  1  0
 12 23  1  0
 12 24  1  0
 11 25  1  0
 25 26  2  0
 26 27  1  0
 27 28  1  0
 28 29  1  0
 29 30  1  0
 30 31  1  0
 30 32  1  0
 29 33  1  0
 29 34  1  0
 28 35  1  0
 35 36  1  0
 36 37  1  0
 37 38  1  0
 37 39  1  0
 36 40  1  0
 36 41  1  0
 27 42  1  0
  8 43  1  0
 43 44  2  0
 44 45  1  0
 43 46  1  0
  7 47  1  0
  6 48  1  0
  2 49  1  0
  1 50  1  0
  1 51  1  0
  1 52  1  0
 44  5  1  0
 26  9  1  0
 35 27  1  0
 18 13  1  0
 30 28  1  0
 37 35  1  0
M  END
>  <cnnaffinity>  (1) 
-6.07713

>  <filename>  (1) 
CNC(=O)c1ccc(-n2nc(Cc3cccnc3)nc2C2C3(CC3)C23CC3)cc1

$$$$
