
     RDKit          3D

 26 27  0  0  0  0  0  0  0  0999 V2000
    4.9472    1.7972   17.0051 H   0  0  0  0  0  0  0  0  0  0  0  0
    5.4038    1.2707   17.8399 C   0  0  0  0  0  0  0  0  0  0  0  0
    6.5583    0.6400   17.5739 N   0  0  0  0  0  0  0  0  0  0  0  0
    7.1944    0.0383   18.5868 C   0  0  0  0  0  0  0  0  0  0  0  0
    8.1584   -0.4154   18.3708 H   0  0  0  0  0  0  0  0  0  0  0  0
    6.6920   -0.0094   19.9038 C   0  0  0  0  0  0  0  0  0  0  0  0
    7.4230   -0.6803   20.9515 N   0  0  0  0  0  0  0  0  0  0  0  0
    7.0151   -1.7942   21.6939 C   0  0  0  0  0  0  0  0  0  0  0  0
    5.7088   -2.5161   21.4381 C   0  0  0  0  0  0  0  0  0  0  0  0
    4.9466   -1.7373   21.3927 H   0  0  0  0  0  0  0  0  0  0  0  0
    5.4857   -3.1312   22.3169 H   0  0  0  0  0  0  0  0  0  0  0  0
    5.5882   -3.3801   20.2464 N   0  0  0  0  0  0  0  0  0  0  0  0
    5.7944   -2.8325   19.4074 H   0  0  0  0  0  0  0  0  0  0  0  0
    6.5012   -4.5225   20.3364 C   0  0  0  0  0  0  0  0  0  0  0  0
    6.1352   -5.2132   21.1073 H   0  0  0  0  0  0  0  0  0  0  0  0
    6.5172   -5.0656   19.3894 H   0  0  0  0  0  0  0  0  0  0  0  0
    7.5390   -4.2468   20.5941 H   0  0  0  0  0  0  0  0  0  0  0  0
    7.8933   -2.1160   22.5964 N   0  0  0  0  0  0  0  0  0  0  0  0
    8.8873   -1.2049   22.4097 N   0  0  0  0  0  0  0  0  0  0  0  0
    9.7745   -1.2350   22.8860 H   0  0  0  0  0  0  0  0  0  0  0  0
    8.6798   -0.3200   21.4211 C   0  0  0  0  0  0  0  0  0  0  0  0
    9.7287    0.8694   20.9206 S   0  0  0  0  0  0  0  0  0  0  0  0
    5.4774    0.6389   20.1673 C   0  0  0  0  0  0  0  0  0  0  0  0
    5.0824    0.6542   21.1867 H   0  0  0  0  0  0  0  0  0  0  0  0
    4.8203    1.2933   19.1131 C   0  0  0  0  0  0  0  0  0  0  0  0
    3.8880    1.8332   19.2662 H   0  0  0  0  0  0  0  0  0  0  0  0
  1  2  1  0
  2  3  2  0
  3  4  1  0
  4  5  1  0
  4  6  2  0
  6  7  1  0
  7  8  1  0
  8  9  1  0
  9 10  1  0
  9 11  1  0
  9 12  1  0
 12 13  1  0
 12 14  1  0
 14 15  1  0
 14 16  1  0
 14 17  1  0
  8 18  2  0
 18 19  1  0
 19 20  1  0
 19 21  1  0
 21 22  2  0
  6 23  1  0
 23 24  1  0
 23 25  2  0
 25 26  1  0
 25  2  1  0
 21  7  1  0
M  END
>  <cnnaffinity>  (1) 
-4.0941

>  <filename>  (1) 
CNCc1n[nH]c(=S)n1-c1cccnc1

$$$$
