
     RDKit          3D

 31 32  0  0  0  0  0  0  0  0999 V2000
    5.0999    1.8468   17.0433 H   0  0  0  0  0  0  0  0  0  0  0  0
    5.5841    1.3003   17.8533 C   0  0  0  0  0  0  0  0  0  0  0  0
    6.7679    0.7311   17.5753 N   0  0  0  0  0  0  0  0  0  0  0  0
    7.3871    0.0592   18.5578 C   0  0  0  0  0  0  0  0  0  0  0  0
    8.3405   -0.3895   18.2906 H   0  0  0  0  0  0  0  0  0  0  0  0
    6.8567   -0.1171   19.8582 C   0  0  0  0  0  0  0  0  0  0  0  0
    7.4781   -0.8786   20.8873 N   0  0  0  0  0  0  0  0  0  0  0  0
    6.7669   -1.7911   21.6565 C   0  0  0  0  0  0  0  0  0  0  0  0
    5.6282   -2.1685   21.5329 O   0  0  0  0  0  0  0  0  0  0  0  0
    7.6312   -2.2955   22.5956 N   0  0  0  0  0  0  0  0  0  0  0  0
    7.3699   -3.1069   23.1220 H   0  0  0  0  0  0  0  0  0  0  0  0
    8.9191   -1.9236   22.3839 C   0  0  0  0  0  0  0  0  0  0  0  0
    9.8705   -2.4074   22.9470 O   0  0  0  0  0  0  0  0  0  0  0  0
    8.8955   -0.8595   21.2753 C   0  0  2  0  0  0  0  0  0  0  0  0
    9.5181   -1.2625   20.4688 H   0  0  0  0  0  0  0  0  0  0  0  0
    9.4370    0.5311   21.6348 C   0  0  0  0  0  0  0  0  0  0  0  0
    8.7583    1.0369   22.3265 H   0  0  0  0  0  0  0  0  0  0  0  0
    9.4240    1.1209   20.7140 H   0  0  0  0  0  0  0  0  0  0  0  0
   10.8717    0.4776   22.1931 C   0  0  0  0  0  0  0  0  0  0  0  0
   10.8402    0.0173   23.1839 H   0  0  0  0  0  0  0  0  0  0  0  0
   11.4686   -0.2025   21.5690 H   0  0  0  0  0  0  0  0  0  0  0  0
   11.6018    1.7301   22.3188 N   0  0  0  0  0  0  0  0  0  0  0  0
   11.2828    2.2543   23.1266 H   0  0  0  0  0  0  0  0  0  0  0  0
   11.5875    2.5863   21.1464 C   0  0  0  0  0  0  0  0  0  0  0  0
   10.5707    2.8234   20.7912 H   0  0  0  0  0  0  0  0  0  0  0  0
   12.1208    3.5160   21.3784 H   0  0  0  0  0  0  0  0  0  0  0  0
   12.1090    2.1069   20.3116 H   0  0  0  0  0  0  0  0  0  0  0  0
    5.6104    0.4764   20.1211 C   0  0  0  0  0  0  0  0  0  0  0  0
    5.1558    0.3451   21.1013 H   0  0  0  0  0  0  0  0  0  0  0  0
    4.9749    1.2012   19.1099 C   0  0  0  0  0  0  0  0  0  0  0  0
    4.0156    1.6801   19.2849 H   0  0  0  0  0  0  0  0  0  0  0  0
  1  2  1  0
  2  3  2  0
  3  4  1  0
  4  5  1  0
  4  6  2  0
  6  7  1  0
  7  8  1  0
  8  9  2  0
  8 10  1  0
 10 11  1  0
 10 12  1  0
 12 13  2  0
 12 14  1  0
 14 15  1  6
 14 16  1  0
 16 17  1  0
 16 18  1  0
 16 19  1  0
 19 20  1  0
 19 21  1  0
 19 22  1  0
 22 23  1  0
 22 24  1  0
 24 25  1  0
 24 26  1  0
 24 27  1  0
  6 28  1  0
 28 29  1  0
 28 30  2  0
 30 31  1  0
 30  2  1  0
 14  7  1  0
M  END
>  <cnnaffinity>  (1) 
-4.47185

>  <filename>  (1) 
CNCC[C@H]1C(=O)NC(=O)N1c1cccnc1

$$$$
