
     RDKit          3D

 29 30  0  0  0  0  0  0  0  0999 V2000
    4.9060    1.7755   17.0019 H   0  0  0  0  0  0  0  0  0  0  0  0
    5.3993    1.2943   17.8418 C   0  0  0  0  0  0  0  0  0  0  0  0
    6.5661    0.6824   17.5767 N   0  0  0  0  0  0  0  0  0  0  0  0
    7.1833    0.0656   18.5933 C   0  0  0  0  0  0  0  0  0  0  0  0
    8.1267   -0.4377   18.3796 H   0  0  0  0  0  0  0  0  0  0  0  0
    6.6747    0.0144   19.9078 C   0  0  0  0  0  0  0  0  0  0  0  0
    7.3647   -0.6749   20.9573 N   0  0  0  0  0  0  0  0  0  0  0  0
    8.6454   -0.4600   21.4593 C   0  0  0  0  0  0  0  0  0  0  0  0
    9.5352    0.6285   20.9711 C   0  0  0  0  0  0  0  0  0  0  0  0
   10.5273    0.4337   21.3809 H   0  0  0  0  0  0  0  0  0  0  0  0
    9.6155    0.5979   19.8844 H   0  0  0  0  0  0  0  0  0  0  0  0
    9.0339    2.0124   21.3987 C   0  0  0  0  0  0  0  0  0  0  0  0
    8.0811    2.2394   20.9027 H   0  0  0  0  0  0  0  0  0  0  0  0
    9.7437    2.7704   21.0433 H   0  0  0  0  0  0  0  0  0  0  0  0
    8.8780    2.1743   22.8350 N   0  0  0  0  0  0  0  0  0  0  0  0
    8.2456    1.4613   23.1926 H   0  0  0  0  0  0  0  0  0  0  0  0
   10.1249    2.1160   23.5865 C   0  0  0  0  0  0  0  0  0  0  0  0
   10.8631    2.7970   23.1411 H   0  0  0  0  0  0  0  0  0  0  0  0
   10.5583    1.1034   23.6165 H   0  0  0  0  0  0  0  0  0  0  0  0
    9.9621    2.4514   24.6163 H   0  0  0  0  0  0  0  0  0  0  0  0
    8.9263   -1.2514   22.4452 N   0  0  0  0  0  0  0  0  0  0  0  0
    7.7802   -2.0026   22.5978 N   0  0  0  0  0  0  0  0  0  0  0  0
    7.6665   -2.7098   23.3007 H   0  0  0  0  0  0  0  0  0  0  0  0
    6.7787   -1.6957   21.7290 C   0  0  0  0  0  0  0  0  0  0  0  0
    5.6732   -2.1965   21.6161 O   0  0  0  0  0  0  0  0  0  0  0  0
    5.4511    0.6474   20.1638 C   0  0  0  0  0  0  0  0  0  0  0  0
    5.0160    0.6154   21.1630 H   0  0  0  0  0  0  0  0  0  0  0  0
    4.8096    1.3115   19.1114 C   0  0  0  0  0  0  0  0  0  0  0  0
    3.8735    1.8439   19.2670 H   0  0  0  0  0  0  0  0  0  0  0  0
  1  2  1  0
  2  3  2  0
  3  4  1  0
  4  5  1  0
  4  6  2  0
  6  7  1  0
  7  8  1  0
  8  9  1  0
  9 10  1  0
  9 11  1  0
  9 12  1  0
 12 13  1  0
 12 14  1  0
 12 15  1  0
 15 16  1  0
 15 17  1  0
 17 18  1  0
 17 19  1  0
 17 20  1  0
  8 21  2  0
 21 22  1  0
 22 23  1  0
 22 24  1  0
 24 25  2  0
  6 26  1  0
 26 27  1  0
 26 28  2  0
 28 29  1  0
 28  2  1  0
 24  7  1  0
M  END
>  <cnnaffinity>  (1) 
-4.33023

>  <filename>  (1) 
CNCCc1n[nH]c(=O)n1-c1cccnc1

$$$$
