
     RDKit          3D

 41 42  0  0  0  0  0  0  0  0999 V2000
    8.7956    1.3951   21.8788 C   0  0  0  0  0  0  0  0  0  0  0  0
    8.9494    0.0765   21.3868 O   0  0  0  0  0  0  0  0  0  0  0  0
    7.7550   -0.6658   21.2566 C   0  0  0  0  0  0  0  0  0  0  0  0
    8.0686   -2.2210   21.2096 C   0  0  0  0  0  0  0  0  0  0  0  0
    9.1811   -2.6742   21.0281 O   0  0  0  0  0  0  0  0  0  0  0  0
    6.9665   -3.0656   21.3859 N   0  0  0  0  0  0  0  0  0  0  0  0
    5.6148   -2.6799   20.9847 C   0  0  0  0  0  0  0  0  0  0  0  0
    5.2650   -1.8358   21.5848 H   0  0  0  0  0  0  0  0  0  0  0  0
    4.9271   -3.5096   21.1647 H   0  0  0  0  0  0  0  0  0  0  0  0
    5.5567   -2.4008   19.9230 H   0  0  0  0  0  0  0  0  0  0  0  0
    7.1753   -4.4776   21.7599 C   0  0  0  0  0  0  0  0  0  0  0  0
    6.7709   -4.8071   23.2050 C   0  0  0  0  0  0  0  0  0  0  0  0
    7.5151   -4.2195   24.2440 C   0  0  0  0  0  0  0  0  0  0  0  0
    8.5133   -3.3624   23.9357 F   0  0  0  0  0  0  0  0  0  0  0  0
    7.3057   -4.5049   25.5915 C   0  0  0  0  0  0  0  0  0  0  0  0
    6.3294   -5.4363   25.9362 C   0  0  0  0  0  0  0  0  0  0  0  0
    5.5438   -6.0261   24.9462 C   0  0  0  0  0  0  0  0  0  0  0  0
    5.7351   -5.7067   23.5881 C   0  0  0  0  0  0  0  0  0  0  0  0
    4.7459   -6.3165   22.5858 C   0  0  0  0  0  0  0  0  0  0  0  0
    4.0042   -7.3049   23.1190 F   0  0  0  0  0  0  0  0  0  0  0  0
    5.3455   -6.8428   21.4968 F   0  0  0  0  0  0  0  0  0  0  0  0
    3.8609   -5.4046   22.1281 F   0  0  0  0  0  0  0  0  0  0  0  0
    4.7931   -6.7565   25.2333 H   0  0  0  0  0  0  0  0  0  0  0  0
    6.1718   -5.7015   26.9795 H   0  0  0  0  0  0  0  0  0  0  0  0
    7.9196   -4.0021   26.3327 H   0  0  0  0  0  0  0  0  0  0  0  0
    8.2440   -4.6903   21.6369 H   0  0  0  0  0  0  0  0  0  0  0  0
    6.6269   -5.1254   21.0682 H   0  0  0  0  0  0  0  0  0  0  0  0
    6.9724   -0.1134   20.0594 C   0  0  0  0  0  0  0  0  0  0  0  0
    5.7882    0.6146   20.2346 C   0  0  0  0  0  0  0  0  0  0  0  0
    5.1521    1.1461   19.1098 C   0  0  0  0  0  0  0  0  0  0  0  0
    5.7419    0.9506   17.8563 C   0  0  0  0  0  0  0  0  0  0  0  0
    6.8992    0.2972   17.6730 N   0  0  0  0  0  0  0  0  0  0  0  0
    7.5047   -0.1976   18.7630 C   0  0  0  0  0  0  0  0  0  0  0  0
    8.4633   -0.6943   18.6106 H   0  0  0  0  0  0  0  0  0  0  0  0
    5.2546    1.3278   16.9611 H   0  0  0  0  0  0  0  0  0  0  0  0
    4.2326    1.7122   19.1986 H   0  0  0  0  0  0  0  0  0  0  0  0
    5.3900    0.7803   21.2386 H   0  0  0  0  0  0  0  0  0  0  0  0
    7.1424   -0.5408   22.1674 H   0  0  0  0  0  0  0  0  0  0  0  0
    9.7674    1.8844   21.7746 H   0  0  0  0  0  0  0  0  0  0  0  0
    8.5059    1.3942   22.9400 H   0  0  0  0  0  0  0  0  0  0  0  0
    8.0574    1.9808   21.3118 H   0  0  0  0  0  0  0  0  0  0  0  0
  1  2  1  0
  2  3  1  0
  3  4  1  0
  4  5  2  0
  4  6  1  0
  6  7  1  0
  7  8  1  0
  7  9  1  0
  7 10  1  0
  6 11  1  0
 11 12  1  0
 12 13  2  0
 13 14  1  0
 13 15  1  0
 15 16  2  0
 16 17  1  0
 17 18  2  0
 18 19  1  0
 19 20  1  0
 19 21  1  0
 19 22  1  0
 17 23  1  0
 16 24  1  0
 15 25  1  0
 11 26  1  0
 11 27  1  0
  3 28  1  0
 28 29  2  0
 29 30  1  0
 30 31  2  0
 31 32  1  0
 32 33  2  0
 33 34  1  0
 31 35  1  0
 30 36  1  0
 29 37  1  0
  3 38  1  0
  1 39  1  0
  1 40  1  0
  1 41  1  0
 18 12  1  0
 33 28  1  0
M  END
>  <cnnaffinity>  (1) 
-4.98481

>  <filename>  (1) 
COC(C(=O)N(C)Cc1c(F)cccc1C(F)(F)F)c1cccnc1

$$$$
