
     RDKit          3D

 45 48  0  0  0  0  0  0  0  0999 V2000
    8.1814   -5.3178   23.4604 C   0  0  0  0  0  0  0  0  0  0  0  0
    8.8019   -4.0568   23.6402 O   0  0  0  0  0  0  0  0  0  0  0  0
    9.1482   -3.3319   22.4322 C   0  0  0  0  0  0  0  0  0  0  0  0
   10.4695   -2.8579   22.5478 C   0  0  0  0  0  0  0  0  0  0  0  0
    9.6327   -0.4104   23.2913 H   0  0  0  0  0  0  0  0  0  0  0  0
   11.1566   -3.2384   23.2864 H   0  0  0  0  0  0  0  0  0  0  0  0
   10.8479   -2.2030   21.7724 H   0  0  0  0  0  0  0  0  0  0  0  0
    8.2250   -2.1104   22.0765 C   0  0  0  0  0  0  0  0  0  0  0  0
    7.6749   -1.9122   20.8977 N   0  0  0  0  0  0  0  0  0  0  0  0
    7.1502   -0.6495   21.0147 N   0  0  0  0  0  0  0  0  0  0  0  0
    6.5196   -0.0098   19.9182 C   0  0  0  0  0  0  0  0  0  0  0  0
    5.3309    0.6995   20.1048 C   0  0  0  0  0  0  0  0  0  0  0  0
    4.7768    1.3511   19.0003 C   0  0  0  0  0  0  0  0  0  0  0  0
    5.4364    1.2796   17.7693 C   0  0  0  0  0  0  0  0  0  0  0  0
    6.5793    0.5961   17.5868 N   0  0  0  0  0  0  0  0  0  0  0  0
    7.1020   -0.0446   18.6368 C   0  0  0  0  0  0  0  0  0  0  0  0
    8.0273   -0.5929   18.4737 H   0  0  0  0  0  0  0  0  0  0  0  0
    5.0223    1.7731   16.8920 H   0  0  0  0  0  0  0  0  0  0  0  0
    3.8589    1.9191   19.0929 H   0  0  0  0  0  0  0  0  0  0  0  0
    4.8813    0.7542   21.0970 H   0  0  0  0  0  0  0  0  0  0  0  0
    7.4186   -0.1599   22.2736 C   0  0  0  0  0  0  0  0  0  0  0  0
    7.1415    1.1606   22.8260 C   0  0  0  0  0  0  0  0  0  0  0  0
    7.4644    2.3460   22.1737 C   0  0  0  0  0  0  0  0  0  0  0  0
    7.1918    3.6007   22.7622 C   0  0  0  0  0  0  0  0  0  0  0  0
    6.5962    3.6810   24.0059 C   0  0  0  0  0  0  0  0  0  0  0  0
    6.2755    2.4943   24.7166 C   0  0  0  0  0  0  0  0  0  0  0  0
    5.6802    2.4968   26.0163 C   0  0  0  0  0  0  0  0  0  0  0  0
    5.4176    1.3003   26.6359 C   0  0  0  0  0  0  0  0  0  0  0  0
    5.7486    0.0758   25.9719 C   0  0  0  0  0  0  0  0  0  0  0  0
    5.4736   -1.2501   26.6319 C   0  0  0  0  0  0  0  0  0  0  0  0
    5.8734   -2.0581   26.0134 H   0  0  0  0  0  0  0  0  0  0  0  0
    5.9300   -1.3011   27.6261 H   0  0  0  0  0  0  0  0  0  0  0  0
    4.3953   -1.3952   26.7543 H   0  0  0  0  0  0  0  0  0  0  0  0
    6.2879    0.0370   24.7784 N   0  0  0  0  0  0  0  0  0  0  0  0
    6.5664    1.2084   24.1337 C   0  0  0  0  0  0  0  0  0  0  0  0
    4.9642    1.2540   27.6213 H   0  0  0  0  0  0  0  0  0  0  0  0
    5.4519    3.4488   26.4956 H   0  0  0  0  0  0  0  0  0  0  0  0
    6.3757    4.6417   24.4714 H   0  0  0  0  0  0  0  0  0  0  0  0
    7.4620    4.5128   22.2357 H   0  0  0  0  0  0  0  0  0  0  0  0
    7.9522    2.3156   21.2021 H   0  0  0  0  0  0  0  0  0  0  0  0
    8.1209   -1.0697   22.9332 N   0  0  0  0  0  0  0  0  0  0  0  0
    8.9310   -3.9753   21.5318 H   0  0  0  0  0  0  0  0  0  0  0  0
    8.0104   -5.7059   24.4695 H   0  0  0  0  0  0  0  0  0  0  0  0
    7.2174   -5.2320   22.9289 H   0  0  0  0  0  0  0  0  0  0  0  0
    8.8303   -6.0245   22.9137 H   0  0  0  0  0  0  0  0  0  0  0  0
  1  2  1  0
  2  3  1  0
  3  4  1  0
  4  5  1  0
  4  6  1  0
  4  7  1  0
  3  8  1  0
  8  9  2  0
  9 10  1  0
 10 11  1  0
 11 12  2  0
 12 13  1  0
 13 14  2  0
 14 15  1  0
 15 16  2  0
 16 17  1  0
 14 18  1  0
 13 19  1  0
 12 20  1  0
 10 21  1  0
 21 22  1  0
 22 23  2  0
 23 24  1  0
 24 25  2  0
 25 26  1  0
 26 27  2  0
 27 28  1  0
 28 29  2  0
 29 30  1  0
 30 31  1  0
 30 32  1  0
 30 33  1  0
 29 34  1  0
 34 35  2  0
 28 36  1  0
 27 37  1  0
 25 38  1  0
 24 39  1  0
 23 40  1  0
 21 41  2  0
  3 42  1  0
  1 43  1  0
  1 44  1  0
  1 45  1  0
 41  8  1  0
 16 11  1  0
 35 22  1  0
 35 26  1  0
M  END
>  <cnnaffinity>  (1) 
-5.96127

>  <filename>  (1) 
COC(C)c1nc(-c2cccc3ccc(C)nc23)n(-c2cccnc2)n1

$$$$
