
     RDKit          3D

 43 44  0  0  0  0  0  0  0  0999 V2000
   10.1371    1.5489   22.2925 C   0  0  0  0  0  0  0  0  0  0  0  0
    9.3635    0.5785   21.5670 O   0  0  0  0  0  0  0  0  0  0  0  0
    8.0914    0.3999   21.9629 C   0  0  0  0  0  0  0  0  0  0  0  0
    7.5568    1.0110   22.8590 O   0  0  0  0  0  0  0  0  0  0  0  0
    7.4159   -0.6848   21.0647 C   0  0  0  0  0  0  0  0  0  0  0  0
    6.4989   -1.5363   21.7974 O   0  0  0  0  0  0  0  0  0  0  0  0
    7.0149   -2.3948   22.7169 C   0  0  0  0  0  0  0  0  0  0  0  0
    8.2061   -2.5235   22.8884 O   0  0  0  0  0  0  0  0  0  0  0  0
    5.9350   -3.1070   23.4409 C   0  0  0  0  0  0  0  0  0  0  0  0
    6.1059   -3.9771   24.4495 C   0  0  0  0  0  0  0  0  0  0  0  0
    7.4692   -4.3713   24.9507 C   0  0  0  0  0  0  0  0  0  0  0  0
    8.0325   -3.5031   25.3102 H   0  0  0  0  0  0  0  0  0  0  0  0
    8.0545   -4.7940   24.1266 H   0  0  0  0  0  0  0  0  0  0  0  0
    7.3901   -5.1136   25.7518 H   0  0  0  0  0  0  0  0  0  0  0  0
    4.8939   -4.5854   25.1135 C   0  0  0  0  0  0  0  0  0  0  0  0
    4.5973   -4.2000   26.4330 C   0  0  0  0  0  0  0  0  0  0  0  0
    3.4924   -4.7069   27.1200 C   0  0  0  0  0  0  0  0  0  0  0  0
    2.6703   -5.6488   26.5011 C   0  0  0  0  0  0  0  0  0  0  0  0
    2.9626   -6.0815   25.2087 C   0  0  0  0  0  0  0  0  0  0  0  0
    4.0689   -5.5659   24.5077 C   0  0  0  0  0  0  0  0  0  0  0  0
    4.3673   -6.1020   23.1144 C   0  0  0  0  0  0  0  0  0  0  0  0
    5.6730   -6.3793   22.9335 F   0  0  0  0  0  0  0  0  0  0  0  0
    3.6940   -7.2355   22.8462 F   0  0  0  0  0  0  0  0  0  0  0  0
    4.0243   -5.2229   22.1476 F   0  0  0  0  0  0  0  0  0  0  0  0
    2.3333   -6.8419   24.7481 H   0  0  0  0  0  0  0  0  0  0  0  0
    1.8080   -6.0552   27.0223 H   0  0  0  0  0  0  0  0  0  0  0  0
    3.2777   -4.3813   28.1356 H   0  0  0  0  0  0  0  0  0  0  0  0
    5.2564   -3.4889   26.9176 H   0  0  0  0  0  0  0  0  0  0  0  0
    4.9383   -2.8800   23.0874 H   0  0  0  0  0  0  0  0  0  0  0  0
    6.6451   -0.0345   19.9248 C   0  0  0  0  0  0  0  0  0  0  0  0
    5.4309    0.6320   20.1617 C   0  0  0  0  0  0  0  0  0  0  0  0
    4.8028    1.2913   19.1038 C   0  0  0  0  0  0  0  0  0  0  0  0
    5.4139    1.2696   17.8455 C   0  0  0  0  0  0  0  0  0  0  0  0
    6.5674    0.6339   17.5902 N   0  0  0  0  0  0  0  0  0  0  0  0
    7.1599    0.0084   18.6180 C   0  0  0  0  0  0  0  0  0  0  0  0
    8.1120   -0.4699   18.3810 H   0  0  0  0  0  0  0  0  0  0  0  0
    4.9615    1.7947   17.0060 H   0  0  0  0  0  0  0  0  0  0  0  0
    3.8767    1.8415   19.2454 H   0  0  0  0  0  0  0  0  0  0  0  0
    5.0000    0.6393   21.1642 H   0  0  0  0  0  0  0  0  0  0  0  0
    8.2281   -1.2990   20.6674 H   0  0  0  0  0  0  0  0  0  0  0  0
   10.1812    1.2791   23.3507 H   0  0  0  0  0  0  0  0  0  0  0  0
   11.1316    1.5404   21.8444 H   0  0  0  0  0  0  0  0  0  0  0  0
    9.6792    2.5366   22.2027 H   0  0  0  0  0  0  0  0  0  0  0  0
  1  2  1  0
  2  3  1  0
  3  4  2  0
  3  5  1  0
  5  6  1  0
  6  7  1  0
  7  8  2  0
  7  9  1  0
  9 10  2  3
 10 11  1  0
 11 12  1  0
 11 13  1  0
 11 14  1  0
 10 15  1  0
 15 16  2  0
 16 17  1  0
 17 18  2  0
 18 19  1  0
 19 20  2  0
 20 21  1  0
 21 22  1  0
 21 23  1  0
 21 24  1  0
 19 25  1  0
 18 26  1  0
 17 27  1  0
 16 28  1  0
  9 29  1  0
  5 30  1  0
 30 31  2  0
 31 32  1  0
 32 33  2  0
 33 34  1  0
 34 35  2  0
 35 36  1  0
 33 37  1  0
 32 38  1  0
 31 39  1  0
  5 40  1  0
  1 41  1  0
  1 42  1  0
  1 43  1  0
 20 15  1  0
 35 30  1  0
M  END
>  <cnnaffinity>  (1) 
-5.34448

>  <filename>  (1) 
COC(=O)C(OC(=O)C=C(C)c1ccccc1C(F)(F)F)c1cccnc1

$$$$
