
     RDKit          3D

 36 37  0  0  0  0  0  0  0  0999 V2000
    8.0508   -4.0571   23.0261 C   0  0  0  0  0  0  0  0  0  0  0  0
    7.5306   -2.9631   23.7554 O   0  0  0  0  0  0  0  0  0  0  0  0
    7.6594   -1.7016   23.1510 C   0  0  0  0  0  0  0  0  0  0  0  0
    7.1757   -0.7077   24.2085 C   0  0  0  0  0  0  0  0  0  0  0  0
    7.5157    0.5941   23.7619 O   0  0  0  0  0  0  0  0  0  0  0  0
    7.3604    1.6606   24.6023 C   0  0  0  0  0  0  0  0  0  0  0  0
    7.7635    2.8892   24.0606 C   0  0  0  0  0  0  0  0  0  0  0  0
    7.6198    4.0618   24.7960 C   0  0  0  0  0  0  0  0  0  0  0  0
    7.0817    4.0192   26.0908 C   0  0  0  0  0  0  0  0  0  0  0  0
    6.7056    2.7952   26.6413 C   0  0  0  0  0  0  0  0  0  0  0  0
    6.8447    1.6088   25.9077 C   0  0  0  0  0  0  0  0  0  0  0  0
    6.5569    0.6606   26.3466 H   0  0  0  0  0  0  0  0  0  0  0  0
    6.2951    2.7525   27.6502 H   0  0  0  0  0  0  0  0  0  0  0  0
    6.9544    4.9361   26.6563 H   0  0  0  0  0  0  0  0  0  0  0  0
    7.9193    5.0112   24.3582 H   0  0  0  0  0  0  0  0  0  0  0  0
    8.1823    2.8885   23.0596 H   0  0  0  0  0  0  0  0  0  0  0  0
    6.0919   -0.8024   24.3642 H   0  0  0  0  0  0  0  0  0  0  0  0
    7.6726   -0.9434   25.1608 H   0  0  0  0  0  0  0  0  0  0  0  0
    6.8496   -1.5159   21.8331 C   0  0  0  0  0  0  0  0  0  0  0  0
    5.7942   -2.0719   21.5992 O   0  0  0  0  0  0  0  0  0  0  0  0
    7.4404   -0.6532   20.9317 N   0  0  0  0  0  0  0  0  0  0  0  0
    6.7157    0.0052   19.8763 C   0  0  0  0  0  0  0  0  0  0  0  0
    5.4923    0.6359   20.1191 C   0  0  0  0  0  0  0  0  0  0  0  0
    4.8589    1.2972   19.0553 C   0  0  0  0  0  0  0  0  0  0  0  0
    5.4672    1.3057   17.7954 C   0  0  0  0  0  0  0  0  0  0  0  0
    6.6443    0.7068   17.5493 N   0  0  0  0  0  0  0  0  0  0  0  0
    7.2419    0.0778   18.5699 C   0  0  0  0  0  0  0  0  0  0  0  0
    8.1957   -0.3988   18.3639 H   0  0  0  0  0  0  0  0  0  0  0  0
    4.9852    1.7775   16.9388 H   0  0  0  0  0  0  0  0  0  0  0  0
    3.9120    1.8095   19.1851 H   0  0  0  0  0  0  0  0  0  0  0  0
    5.0614    0.6261   21.1215 H   0  0  0  0  0  0  0  0  0  0  0  0
    8.2279   -0.1415   21.2946 H   0  0  0  0  0  0  0  0  0  0  0  0
    8.7175   -1.4743   22.9329 H   0  0  0  0  0  0  0  0  0  0  0  0
    7.7506   -4.0136   21.9717 H   0  0  0  0  0  0  0  0  0  0  0  0
    9.1475   -4.0978   23.0941 H   0  0  0  0  0  0  0  0  0  0  0  0
    7.6217   -4.9574   23.4723 H   0  0  0  0  0  0  0  0  0  0  0  0
  1  2  1  0
  2  3  1  0
  3  4  1  0
  4  5  1  0
  5  6  1  0
  6  7  2  0
  7  8  1  0
  8  9  2  0
  9 10  1  0
 10 11  2  0
 11 12  1  0
 10 13  1  0
  9 14  1  0
  8 15  1  0
  7 16  1  0
  4 17  1  0
  4 18  1  0
  3 19  1  0
 19 20  2  0
 19 21  1  0
 21 22  1  0
 22 23  2  0
 23 24  1  0
 24 25  2  0
 25 26  1  0
 26 27  2  0
 27 28  1  0
 25 29  1  0
 24 30  1  0
 23 31  1  0
 21 32  1  0
  3 33  1  0
  1 34  1  0
  1 35  1  0
  1 36  1  0
 11  6  1  0
 27 22  1  0
M  END
>  <cnnaffinity>  (1) 
-4.64669

>  <filename>  (1) 
COC(COc1ccccc1)C(=O)Nc1cccnc1

$$$$
