
     RDKit          3D

 35 36  0  0  0  0  0  0  0  0999 V2000
   10.0161    1.5504   22.6496 C   0  0  0  0  0  0  0  0  0  0  0  0
    8.7892    0.8820   22.3232 O   0  0  0  0  0  0  0  0  0  0  0  0
    8.8298    0.0279   21.2915 C   0  0  0  0  0  0  0  0  0  0  0  0
    9.8114   -0.2533   20.6404 O   0  0  0  0  0  0  0  0  0  0  0  0
    7.4353   -0.5940   21.0440 C   0  0  0  0  0  0  0  0  0  0  0  0
    7.5034   -2.1911   20.7130 N   0  0  0  0  0  4  0  0  0  0  0  0
    8.0435   -3.0356   21.8037 C   0  0  0  0  0  0  0  0  0  0  0  0
    7.0011   -3.1446   22.8887 C   0  0  0  0  0  0  0  0  0  0  0  0
    7.0892   -2.3420   24.0315 C   0  0  0  0  0  0  0  0  0  0  0  0
    6.2218   -2.3760   25.0468 N   0  0  0  0  0  0  0  0  0  0  0  0
    5.1890   -3.2232   24.9567 C   0  0  0  0  0  0  0  0  0  0  0  0
    4.9736   -4.0612   23.8613 C   0  0  0  0  0  0  0  0  0  0  0  0
    5.8929   -4.0012   22.8167 C   0  0  0  0  0  0  0  0  0  0  0  0
    5.6412   -4.9871   21.4025 Cl  0  0  0  0  0  0  0  0  0  0  0  0
    4.1231   -4.7323   23.8261 H   0  0  0  0  0  0  0  0  0  0  0  0
    4.5099   -3.2296   25.8040 H   0  0  0  0  0  0  0  0  0  0  0  0
    7.9121   -1.6300   24.1250 H   0  0  0  0  0  0  0  0  0  0  0  0
    8.3235   -4.0300   21.4553 H   0  0  0  0  0  0  0  0  0  0  0  0
    8.9516   -2.5800   22.2134 H   0  0  0  0  0  0  0  0  0  0  0  0
    8.0651   -2.2176   19.8379 H   0  0  0  0  0  0  0  0  0  0  0  0
    6.5260   -2.4935   20.4858 H   0  0  0  0  0  0  0  0  0  0  0  0
    6.6491   -0.0018   19.9016 C   0  0  0  0  0  0  0  0  0  0  0  0
    5.4280    0.6479   20.1410 C   0  0  0  0  0  0  0  0  0  0  0  0
    4.7828    1.2998   19.0872 C   0  0  0  0  0  0  0  0  0  0  0  0
    5.3816    1.2687   17.8226 C   0  0  0  0  0  0  0  0  0  0  0  0
    6.5295    0.6268   17.5625 N   0  0  0  0  0  0  0  0  0  0  0  0
    7.1431    0.0182   18.5831 C   0  0  0  0  0  0  0  0  0  0  0  0
    8.1060   -0.4333   18.3434 H   0  0  0  0  0  0  0  0  0  0  0  0
    4.9340    1.8041   16.9861 H   0  0  0  0  0  0  0  0  0  0  0  0
    3.8623    1.8596   19.2300 H   0  0  0  0  0  0  0  0  0  0  0  0
    4.9921    0.6518   21.1435 H   0  0  0  0  0  0  0  0  0  0  0  0
    6.8981   -0.4688   21.9817 H   0  0  0  0  0  0  0  0  0  0  0  0
    9.7958    2.1921   23.5003 H   0  0  0  0  0  0  0  0  0  0  0  0
   10.3633    2.1409   21.7995 H   0  0  0  0  0  0  0  0  0  0  0  0
   10.7907    0.8241   22.9045 H   0  0  0  0  0  0  0  0  0  0  0  0
  1  2  1  0
  2  3  1  0
  3  4  2  0
  3  5  1  0
  5  6  1  0
  6  7  1  0
  7  8  1  0
  8  9  2  0
  9 10  1  0
 10 11  2  0
 11 12  1  0
 12 13  2  0
 13 14  1  0
 12 15  1  0
 11 16  1  0
  9 17  1  0
  7 18  1  0
  7 19  1  0
  6 20  1  0
  6 21  1  0
  5 22  1  0
 22 23  2  0
 23 24  1  0
 24 25  2  0
 25 26  1  0
 26 27  2  0
 27 28  1  0
 25 29  1  0
 24 30  1  0
 23 31  1  0
  5 32  1  0
  1 33  1  0
  1 34  1  0
  1 35  1  0
 13  8  1  0
 27 22  1  0
M  CHG  1   6   1
M  END
>  <cnnaffinity>  (1) 
-5.00138

>  <filename>  (1) 
COC(=O)C([NH2+]Cc1cnccc1Cl)c1cccnc1

$$$$
