
     RDKit          3D

 36 38  0  0  0  0  0  0  0  0999 V2000
    7.1225   -2.5630   22.3553 C   0  0  0  0  0  0  0  0  0  0  0  0
    6.4018   -1.6921   21.4944 O   0  0  0  0  0  0  0  0  0  0  0  0
    7.2155   -0.8515   20.7054 C   0  0  0  0  0  0  0  0  0  0  0  0
    6.4011   -0.2525   19.5634 C   0  0  0  0  0  0  0  0  0  0  0  0
    5.1918    0.4234   19.7995 C   0  0  0  0  0  0  0  0  0  0  0  0
    4.6886    1.2506   18.7969 C   0  0  0  0  0  0  0  0  0  0  0  0
    5.3803    1.3402   17.5839 C   0  0  0  0  0  0  0  0  0  0  0  0
    6.4975    0.6464   17.3170 N   0  0  0  0  0  0  0  0  0  0  0  0
    6.9903   -0.1182   18.2997 C   0  0  0  0  0  0  0  0  0  0  0  0
    7.9270   -0.6327   18.0770 H   0  0  0  0  0  0  0  0  0  0  0  0
    5.0290    2.0029   16.7960 H   0  0  0  0  0  0  0  0  0  0  0  0
    3.8117    1.8665   18.9657 H   0  0  0  0  0  0  0  0  0  0  0  0
    4.6986    0.3576   20.7717 H   0  0  0  0  0  0  0  0  0  0  0  0
    7.8579    0.3140   21.4812 C   0  0  0  0  0  0  0  0  0  0  0  0
    9.1163    0.6458   21.5539 N   0  0  0  0  0  0  0  0  0  0  0  0
    9.0492    1.8745   22.1778 C   0  0  0  0  0  0  0  0  0  0  0  0
   10.2737    2.6824   22.4766 C   0  0  0  0  0  0  0  0  0  0  0  0
   11.2423    1.9739   23.4077 C   0  0  0  0  0  0  0  0  0  0  0  0
   12.5765    1.7899   23.0144 C   0  0  0  0  0  0  0  0  0  0  0  0
   13.4934    1.0960   23.8047 C   0  0  0  0  0  0  0  0  0  0  0  0
   13.0490    0.5581   25.0043 C   0  0  0  0  0  0  0  0  0  0  0  0
   13.9341   -0.0417   25.8113 F   0  0  0  0  0  0  0  0  0  0  0  0
   11.7273    0.6574   25.4198 C   0  0  0  0  0  0  0  0  0  0  0  0
   10.8571    1.4271   24.6501 C   0  0  0  0  0  0  0  0  0  0  0  0
    9.3018    1.7305   25.3533 Cl  0  0  0  0  0  0  0  0  0  0  0  0
   11.4000    0.2281   26.3619 H   0  0  0  0  0  0  0  0  0  0  0  0
   14.5250    0.9487   23.5027 H   0  0  0  0  0  0  0  0  0  0  0  0
   12.9076    2.2089   22.0681 H   0  0  0  0  0  0  0  0  0  0  0  0
   10.7649    2.8737   21.5144 H   0  0  0  0  0  0  0  0  0  0  0  0
    9.9471    3.6420   22.8887 H   0  0  0  0  0  0  0  0  0  0  0  0
    7.8462    2.2781   22.4517 N   0  0  0  0  0  0  0  0  0  0  0  0
    7.0478    1.2327   22.0173 O   0  0  0  0  0  0  0  0  0  0  0  0
    8.0560   -1.4289   20.2883 H   0  0  0  0  0  0  0  0  0  0  0  0
    7.7716   -2.0142   23.0547 H   0  0  0  0  0  0  0  0  0  0  0  0
    6.3749   -3.1216   22.9225 H   0  0  0  0  0  0  0  0  0  0  0  0
    7.7333   -3.2735   21.7776 H   0  0  0  0  0  0  0  0  0  0  0  0
  1  2  1  0
  2  3  1  0
  3  4  1  0
  4  5  2  0
  5  6  1  0
  6  7  2  0
  7  8  1  0
  8  9  2  0
  9 10  1  0
  7 11  1  0
  6 12  1  0
  5 13  1  0
  3 14  1  0
 14 15  2  0
 15 16  1  0
 16 17  1  0
 17 18  1  0
 18 19  2  0
 19 20  1  0
 20 21  2  0
 21 22  1  0
 21 23  1  0
 23 24  2  0
 24 25  1  0
 23 26  1  0
 20 27  1  0
 19 28  1  0
 17 29  1  0
 17 30  1  0
 16 31  2  0
 31 32  1  0
  3 33  1  0
  1 34  1  0
  1 35  1  0
  1 36  1  0
  9  4  1  0
 32 14  1  0
 24 18  1  0
M  END
>  <cnnaffinity>  (1) 
-5.6177

>  <filename>  (1) 
COC(c1cccnc1)c1nc(Cc2ccc(F)cc2Cl)no1

$$$$
