
     RDKit          3D

 45 48  0  0  0  0  0  0  0  0999 V2000
    4.9665    1.8335   16.9538 H   0  0  0  0  0  0  0  0  0  0  0  0
    5.4403    1.3632   17.8135 C   0  0  0  0  0  0  0  0  0  0  0  0
    6.6003    0.7403   17.5731 N   0  0  0  0  0  0  0  0  0  0  0  0
    7.2115    0.1580   18.6149 C   0  0  0  0  0  0  0  0  0  0  0  0
    8.1616   -0.3161   18.3835 H   0  0  0  0  0  0  0  0  0  0  0  0
    6.7253    0.1324   19.9358 C   0  0  0  0  0  0  0  0  0  0  0  0
    7.5750   -0.4235   21.1047 C   0  0  2  0  0  0  0  0  0  0  0  0
    8.3213    0.8331   21.6823 C   0  0  0  0  0  0  0  0  0  0  0  0
    8.9232    1.2367   20.8539 H   0  0  0  0  0  0  0  0  0  0  0  0
    7.5631    1.5932   21.8910 H   0  0  0  0  0  0  0  0  0  0  0  0
    9.2118    0.6618   22.9028 C   0  0  0  0  0  0  0  0  0  0  0  0
   10.5749    0.3472   22.7783 C   0  0  0  0  0  0  0  0  0  0  0  0
   11.0107    0.2734   21.7810 H   0  0  0  0  0  0  0  0  0  0  0  0
   11.3966    0.1356   23.8950 C   0  0  0  0  0  0  0  0  0  0  0  0
   12.4357   -0.1478   23.7565 H   0  0  0  0  0  0  0  0  0  0  0  0
   10.8591    0.2586   25.1786 C   0  0  0  0  0  0  0  0  0  0  0  0
   11.4726    0.1031   26.0642 H   0  0  0  0  0  0  0  0  0  0  0  0
    9.5132    0.6009   25.3367 C   0  0  0  0  0  0  0  0  0  0  0  0
    9.0741    0.6955   26.3244 H   0  0  0  0  0  0  0  0  0  0  0  0
    8.6995    0.8274   24.2144 C   0  0  0  0  0  0  0  0  0  0  0  0
    7.3852    1.1815   24.3023 O   0  0  0  0  0  0  0  0  0  0  0  0
    6.8302    1.5470   25.5472 C   0  0  0  0  0  0  0  0  0  0  0  0
    7.4146    2.3382   26.0392 H   0  0  0  0  0  0  0  0  0  0  0  0
    6.7629    0.6788   26.2165 H   0  0  0  0  0  0  0  0  0  0  0  0
    5.8315    1.9164   25.3074 H   0  0  0  0  0  0  0  0  0  0  0  0
    8.5968   -1.5474   20.7172 C   0  0  0  0  0  0  0  0  0  0  0  0
    9.6007   -1.2863   21.0623 H   0  0  0  0  0  0  0  0  0  0  0  0
    8.6971   -1.6732   19.6431 H   0  0  0  0  0  0  0  0  0  0  0  0
    8.1515   -2.8130   21.4861 C   0  0  2  0  0  0  0  0  0  0  0  0
    8.9428   -3.5654   21.5419 H   0  0  0  0  0  0  0  0  0  0  0  0
    6.8002   -3.3631   20.9873 C   0  0  0  0  0  0  0  0  0  0  0  0
    6.7185   -3.5779   19.9205 H   0  0  0  0  0  0  0  0  0  0  0  0
    6.5840   -4.3153   21.4855 H   0  0  0  0  0  0  0  0  0  0  0  0
    5.8073   -2.2559   21.4292 C   0  0  0  0  0  0  0  0  0  0  0  0
    5.3008   -1.8070   20.5750 H   0  0  0  0  0  0  0  0  0  0  0  0
    5.0497   -2.6646   22.1052 H   0  0  0  0  0  0  0  0  0  0  0  0
    6.7091   -1.2146   22.1523 C   0  0  1  0  0  0  0  0  0  0  0  0
    6.1732   -0.5450   22.8241 H   0  0  0  0  0  0  0  0  0  0  0  0
    7.7130   -2.1716   22.8158 C   0  0  0  0  0  0  0  0  0  0  0  0
    8.5277   -1.6721   23.3357 H   0  0  0  0  0  0  0  0  0  0  0  0
    7.2259   -2.8662   23.5147 H   0  0  0  0  0  0  0  0  0  0  0  0
    5.4932    0.7864   20.1513 C   0  0  0  0  0  0  0  0  0  0  0  0
    5.0278    0.8117   21.1381 H   0  0  0  0  0  0  0  0  0  0  0  0
    4.8477    1.4123   19.0774 C   0  0  0  0  0  0  0  0  0  0  0  0
    3.9051    1.9322   19.2052 H   0  0  0  0  0  0  0  0  0  0  0  0
  1  2  1  0
  2  3  2  0
  3  4  1  0
  4  5  1  0
  4  6  2  0
  6  7  1  0
  7  8  1  1
  8  9  1  0
  8 10  1  0
  8 11  1  0
 11 12  2  0
 12 13  1  0
 12 14  1  0
 14 15  1  0
 14 16  2  0
 16 17  1  0
 16 18  1  0
 18 19  1  0
 18 20  2  0
 20 21  1  0
 21 22  1  0
 22 23  1  0
 22 24  1  0
 22 25  1  0
  7 26  1  0
 26 27  1  0
 26 28  1  0
 26 29  1  0
 29 30  1  1
 29 31  1  0
 31 32  1  0
 31 33  1  0
 31 34  1  0
 34 35  1  0
 34 36  1  0
 34 37  1  0
 37 38  1  1
 37 39  1  0
 39 40  1  0
 39 41  1  0
  6 42  1  0
 42 43  1  0
 42 44  2  0
 44 45  1  0
 44  2  1  0
 37  7  1  0
 20 11  1  0
 39 29  1  0
M  END
>  <cnnaffinity>  (1) 
-5.55595

>  <filename>  (1) 
COc1ccccc1C[C@@]1(c2cccnc2)C[C@@H]2CC[C@H]1C2

$$$$
