
     RDKit          3D

 41 43  0  0  0  0  0  0  0  0999 V2000
    4.9840    1.7012   17.0615 H   0  0  0  0  0  0  0  0  0  0  0  0
    5.5269    1.1963   17.8560 C   0  0  0  0  0  0  0  0  0  0  0  0
    6.6850    0.6064   17.5065 N   0  0  0  0  0  0  0  0  0  0  0  0
    7.3874    0.0005   18.4732 C   0  0  0  0  0  0  0  0  0  0  0  0
    8.3043   -0.4946   18.1442 H   0  0  0  0  0  0  0  0  0  0  0  0
    7.0119   -0.0375   19.8439 C   0  0  0  0  0  0  0  0  0  0  0  0
    7.8410   -0.6543   20.8012 N   0  0  0  0  0  0  0  0  0  0  0  0
    8.8239   -0.5398   20.5632 H   0  0  0  0  0  0  0  0  0  0  0  0
    7.7625   -0.3474   22.2364 C   0  0  0  0  0  0  0  0  0  0  0  0
    7.9604    1.1362   22.5313 C   0  0  0  0  0  0  0  0  0  0  0  0
    6.9459    1.9963   22.9774 C   0  0  0  0  0  0  0  0  0  0  0  0
    5.9435    1.6109   23.1476 H   0  0  0  0  0  0  0  0  0  0  0  0
    7.1754    3.3494   23.1904 C   0  0  0  0  0  0  0  0  0  0  0  0
    6.3922    4.0281   23.5059 H   0  0  0  0  0  0  0  0  0  0  0  0
    8.4553    3.8789   22.9713 C   0  0  0  0  0  0  0  0  0  0  0  0
    8.5746    5.2052   23.2420 O   0  0  0  0  0  0  0  0  0  0  0  0
    9.8393    5.8315   23.1696 C   0  0  0  0  0  0  0  0  0  0  0  0
   10.2225    5.8671   22.1419 H   0  0  0  0  0  0  0  0  0  0  0  0
   10.5758    5.3259   23.8078 H   0  0  0  0  0  0  0  0  0  0  0  0
    9.6850    6.8503   23.5282 H   0  0  0  0  0  0  0  0  0  0  0  0
    9.4838    3.0609   22.4871 C   0  0  0  0  0  0  0  0  0  0  0  0
   10.4656    3.4665   22.2715 H   0  0  0  0  0  0  0  0  0  0  0  0
    9.2133    1.7097   22.2399 C   0  0  0  0  0  0  0  0  0  0  0  0
   10.1158    0.8446   21.6885 O   0  0  0  0  0  0  0  0  0  0  0  0
   11.4738    1.1738   21.5303 C   0  0  0  0  0  0  0  0  0  0  0  0
   11.6180    1.9351   20.7529 H   0  0  0  0  0  0  0  0  0  0  0  0
   11.9394    1.5043   22.4670 H   0  0  0  0  0  0  0  0  0  0  0  0
   11.9433    0.2399   21.2215 H   0  0  0  0  0  0  0  0  0  0  0  0
    6.5974   -1.0414   22.9702 C   0  0  0  0  0  0  0  0  0  0  0  0
    5.9319   -1.5316   22.2615 H   0  0  0  0  0  0  0  0  0  0  0  0
    6.0597   -0.3740   23.6456 H   0  0  0  0  0  0  0  0  0  0  0  0
    7.5719   -1.9973   23.7058 C   0  0  0  0  0  0  0  0  0  0  0  0
    7.4333   -3.0615   23.4849 H   0  0  0  0  0  0  0  0  0  0  0  0
    7.5856   -1.8795   24.7941 H   0  0  0  0  0  0  0  0  0  0  0  0
    8.7470   -1.3116   22.9644 C   0  0  0  0  0  0  0  0  0  0  0  0
    9.4740   -0.8080   23.5999 H   0  0  0  0  0  0  0  0  0  0  0  0
    9.2778   -1.9612   22.2642 H   0  0  0  0  0  0  0  0  0  0  0  0
    5.7705    0.5349   20.1652 C   0  0  0  0  0  0  0  0  0  0  0  0
    5.4180    0.5143   21.1933 H   0  0  0  0  0  0  0  0  0  0  0  0
    5.0277    1.1615   19.1594 C   0  0  0  0  0  0  0  0  0  0  0  0
    4.0726    1.6245   19.3827 H   0  0  0  0  0  0  0  0  0  0  0  0
  1  2  1  0
  2  3  2  0
  3  4  1  0
  4  5  1  0
  4  6  2  0
  6  7  1  0
  7  8  1  0
  7  9  1  0
  9 10  1  0
 10 11  2  0
 11 12  1  0
 11 13  1  0
 13 14  1  0
 13 15  2  0
 15 16  1  0
 16 17  1  0
 17 18  1  0
 17 19  1  0
 17 20  1  0
 15 21  1  0
 21 22  1  0
 21 23  2  0
 23 24  1  0
 24 25  1  0
 25 26  1  0
 25 27  1  0
 25 28  1  0
  9 29  1  0
 29 30  1  0
 29 31  1  0
 29 32  1  0
 32 33  1  0
 32 34  1  0
 32 35  1  0
 35 36  1  0
 35 37  1  0
  6 38  1  0
 38 39  1  0
 38 40  2  0
 40 41  1  0
 40  2  1  0
 35  9  1  0
 23 10  1  0
M  END
>  <cnnaffinity>  (1) 
-4.98755

>  <filename>  (1) 
COc1ccc(C2(Nc3cccnc3)CCC2)c(OC)c1

$$$$
