
     RDKit          3D

 35 37  0  0  0  0  0  0  0  0999 V2000
    4.9231    1.7877   17.0065 H   0  0  0  0  0  0  0  0  0  0  0  0
    5.4001    1.2812   17.8400 C   0  0  0  0  0  0  0  0  0  0  0  0
    6.5545    0.6567   17.5711 N   0  0  0  0  0  0  0  0  0  0  0  0
    7.1992    0.0536   18.5783 C   0  0  0  0  0  0  0  0  0  0  0  0
    8.1487   -0.4178   18.3373 H   0  0  0  0  0  0  0  0  0  0  0  0
    6.6996    0.0358   19.8974 C   0  0  0  0  0  0  0  0  0  0  0  0
    7.2877   -0.6198   20.9786 O   0  0  0  0  0  0  0  0  0  0  0  0
    8.6120   -0.7970   21.0619 C   0  0  0  0  0  0  0  0  0  0  0  0
    9.5551   -0.1164   20.4669 N   0  0  0  0  0  0  0  0  0  0  0  0
   10.7134   -0.6071   20.9710 N   0  0  0  0  0  0  0  0  0  0  0  0
   10.5030   -1.5422   21.8159 N   0  0  0  0  0  0  0  0  0  0  0  0
    9.1536   -1.7075   21.8947 N   0  0  0  0  0  0  0  0  0  0  0  0
    8.5752   -2.6974   22.7551 C   0  0  0  0  0  0  0  0  0  0  0  0
    9.0708   -2.8447   24.0510 C   0  0  0  0  0  0  0  0  0  0  0  0
    9.9260   -2.2394   24.3466 H   0  0  0  0  0  0  0  0  0  0  0  0
    8.4823   -3.7474   24.9302 C   0  0  0  0  0  0  0  0  0  0  0  0
    8.8419   -3.8755   25.9450 H   0  0  0  0  0  0  0  0  0  0  0  0
    7.3914   -4.5245   24.5103 C   0  0  0  0  0  0  0  0  0  0  0  0
    6.8845   -5.3711   25.4378 O   0  0  0  0  0  0  0  0  0  0  0  0
    5.7194   -6.1267   25.1703 C   0  0  0  0  0  0  0  0  0  0  0  0
    4.8353   -5.4871   25.0382 H   0  0  0  0  0  0  0  0  0  0  0  0
    5.6012   -6.7511   26.0568 H   0  0  0  0  0  0  0  0  0  0  0  0
    5.8264   -6.7567   24.2786 H   0  0  0  0  0  0  0  0  0  0  0  0
    6.9065   -4.4182   23.2041 C   0  0  0  0  0  0  0  0  0  0  0  0
    6.0633   -5.0193   22.8925 H   0  0  0  0  0  0  0  0  0  0  0  0
    7.5130   -3.5204   22.3134 C   0  0  0  0  0  0  0  0  0  0  0  0
    7.1553   -3.4056   21.0183 O   0  0  0  0  0  0  0  0  0  0  0  0
    6.0437   -4.1006   20.4955 C   0  0  0  0  0  0  0  0  0  0  0  0
    5.9756   -3.7480   19.4651 H   0  0  0  0  0  0  0  0  0  0  0  0
    6.2013   -5.1881   20.5102 H   0  0  0  0  0  0  0  0  0  0  0  0
    5.1200   -3.8522   21.0368 H   0  0  0  0  0  0  0  0  0  0  0  0
    5.4746    0.6499   20.1653 C   0  0  0  0  0  0  0  0  0  0  0  0
    5.0708    0.6059   21.1760 H   0  0  0  0  0  0  0  0  0  0  0  0
    4.8235    1.2994   19.1148 C   0  0  0  0  0  0  0  0  0  0  0  0
    3.8879    1.8234   19.2718 H   0  0  0  0  0  0  0  0  0  0  0  0
  1  2  1  0
  2  3  2  0
  3  4  1  0
  4  5  1  0
  4  6  2  0
  6  7  1  0
  7  8  1  0
  8  9  2  0
  9 10  1  0
 10 11  2  0
 11 12  1  0
 12 13  1  0
 13 14  2  0
 14 15  1  0
 14 16  1  0
 16 17  1  0
 16 18  2  0
 18 19  1  0
 19 20  1  0
 20 21  1  0
 20 22  1  0
 20 23  1  0
 18 24  1  0
 24 25  1  0
 24 26  2  0
 26 27  1  0
 27 28  1  0
 28 29  1  0
 28 30  1  0
 28 31  1  0
  6 32  1  0
 32 33  1  0
 32 34  2  0
 34 35  1  0
 34  2  1  0
 12  8  1  0
 26 13  1  0
M  END
>  <cnnaffinity>  (1) 
-5.25276

>  <filename>  (1) 
COc1ccc(-n2nnnc2Oc2cccnc2)c(OC)c1

$$$$
