
     RDKit          3D

 32 33  0  0  0  0  0  0  0  0999 V2000
    4.9169    1.7870   17.0001 H   0  0  0  0  0  0  0  0  0  0  0  0
    5.3947    1.2952   17.8453 C   0  0  0  0  0  0  0  0  0  0  0  0
    6.5571    0.6779   17.5760 N   0  0  0  0  0  0  0  0  0  0  0  0
    7.1709    0.0553   18.5862 C   0  0  0  0  0  0  0  0  0  0  0  0
    8.1196   -0.4261   18.3629 H   0  0  0  0  0  0  0  0  0  0  0  0
    6.6672   -0.0205   19.9082 C   0  0  0  0  0  0  0  0  0  0  0  0
    7.3710   -0.7317   20.9306 N   0  0  0  0  0  0  0  0  0  0  0  0
    6.8252   -1.2076   21.6413 H   0  0  0  0  0  0  0  0  0  0  0  0
    8.7052   -0.6795   21.1644 C   0  0  0  0  0  0  0  0  0  0  0  0
    9.6686    0.5449   20.6345 S   0  0  0  0  0  0  0  0  0  0  0  0
    9.2804   -1.8217   22.0066 C   0  0  0  0  0  0  0  0  0  0  0  0
   10.3180   -1.9364   21.6816 H   0  0  0  0  0  0  0  0  0  0  0  0
    8.7666   -2.7696   21.8084 H   0  0  0  0  0  0  0  0  0  0  0  0
    9.2438   -1.4439   23.4712 C   0  0  0  0  0  0  0  0  0  0  0  0
   10.2323   -0.5994   23.9898 C   0  0  0  0  0  0  0  0  0  0  0  0
   11.0391   -0.2697   23.3386 H   0  0  0  0  0  0  0  0  0  0  0  0
   10.1939   -0.1680   25.3172 C   0  0  0  0  0  0  0  0  0  0  0  0
   10.9773    0.4792   25.7090 H   0  0  0  0  0  0  0  0  0  0  0  0
    9.1391   -0.5777   26.1324 C   0  0  0  0  0  0  0  0  0  0  0  0
    9.1011   -0.2491   27.1689 H   0  0  0  0  0  0  0  0  0  0  0  0
    8.1235   -1.4039   25.6306 C   0  0  0  0  0  0  0  0  0  0  0  0
    7.3031   -1.7191   26.2654 H   0  0  0  0  0  0  0  0  0  0  0  0
    8.1648   -1.8298   24.2948 C   0  0  0  0  0  0  0  0  0  0  0  0
    7.2052   -2.6038   23.6970 O   0  0  0  0  0  0  0  0  0  0  0  0
    6.0997   -3.0800   24.4470 C   0  0  0  0  0  0  0  0  0  0  0  0
    5.4664   -2.2600   24.8043 H   0  0  0  0  0  0  0  0  0  0  0  0
    6.3920   -3.7016   25.3037 H   0  0  0  0  0  0  0  0  0  0  0  0
    5.5220   -3.6957   23.7592 H   0  0  0  0  0  0  0  0  0  0  0  0
    5.4508    0.6230   20.1723 C   0  0  0  0  0  0  0  0  0  0  0  0
    5.0225    0.6213   21.1747 H   0  0  0  0  0  0  0  0  0  0  0  0
    4.8176    1.2991   19.1168 C   0  0  0  0  0  0  0  0  0  0  0  0
    3.8885    1.8319   19.2697 H   0  0  0  0  0  0  0  0  0  0  0  0
  1  2  1  0
  2  3  2  0
  3  4  1  0
  4  5  1  0
  4  6  2  0
  6  7  1  0
  7  8  1  0
  7  9  1  0
  9 10  2  0
  9 11  1  0
 11 12  1  0
 11 13  1  0
 11 14  1  0
 14 15  2  0
 15 16  1  0
 15 17  1  0
 17 18  1  0
 17 19  2  0
 19 20  1  0
 19 21  1  0
 21 22  1  0
 21 23  2  0
 23 24  1  0
 24 25  1  0
 25 26  1  0
 25 27  1  0
 25 28  1  0
  6 29  1  0
 29 30  1  0
 29 31  2  0
 31 32  1  0
 31  2  1  0
 23 14  1  0
M  END
>  <cnnaffinity>  (1) 
-5.13474

>  <filename>  (1) 
COc1ccccc1CC(=S)Nc1cccnc1

$$$$
