
     RDKit          3D

 33 35  0  0  0  0  0  0  0  0999 V2000
    4.9217    1.7950   16.9944 H   0  0  0  0  0  0  0  0  0  0  0  0
    5.3924    1.2915   17.8333 C   0  0  0  0  0  0  0  0  0  0  0  0
    6.5493    0.6661   17.5618 N   0  0  0  0  0  0  0  0  0  0  0  0
    7.1725    0.0556   18.5744 C   0  0  0  0  0  0  0  0  0  0  0  0
    8.1277   -0.4167   18.3586 H   0  0  0  0  0  0  0  0  0  0  0  0
    6.6680    0.0133   19.8912 C   0  0  0  0  0  0  0  0  0  0  0  0
    7.3631   -0.6501   20.9362 N   0  0  0  0  0  0  0  0  0  0  0  0
    6.7652   -1.4347   21.9158 C   0  0  0  0  0  0  0  0  0  0  0  0
    5.7029   -1.5992   21.9605 H   0  0  0  0  0  0  0  0  0  0  0  0
    7.7235   -1.9285   22.7329 C   0  0  0  0  0  0  0  0  0  0  0  0
    7.6163   -2.7704   23.9295 C   0  0  0  0  0  0  0  0  0  0  0  0
    8.4839   -2.5843   25.0201 C   0  0  0  0  0  0  0  0  0  0  0  0
    9.2485   -1.8147   24.9419 H   0  0  0  0  0  0  0  0  0  0  0  0
    8.3606   -3.3282   26.1919 C   0  0  0  0  0  0  0  0  0  0  0  0
    9.0489   -3.1575   27.0168 H   0  0  0  0  0  0  0  0  0  0  0  0
    7.3490   -4.2888   26.2920 C   0  0  0  0  0  0  0  0  0  0  0  0
    7.2418   -4.8745   27.2024 H   0  0  0  0  0  0  0  0  0  0  0  0
    6.4702   -4.5063   25.2265 C   0  0  0  0  0  0  0  0  0  0  0  0
    5.6804   -5.2482   25.3030 H   0  0  0  0  0  0  0  0  0  0  0  0
    6.5986   -3.7588   24.0458 C   0  0  0  0  0  0  0  0  0  0  0  0
    5.7868   -3.9213   22.9661 O   0  0  0  0  0  0  0  0  0  0  0  0
    4.7483   -4.8801   22.9551 C   0  0  0  0  0  0  0  0  0  0  0  0
    5.1234   -5.9046   23.0836 H   0  0  0  0  0  0  0  0  0  0  0  0
    3.9878   -4.6713   23.7192 H   0  0  0  0  0  0  0  0  0  0  0  0
    4.2997   -4.7849   21.9651 H   0  0  0  0  0  0  0  0  0  0  0  0
    8.9255   -1.4213   22.2541 N   0  0  0  0  0  0  0  0  0  0  0  0
    9.8684   -1.5962   22.5389 H   0  0  0  0  0  0  0  0  0  0  0  0
    8.7569   -0.6513   21.1384 C   0  0  0  0  0  0  0  0  0  0  0  0
    9.6438   -0.1202   20.5054 O   0  0  0  0  0  0  0  0  0  0  0  0
    5.4483    0.6459   20.1573 C   0  0  0  0  0  0  0  0  0  0  0  0
    5.0382    0.6366   21.1702 H   0  0  0  0  0  0  0  0  0  0  0  0
    4.8088    1.3069   19.1046 C   0  0  0  0  0  0  0  0  0  0  0  0
    3.8791    1.8380   19.2604 H   0  0  0  0  0  0  0  0  0  0  0  0
  1  2  1  0
  2  3  2  0
  3  4  1  0
  4  5  1  0
  4  6  2  0
  6  7  1  0
  7  8  1  0
  8  9  1  0
  8 10  2  0
 10 11  1  0
 11 12  2  0
 12 13  1  0
 12 14  1  0
 14 15  1  0
 14 16  2  0
 16 17  1  0
 16 18  1  0
 18 19  1  0
 18 20  2  0
 20 21  1  0
 21 22  1  0
 22 23  1  0
 22 24  1  0
 22 25  1  0
 10 26  1  0
 26 27  1  0
 26 28  1  0
 28 29  2  0
  6 30  1  0
 30 31  1  0
 30 32  2  0
 32 33  1  0
 32  2  1  0
 28  7  1  0
 20 11  1  0
M  END
>  <cnnaffinity>  (1) 
-5.22068

>  <filename>  (1) 
COc1ccccc1-c1cn(-c2cccnc2)c(=O)[nH]1

$$$$
