
     RDKit          3D

 48 52  0  0  0  0  0  0  0  0999 V2000
   14.1350    5.8701   21.9596 C   0  0  0  0  0  0  0  0  0  0  0  0
   12.8488    5.3381   22.2223 O   0  0  0  0  0  0  0  0  0  0  0  0
   12.7100    3.9868   22.3081 C   0  0  0  0  0  0  0  0  0  0  0  0
   13.7538    3.1126   22.6288 C   0  0  0  0  0  0  0  0  0  0  0  0
   13.5317    1.7304   22.6397 C   0  0  0  0  0  0  0  0  0  0  0  0
   12.2864    1.2079   22.2953 C   0  0  0  0  0  0  0  0  0  0  0  0
   11.2151    2.0951   22.0830 C   0  0  0  0  0  0  0  0  0  0  0  0
    9.8809    1.5727   22.0453 N   0  0  0  0  0  0  0  0  0  0  0  0
    9.5181    0.5568   21.2154 N   0  0  0  0  0  0  0  0  0  0  0  0
    8.2910    0.2843   21.6113 C   0  0  0  0  0  0  0  0  0  0  0  0
    7.4227   -0.7149   20.9137 C   0  0  0  0  0  0  0  0  0  0  0  0
    6.6361   -0.0678   19.7863 C   0  0  0  0  0  0  0  0  0  0  0  0
    5.4488    0.6134   20.0714 C   0  0  0  0  0  0  0  0  0  0  0  0
    4.8039    1.3028   19.0425 C   0  0  0  0  0  0  0  0  0  0  0  0
    5.3854    1.3032   17.7702 C   0  0  0  0  0  0  0  0  0  0  0  0
    6.5229    0.6566   17.4747 N   0  0  0  0  0  0  0  0  0  0  0  0
    7.1254   -0.0048   18.4709 C   0  0  0  0  0  0  0  0  0  0  0  0
    8.0598   -0.5070   18.2182 H   0  0  0  0  0  0  0  0  0  0  0  0
    4.9222    1.8529   16.9527 H   0  0  0  0  0  0  0  0  0  0  0  0
    3.8874    1.8526   19.2186 H   0  0  0  0  0  0  0  0  0  0  0  0
    5.0653    0.6157   21.0951 H   0  0  0  0  0  0  0  0  0  0  0  0
    6.7427   -1.1237   21.6694 H   0  0  0  0  0  0  0  0  0  0  0  0
    8.0609   -1.5214   20.5428 H   0  0  0  0  0  0  0  0  0  0  0  0
    7.8424    1.0124   22.6583 N   0  0  0  0  0  0  0  0  0  0  0  0
    8.8614    1.8113   22.9285 C   0  0  0  0  0  0  0  0  0  0  0  0
    8.8968    2.7628   24.0780 C   0  0  0  0  0  0  0  0  0  0  0  0
    7.9543    3.9573   23.9946 C   0  0  0  0  0  0  0  0  0  0  0  0
    8.4871    5.3596   23.8566 C   0  0  0  0  0  0  0  0  0  0  0  0
    7.7420    4.7208   22.7188 C   0  0  0  0  0  0  0  0  0  0  0  0
    6.7402    5.0712   22.4795 H   0  0  0  0  0  0  0  0  0  0  0  0
    8.3102    4.4186   21.8408 H   0  0  0  0  0  0  0  0  0  0  0  0
    9.5624    5.4864   23.7439 H   0  0  0  0  0  0  0  0  0  0  0  0
    8.0242    6.1543   24.4328 H   0  0  0  0  0  0  0  0  0  0  0  0
    7.0580    3.8537   24.6129 H   0  0  0  0  0  0  0  0  0  0  0  0
   10.1944    2.9826   24.8034 C   0  0  0  0  0  0  0  0  0  0  0  0
    9.1195    2.2050   25.4794 C   0  0  0  0  0  0  0  0  0  0  0  0
    8.5788    2.6421   26.3140 H   0  0  0  0  0  0  0  0  0  0  0  0
    9.2788    1.1328   25.5710 H   0  0  0  0  0  0  0  0  0  0  0  0
   10.3930    4.0220   25.0510 H   0  0  0  0  0  0  0  0  0  0  0  0
   11.0681    2.4123   24.5061 H   0  0  0  0  0  0  0  0  0  0  0  0
   11.4174    3.4738   22.1393 C   0  0  0  0  0  0  0  0  0  0  0  0
   10.5830    4.1622   22.1991 H   0  0  0  0  0  0  0  0  0  0  0  0
   12.1183    0.1365   22.2233 H   0  0  0  0  0  0  0  0  0  0  0  0
   14.3514    1.0516   22.8676 H   0  0  0  0  0  0  0  0  0  0  0  0
   14.7263    3.5376   22.8345 H   0  0  0  0  0  0  0  0  0  0  0  0
   14.5354    5.4969   21.0085 H   0  0  0  0  0  0  0  0  0  0  0  0
   14.8384    5.6336   22.7644 H   0  0  0  0  0  0  0  0  0  0  0  0
   14.0283    6.9532   21.8995 H   0  0  0  0  0  0  0  0  0  0  0  0
  1  2  1  0
  2  3  1  0
  3  4  2  0
  4  5  1  0
  5  6  2  0
  6  7  1  0
  7  8  1  0
  8  9  1  0
  9 10  2  0
 10 11  1  0
 11 12  1  0
 12 13  2  0
 13 14  1  0
 14 15  2  0
 15 16  1  0
 16 17  2  0
 17 18  1  0
 15 19  1  0
 14 20  1  0
 13 21  1  0
 11 22  1  0
 11 23  1  0
 10 24  1  0
 24 25  2  0
 25 26  1  0
 26 27  1  0
 27 28  1  0
 28 29  1  0
 29 30  1  0
 29 31  1  0
 28 32  1  0
 28 33  1  0
 27 34  1  0
 26 35  1  0
 35 36  1  0
 36 37  1  0
 36 38  1  0
 35 39  1  0
 35 40  1  0
  7 41  2  0
 41 42  1  0
  6 43  1  0
  5 44  1  0
  4 45  1  0
  1 46  1  0
  1 47  1  0
  1 48  1  0
 41  3  1  0
 25  8  1  0
 36 26  1  0
 17 12  1  0
 29 27  1  0
M  END
>  <cnnaffinity>  (1) 
-6.01313

>  <filename>  (1) 
COc1cccc(-n2nc(Cc3cccnc3)nc2C2(C3CC3)CC2)c1

$$$$
