
     RDKit          3D

 30 31  0  0  0  0  0  0  0  0999 V2000
    4.9171    1.8013   16.9833 H   0  0  0  0  0  0  0  0  0  0  0  0
    5.3888    1.3011   17.8279 C   0  0  0  0  0  0  0  0  0  0  0  0
    6.5499    0.6810   17.5641 N   0  0  0  0  0  0  0  0  0  0  0  0
    7.1537    0.0542   18.5811 C   0  0  0  0  0  0  0  0  0  0  0  0
    8.1119   -0.4128   18.3499 H   0  0  0  0  0  0  0  0  0  0  0  0
    6.6426   -0.0169   19.8938 C   0  0  0  0  0  0  0  0  0  0  0  0
    7.4079   -0.7193   21.0012 C   0  0  0  0  0  0  0  0  0  0  0  0
    7.8530   -1.6553   20.6418 H   0  0  0  0  0  0  0  0  0  0  0  0
    6.7457   -0.9694   21.8379 H   0  0  0  0  0  0  0  0  0  0  0  0
    8.5472    0.1127   21.5917 C   0  0  0  0  0  0  0  0  0  0  0  0
    9.4414    0.4267   20.5925 F   0  0  0  0  0  0  0  0  0  0  0  0
    9.2276   -0.6500   22.4893 F   0  0  0  0  0  0  0  0  0  0  0  0
    8.1490    1.4495   22.2172 C   0  0  0  0  0  0  0  0  0  0  0  0
    7.7138    2.0701   21.4316 H   0  0  0  0  0  0  0  0  0  0  0  0
    9.0700    1.9278   22.5691 H   0  0  0  0  0  0  0  0  0  0  0  0
    7.1734    1.3298   23.2901 N   0  0  0  0  0  0  0  0  0  0  0  0
    7.3311    0.3955   24.3081 N   0  0  0  0  0  0  0  0  0  0  0  0
    6.3125    0.6317   25.0514 C   0  0  0  0  0  0  0  0  0  0  0  0
    6.0581    0.0043   26.1827 O   0  0  0  0  0  0  0  0  0  0  0  0
    4.9136    0.2912   26.9969 C   0  0  0  0  0  0  0  0  0  0  0  0
    3.9689    0.0914   26.4760 H   0  0  0  0  0  0  0  0  0  0  0  0
    5.0207   -0.4063   27.8295 H   0  0  0  0  0  0  0  0  0  0  0  0
    4.9174    1.3183   27.3835 H   0  0  0  0  0  0  0  0  0  0  0  0
    5.4741    1.5974   24.6334 O   0  0  0  0  0  0  0  0  0  0  0  0
    6.0350    2.0636   23.4627 C   0  0  0  0  0  0  0  0  0  0  0  0
    5.5601    2.9315   22.7818 O   0  0  0  0  0  0  0  0  0  0  0  0
    5.4338    0.6458   20.1435 C   0  0  0  0  0  0  0  0  0  0  0  0
    5.0077    0.6391   21.1482 H   0  0  0  0  0  0  0  0  0  0  0  0
    4.7972    1.3176   19.0929 C   0  0  0  0  0  0  0  0  0  0  0  0
    3.8684    1.8546   19.2433 H   0  0  0  0  0  0  0  0  0  0  0  0
  1  2  1  0
  2  3  2  0
  3  4  1  0
  4  5  1  0
  4  6  2  0
  6  7  1  0
  7  8  1  0
  7  9  1  0
  7 10  1  0
 10 11  1  0
 10 12  1  0
 10 13  1  0
 13 14  1  0
 13 15  1  0
 13 16  1  0
 16 17  1  0
 17 18  2  0
 18 19  1  0
 19 20  1  0
 20 21  1  0
 20 22  1  0
 20 23  1  0
 18 24  1  0
 24 25  1  0
 25 26  2  0
  6 27  1  0
 27 28  1  0
 27 29  2  0
 29 30  1  0
 29  2  1  0
 25 16  1  0
M  END
>  <cnnaffinity>  (1) 
-4.92725

>  <filename>  (1) 
COc1nn(CC(F)(F)Cc2cccnc2)c(=O)o1

$$$$
