
     RDKit          3D

 35 37  0  0  0  0  0  0  0  0999 V2000
    7.4219    4.3008   25.7210 C   0  0  0  0  0  0  0  0  0  0  0  0
    7.4013    3.3283   24.6765 O   0  0  0  0  0  0  0  0  0  0  0  0
    6.5656    2.2575   24.8847 C   0  0  0  0  0  0  0  0  0  0  0  0
    5.5614    2.2514   25.8671 C   0  0  0  0  0  0  0  0  0  0  0  0
    4.6995    1.1602   26.0277 C   0  0  0  0  0  0  0  0  0  0  0  0
    3.2244    1.2030   27.2488 Br  0  0  0  0  0  0  0  0  0  0  0  0
    4.9004    0.0284   25.2432 C   0  0  0  0  0  0  0  0  0  0  0  0
    5.9082    0.0192   24.2706 C   0  0  0  0  0  0  0  0  0  0  0  0
    6.6986    1.1470   24.0433 C   0  0  0  0  0  0  0  0  0  0  0  0
    7.6227    1.2174   22.8468 C   0  0  0  0  0  0  0  0  0  0  0  0
    7.8923   -0.1048   22.2586 N   0  0  0  0  0  0  0  0  0  0  0  0
    8.5812   -1.0770   22.9308 N   0  0  0  0  0  0  0  0  0  0  0  0
    8.4463   -2.1733   22.2254 C   0  0  0  0  0  0  0  0  0  0  0  0
    7.6594   -1.9040   21.0417 C   0  0  0  0  0  0  0  0  0  0  0  0
    7.3796   -0.5766   21.0448 C   0  0  0  0  0  0  0  0  0  0  0  0
    6.6592    0.0971   19.9512 C   0  0  0  0  0  0  0  0  0  0  0  0
    5.4532    0.7639   20.1827 C   0  0  0  0  0  0  0  0  0  0  0  0
    4.8147    1.3550   19.0886 C   0  0  0  0  0  0  0  0  0  0  0  0
    5.4011    1.2983   17.8179 C   0  0  0  0  0  0  0  0  0  0  0  0
    6.5461    0.6336   17.5787 N   0  0  0  0  0  0  0  0  0  0  0  0
    7.1495    0.0382   18.6279 C   0  0  0  0  0  0  0  0  0  0  0  0
    8.0759   -0.4959   18.4325 H   0  0  0  0  0  0  0  0  0  0  0  0
    4.9049    1.8005   16.9934 H   0  0  0  0  0  0  0  0  0  0  0  0
    3.8668    1.8705   19.2043 H   0  0  0  0  0  0  0  0  0  0  0  0
    5.0175    0.7956   21.1804 H   0  0  0  0  0  0  0  0  0  0  0  0
    7.3183   -2.6149   20.3046 H   0  0  0  0  0  0  0  0  0  0  0  0
    8.8911   -3.1329   22.4844 H   0  0  0  0  0  0  0  0  0  0  0  0
    7.1458    1.8372   22.0818 H   0  0  0  0  0  0  0  0  0  0  0  0
    8.5654    1.6904   23.1434 H   0  0  0  0  0  0  0  0  0  0  0  0
    6.0564   -0.8428   23.6244 H   0  0  0  0  0  0  0  0  0  0  0  0
    4.2348   -0.8220   25.3505 H   0  0  0  0  0  0  0  0  0  0  0  0
    5.4533    3.1241   26.4971 H   0  0  0  0  0  0  0  0  0  0  0  0
    6.4660    4.8383   25.7413 H   0  0  0  0  0  0  0  0  0  0  0  0
    8.2337    5.0175   25.5455 H   0  0  0  0  0  0  0  0  0  0  0  0
    7.5885    3.7977   26.6818 H   0  0  0  0  0  0  0  0  0  0  0  0
  1  2  1  0
  2  3  1  0
  3  4  2  0
  4  5  1  0
  5  6  1  0
  5  7  2  0
  7  8  1  0
  8  9  2  0
  9 10  1  0
 10 11  1  0
 11 12  1  0
 12 13  2  0
 13 14  1  0
 14 15  2  0
 15 16  1  0
 16 17  2  0
 17 18  1  0
 18 19  2  0
 19 20  1  0
 20 21  2  0
 21 22  1  0
 19 23  1  0
 18 24  1  0
 17 25  1  0
 14 26  1  0
 13 27  1  0
 10 28  1  0
 10 29  1  0
  8 30  1  0
  7 31  1  0
  4 32  1  0
  1 33  1  0
  1 34  1  0
  1 35  1  0
  9  3  1  0
 15 11  1  0
 21 16  1  0
M  END
>  <cnnaffinity>  (1) 
-4.7479

>  <filename>  (1) 
COc1cc(Br)ccc1Cn1nccc1-c1cccnc1

$$$$
