
     RDKit          3D

 44 45  0  0  0  0  0  0  0  0999 V2000
    4.8665    6.0668   22.1675 C   0  0  0  0  0  0  0  0  0  0  0  0
    5.5743    5.9838   23.3922 O   0  0  0  0  0  0  0  0  0  0  0  0
    6.0672    4.8059   23.8284 C   0  0  0  0  0  0  0  0  0  0  0  0
    5.9263    3.5822   23.1523 C   0  0  0  0  0  0  0  0  0  0  0  0
    6.4565    2.4104   23.6961 C   0  0  0  0  0  0  0  0  0  0  0  0
    7.1479    2.4220   24.9135 C   0  0  0  0  0  0  0  0  0  0  0  0
    7.7456    1.1560   25.4781 C   0  0  0  0  0  0  0  0  0  0  0  0
    9.2526    0.9647   25.1524 N   0  0  0  0  0  4  0  0  0  0  0  0
   10.0803    1.9398   25.8969 C   0  0  0  0  0  0  0  0  0  0  0  0
    9.6913    1.9934   26.9073 H   0  0  0  0  0  0  0  0  0  0  0  0
    9.9998    2.9343   25.4504 H   0  0  0  0  0  0  0  0  0  0  0  0
   11.1399    1.6630   25.9056 H   0  0  0  0  0  0  0  0  0  0  0  0
    9.5736    1.0194   23.6445 C   0  0  0  0  0  0  0  0  0  0  0  0
    8.8881   -0.0903   22.8444 C   0  0  0  0  0  0  0  0  0  0  0  0
    8.8945   -1.2474   23.2425 O   0  0  0  0  0  0  0  0  0  0  0  0
    8.2788    0.2828   21.6905 N   0  0  0  0  0  0  0  0  0  0  0  0
    7.4261   -0.6786   21.0005 C   0  0  0  0  0  0  0  0  0  0  0  0
    6.6630    0.0206   19.9137 C   0  0  0  0  0  0  0  0  0  0  0  0
    5.4450    0.6700   20.1550 C   0  0  0  0  0  0  0  0  0  0  0  0
    4.8020    1.3210   19.0981 C   0  0  0  0  0  0  0  0  0  0  0  0
    5.4011    1.2990   17.8343 C   0  0  0  0  0  0  0  0  0  0  0  0
    6.5663    0.6882   17.5849 N   0  0  0  0  0  0  0  0  0  0  0  0
    7.1759    0.0784   18.6079 C   0  0  0  0  0  0  0  0  0  0  0  0
    8.1186   -0.4136   18.3661 H   0  0  0  0  0  0  0  0  0  0  0  0
    4.9333    1.7955   16.9849 H   0  0  0  0  0  0  0  0  0  0  0  0
    3.8623    1.8421   19.2344 H   0  0  0  0  0  0  0  0  0  0  0  0
    4.9981    0.6512   21.1522 H   0  0  0  0  0  0  0  0  0  0  0  0
    6.7477   -1.1536   21.7256 H   0  0  0  0  0  0  0  0  0  0  0  0
    8.0581   -1.4918   20.6184 H   0  0  0  0  0  0  0  0  0  0  0  0
    8.2707    1.2510   21.4099 H   0  0  0  0  0  0  0  0  0  0  0  0
    9.2994    2.0053   23.2683 H   0  0  0  0  0  0  0  0  0  0  0  0
   10.6561    0.9015   23.5157 H   0  0  0  0  0  0  0  0  0  0  0  0
    9.4924   -0.0132   25.4542 H   0  0  0  0  0  0  0  0  0  0  0  0
    7.6349    1.1408   26.5685 H   0  0  0  0  0  0  0  0  0  0  0  0
    7.2455    0.2795   25.0669 H   0  0  0  0  0  0  0  0  0  0  0  0
    7.2855    3.6456   25.5901 C   0  0  0  0  0  0  0  0  0  0  0  0
    6.7599    4.8209   25.0613 C   0  0  0  0  0  0  0  0  0  0  0  0
    6.9576    6.3094   25.9437 Cl  0  0  0  0  0  0  0  0  0  0  0  0
    7.8275    3.7113   26.5315 H   0  0  0  0  0  0  0  0  0  0  0  0
    6.3560    1.4672   23.1617 H   0  0  0  0  0  0  0  0  0  0  0  0
    5.3896    3.5801   22.2075 H   0  0  0  0  0  0  0  0  0  0  0  0
    4.6054    7.1229   22.0803 H   0  0  0  0  0  0  0  0  0  0  0  0
    5.4909    5.7594   21.3160 H   0  0  0  0  0  0  0  0  0  0  0  0
    3.9540    5.4524   22.1828 H   0  0  0  0  0  0  0  0  0  0  0  0
  1  2  1  0
  2  3  1  0
  3  4  2  0
  4  5  1  0
  5  6  2  0
  6  7  1  0
  7  8  1  0
  8  9  1  0
  9 10  1  0
  9 11  1  0
  9 12  1  0
  8 13  1  0
 13 14  1  0
 14 15  2  0
 14 16  1  0
 16 17  1  0
 17 18  1  0
 18 19  2  0
 19 20  1  0
 20 21  2  0
 21 22  1  0
 22 23  2  0
 23 24  1  0
 21 25  1  0
 20 26  1  0
 19 27  1  0
 17 28  1  0
 17 29  1  0
 16 30  1  0
 13 31  1  0
 13 32  1  0
  8 33  1  0
  7 34  1  0
  7 35  1  0
  6 36  1  0
 36 37  2  0
 37 38  1  0
 36 39  1  0
  5 40  1  0
  4 41  1  0
  1 42  1  0
  1 43  1  0
  1 44  1  0
 37  3  1  0
 23 18  1  0
M  CHG  1   8   1
M  END
>  <cnnaffinity>  (1) 
-4.69798

>  <filename>  (1) 
COc1ccc(C[NH+](C)CC(=O)NCc2cccnc2)cc1Cl

$$$$
