
     RDKit          3D

 45 47  0  0  0  0  0  0  0  0999 V2000
    9.5864   -2.6458   23.4861 C   0  0  0  0  0  0  0  0  0  0  0  0
    8.7613   -1.8891   24.3537 O   0  0  0  0  0  0  0  0  0  0  0  0
    8.2375   -2.4542   25.4629 C   0  0  0  0  0  0  0  0  0  0  0  0
    8.5670   -3.7621   25.8561 C   0  0  0  0  0  0  0  0  0  0  0  0
    7.8299   -4.4146   26.8458 C   0  0  0  0  0  0  0  0  0  0  0  0
    6.8029   -3.7458   27.5007 C   0  0  0  0  0  0  0  0  0  0  0  0
    6.5743   -2.4017   27.2024 C   0  0  0  0  0  0  0  0  0  0  0  0
    5.6459   -1.7895   27.9376 F   0  0  0  0  0  0  0  0  0  0  0  0
    7.2750   -1.7063   26.1975 C   0  0  0  0  0  0  0  0  0  0  0  0
    6.9241   -0.2747   25.9355 C   0  0  0  0  0  0  0  0  0  0  0  0
    5.9586    0.2814   26.3999 O   0  0  0  0  0  0  0  0  0  0  0  0
    7.8022    0.3478   25.1295 O   0  0  0  0  0  0  0  0  0  0  0  0
    7.3718    1.5877   24.5399 C   0  0  0  0  0  0  0  0  0  0  0  0
    8.3355    1.9308   23.4383 C   0  0  0  0  0  0  0  0  0  0  0  0
    9.1926    3.0254   23.5596 C   0  0  0  0  0  0  0  0  0  0  0  0
   10.1438    3.2942   22.5738 C   0  0  0  0  0  0  0  0  0  0  0  0
   11.1992    4.6637   22.7619 Cl  0  0  0  0  0  0  0  0  0  0  0  0
   10.2367    2.4859   21.4430 C   0  0  0  0  0  0  0  0  0  0  0  0
    9.3460    1.4206   21.2802 C   0  0  0  0  0  0  0  0  0  0  0  0
    8.3965    1.1358   22.2713 C   0  0  0  0  0  0  0  0  0  0  0  0
    7.4926    0.1136   22.1923 O   0  0  0  0  0  0  0  0  0  0  0  0
    7.3875   -0.6833   21.0203 C   0  0  0  0  0  0  0  0  0  0  0  0
    6.6481    0.0151   19.8983 C   0  0  0  0  0  0  0  0  0  0  0  0
    5.4330    0.6781   20.1307 C   0  0  0  0  0  0  0  0  0  0  0  0
    4.8053    1.3213   19.0634 C   0  0  0  0  0  0  0  0  0  0  0  0
    5.4157    1.2968   17.8061 C   0  0  0  0  0  0  0  0  0  0  0  0
    6.5734    0.6661   17.5629 N   0  0  0  0  0  0  0  0  0  0  0  0
    7.1647    0.0526   18.5966 C   0  0  0  0  0  0  0  0  0  0  0  0
    8.1100   -0.4439   18.3668 H   0  0  0  0  0  0  0  0  0  0  0  0
    4.9568    1.8039   16.9582 H   0  0  0  0  0  0  0  0  0  0  0  0
    3.8685    1.8520   19.1938 H   0  0  0  0  0  0  0  0  0  0  0  0
    4.9989    0.6981   21.1324 H   0  0  0  0  0  0  0  0  0  0  0  0
    8.3830   -1.0166   20.6906 H   0  0  0  0  0  0  0  0  0  0  0  0
    6.8539   -1.5789   21.3626 H   0  0  0  0  0  0  0  0  0  0  0  0
    9.3709    0.8194   20.3802 H   0  0  0  0  0  0  0  0  0  0  0  0
   10.9863    2.7039   20.6885 H   0  0  0  0  0  0  0  0  0  0  0  0
    9.1311    3.6855   24.4220 H   0  0  0  0  0  0  0  0  0  0  0  0
    7.3552    2.3561   25.3197 H   0  0  0  0  0  0  0  0  0  0  0  0
    6.3517    1.4700   24.1521 H   0  0  0  0  0  0  0  0  0  0  0  0
    6.2024   -4.2092   28.2775 H   0  0  0  0  0  0  0  0  0  0  0  0
    8.0574   -5.4526   27.0899 H   0  0  0  0  0  0  0  0  0  0  0  0
    9.3848   -4.2736   25.3617 H   0  0  0  0  0  0  0  0  0  0  0  0
   10.5359   -2.9133   23.9731 H   0  0  0  0  0  0  0  0  0  0  0  0
    9.7952   -1.9985   22.6304 H   0  0  0  0  0  0  0  0  0  0  0  0
    9.0735   -3.5566   23.1378 H   0  0  0  0  0  0  0  0  0  0  0  0
  1  2  1  0
  2  3  1  0
  3  4  2  0
  4  5  1  0
  5  6  2  0
  6  7  1  0
  7  8  1  0
  7  9  2  0
  9 10  1  0
 10 11  2  0
 10 12  1  0
 12 13  1  0
 13 14  1  0
 14 15  2  0
 15 16  1  0
 16 17  1  0
 16 18  2  0
 18 19  1  0
 19 20  2  0
 20 21  1  0
 21 22  1  0
 22 23  1  0
 23 24  2  0
 24 25  1  0
 25 26  2  0
 26 27  1  0
 27 28  2  0
 28 29  1  0
 26 30  1  0
 25 31  1  0
 24 32  1  0
 22 33  1  0
 22 34  1  0
 19 35  1  0
 18 36  1  0
 15 37  1  0
 13 38  1  0
 13 39  1  0
  6 40  1  0
  5 41  1  0
  4 42  1  0
  1 43  1  0
  1 44  1  0
  1 45  1  0
  9  3  1  0
 20 14  1  0
 28 23  1  0
M  END
>  <cnnaffinity>  (1) 
-5.52938

>  <filename>  (1) 
COc1cccc(F)c1C(=O)OCc1cc(Cl)ccc1OCc1cccnc1

$$$$
