
     RDKit          3D

 39 41  0  0  0  0  0  0  0  0999 V2000
    4.9130    1.7964   16.9869 H   0  0  0  0  0  0  0  0  0  0  0  0
    5.3875    1.2998   17.8299 C   0  0  0  0  0  0  0  0  0  0  0  0
    6.5452    0.6753   17.5632 N   0  0  0  0  0  0  0  0  0  0  0  0
    7.1653    0.0577   18.5745 C   0  0  0  0  0  0  0  0  0  0  0  0
    8.1213   -0.4176   18.3571 H   0  0  0  0  0  0  0  0  0  0  0  0
    6.6504    0.0090   19.8838 C   0  0  0  0  0  0  0  0  0  0  0  0
    7.3473   -0.6851   20.9402 N   0  0  0  0  0  0  0  0  0  0  0  0
    6.7184   -1.7317   21.5978 C   0  0  0  0  0  0  0  0  0  0  0  0
    5.7088   -1.9432   21.2533 H   0  0  0  0  0  0  0  0  0  0  0  0
    7.3057   -2.4347   22.6008 C   0  0  0  0  0  0  0  0  0  0  0  0
    6.6142   -3.5522   23.2828 C   0  0  0  0  0  0  0  0  0  0  0  0
    5.9671   -4.5401   22.5373 C   0  0  0  0  0  0  0  0  0  0  0  0
    6.0085   -4.4941   21.4537 H   0  0  0  0  0  0  0  0  0  0  0  0
    5.3073   -5.5976   23.1731 C   0  0  0  0  0  0  0  0  0  0  0  0
    4.8131   -6.3545   22.5736 H   0  0  0  0  0  0  0  0  0  0  0  0
    5.2661   -5.6801   24.5692 C   0  0  0  0  0  0  0  0  0  0  0  0
    4.6360   -6.6692   25.2531 O   0  0  0  0  0  0  0  0  0  0  0  0
    3.9590   -7.7061   24.5708 C   0  0  0  0  0  0  0  0  0  0  0  0
    3.5603   -8.3436   25.3611 H   0  0  0  0  0  0  0  0  0  0  0  0
    4.6380   -8.2912   23.9340 H   0  0  0  0  0  0  0  0  0  0  0  0
    3.1271   -7.3300   23.9564 H   0  0  0  0  0  0  0  0  0  0  0  0
    5.9224   -4.6647   25.3477 C   0  0  0  0  0  0  0  0  0  0  0  0
    5.8556   -4.7863   26.6983 O   0  0  0  0  0  0  0  0  0  0  0  0
    6.4769   -3.8493   27.5533 C   0  0  0  0  0  0  0  0  0  0  0  0
    6.0633   -2.8357   27.4407 H   0  0  0  0  0  0  0  0  0  0  0  0
    7.5687   -3.8087   27.4164 H   0  0  0  0  0  0  0  0  0  0  0  0
    6.2543   -4.2172   28.5561 H   0  0  0  0  0  0  0  0  0  0  0  0
    6.5871   -3.6320   24.6880 C   0  0  0  0  0  0  0  0  0  0  0  0
    7.1142   -2.8646   25.2465 H   0  0  0  0  0  0  0  0  0  0  0  0
    8.6873   -2.0721   22.9920 C   0  0  0  0  0  0  0  0  0  0  0  0
    9.4086   -2.5779   23.8241 O   0  0  0  0  0  0  0  0  0  0  0  0
    9.2107   -1.0226   22.2836 N   0  0  0  0  0  0  0  0  0  0  0  0
   10.1458   -0.7593   22.5235 H   0  0  0  0  0  0  0  0  0  0  0  0
    8.6557   -0.2906   21.2976 C   0  0  0  0  0  0  0  0  0  0  0  0
    9.2836    0.6058   20.7860 O   0  0  0  0  0  0  0  0  0  0  0  0
    5.4367    0.6458   20.1493 C   0  0  0  0  0  0  0  0  0  0  0  0
    5.0285    0.6236   21.1599 H   0  0  0  0  0  0  0  0  0  0  0  0
    4.8033    1.3172   19.0997 C   0  0  0  0  0  0  0  0  0  0  0  0
    3.8740    1.8461   19.2551 H   0  0  0  0  0  0  0  0  0  0  0  0
  1  2  1  0
  2  3  2  0
  3  4  1  0
  4  5  1  0
  4  6  2  0
  6  7  1  0
  7  8  1  0
  8  9  1  0
  8 10  2  0
 10 11  1  0
 11 12  2  0
 12 13  1  0
 12 14  1  0
 14 15  1  0
 14 16  2  0
 16 17  1  0
 17 18  1  0
 18 19  1  0
 18 20  1  0
 18 21  1  0
 16 22  1  0
 22 23  1  0
 23 24  1  0
 24 25  1  0
 24 26  1  0
 24 27  1  0
 22 28  2  0
 28 29  1  0
 10 30  1  0
 30 31  2  0
 30 32  1  0
 32 33  1  0
 32 34  1  0
 34 35  2  0
  6 36  1  0
 36 37  1  0
 36 38  2  0
 38 39  1  0
 38  2  1  0
 34  7  1  0
 28 11  1  0
M  END
>  <cnnaffinity>  (1) 
-5.34653

>  <filename>  (1) 
COc1ccc(-c2cn(-c3cccnc3)c(=O)[nH]c2=O)cc1OC

$$$$
