
     RDKit          3D

 29 30  0  0  0  0  0  0  0  0999 V2000
    4.9556    1.7653   17.0110 H   0  0  0  0  0  0  0  0  0  0  0  0
    5.4138    1.2778   17.8659 C   0  0  0  0  0  0  0  0  0  0  0  0
    6.5771    0.6583   17.6252 N   0  0  0  0  0  0  0  0  0  0  0  0
    7.1724    0.0450   18.6522 C   0  0  0  0  0  0  0  0  0  0  0  0
    8.1150   -0.4478   18.4149 H   0  0  0  0  0  0  0  0  0  0  0  0
    6.6485    0.0258   19.9533 C   0  0  0  0  0  0  0  0  0  0  0  0
    7.4104   -0.7083   20.9768 C   0  0  0  0  0  0  0  0  0  0  0  0
    8.1224   -1.7094   20.6248 N   0  0  0  0  0  0  0  0  0  0  0  0
    8.7725   -2.5527   21.5811 C   0  0  0  0  0  0  0  0  0  0  0  0
    9.3478   -3.2598   20.9734 H   0  0  0  0  0  0  0  0  0  0  0  0
    9.4760   -1.9904   22.2216 H   0  0  0  0  0  0  0  0  0  0  0  0
    7.9313   -3.3596   22.4793 N   0  0  0  0  0  0  0  0  0  0  0  0
    7.9921   -3.3981   23.8747 N   0  0  0  0  0  0  0  0  0  0  0  0
    7.0394   -4.2099   24.1698 C   0  0  0  0  0  0  0  0  0  0  0  0
    6.7258   -4.5340   25.4058 O   0  0  0  0  0  0  0  0  0  0  0  0
    5.6795   -5.4523   25.7393 C   0  0  0  0  0  0  0  0  0  0  0  0
    4.6976   -5.0949   25.4037 H   0  0  0  0  0  0  0  0  0  0  0  0
    5.7054   -5.4771   26.8317 H   0  0  0  0  0  0  0  0  0  0  0  0
    5.8752   -6.4581   25.3469 H   0  0  0  0  0  0  0  0  0  0  0  0
    6.3557   -4.7285   23.1317 O   0  0  0  0  0  0  0  0  0  0  0  0
    6.9567   -4.1736   21.9982 C   0  0  0  0  0  0  0  0  0  0  0  0
    6.6440   -4.4371   20.8761 O   0  0  0  0  0  0  0  0  0  0  0  0
    7.3511   -0.2376   22.2336 N   0  0  0  0  0  0  0  0  0  0  0  0
    6.8892    0.6311   22.3960 H   0  0  0  0  0  0  0  0  0  0  0  0
    7.7031   -0.8320   22.9645 H   0  0  0  0  0  0  0  0  0  0  0  0
    5.4250    0.6720   20.1895 C   0  0  0  0  0  0  0  0  0  0  0  0
    4.9564    0.6504   21.1773 H   0  0  0  0  0  0  0  0  0  0  0  0
    4.8020    1.3084   19.1219 C   0  0  0  0  0  0  0  0  0  0  0  0
    3.8702    1.8412   19.2501 H   0  0  0  0  0  0  0  0  0  0  0  0
  1  2  1  0
  2  3  2  0
  3  4  1  0
  4  5  1  0
  4  6  2  0
  6  7  1  0
  7  8  2  3
  8  9  1  0
  9 10  1  0
  9 11  1  0
  9 12  1  0
 12 13  1  0
 13 14  2  0
 14 15  1  0
 15 16  1  0
 16 17  1  0
 16 18  1  0
 16 19  1  0
 14 20  1  0
 20 21  1  0
 21 22  2  0
  7 23  1  0
 23 24  1  0
 23 25  1  0
  6 26  1  0
 26 27  1  0
 26 28  2  0
 28 29  1  0
 28  2  1  0
 21 12  1  0
M  END
>  <cnnaffinity>  (1) 
-4.59552

>  <filename>  (1) 
COc1nn(CN=C(N)c2cccnc2)c(=O)o1

$$$$
