
     RDKit          3D

 35 37  0  0  0  0  0  0  0  0999 V2000
    4.9238    1.7864   16.9974 H   0  0  0  0  0  0  0  0  0  0  0  0
    5.4021    1.2906   17.8391 C   0  0  0  0  0  0  0  0  0  0  0  0
    6.5647    0.6713   17.5737 N   0  0  0  0  0  0  0  0  0  0  0  0
    7.1953    0.0681   18.5919 C   0  0  0  0  0  0  0  0  0  0  0  0
    8.1372   -0.4238   18.3495 H   0  0  0  0  0  0  0  0  0  0  0  0
    6.7017    0.0332   19.9172 C   0  0  0  0  0  0  0  0  0  0  0  0
    7.3912   -0.5796   21.0022 N   0  0  0  0  0  0  0  0  0  0  0  0
    8.3954   -0.6526   20.9788 H   0  0  0  0  0  0  0  0  0  0  0  0
    6.7752   -1.3929   21.9303 C   0  0  0  0  0  0  0  0  0  0  0  0
    5.7061   -1.9285   21.7105 O   0  0  0  0  0  0  0  0  0  0  0  0
    7.6023   -1.6565   23.1978 C   0  0  0  0  0  0  0  0  0  0  0  0
    7.9184   -0.4517   24.0970 C   0  0  0  0  0  0  0  0  0  0  0  0
    8.3595   -0.8112   25.0378 H   0  0  0  0  0  0  0  0  0  0  0  0
    8.6449    0.2274   23.6342 H   0  0  0  0  0  0  0  0  0  0  0  0
    6.7690    0.3558   24.4624 N   0  0  0  0  0  0  0  0  0  0  0  0
    6.3969    1.4917   23.7428 N   0  0  0  0  0  0  0  0  0  0  0  0
    5.2686    1.7918   24.2786 C   0  0  0  0  0  0  0  0  0  0  0  0
    4.4441    2.7799   23.9848 O   0  0  0  0  0  0  0  0  0  0  0  0
    4.8385    3.6414   22.9039 C   0  0  0  0  0  0  0  0  0  0  0  0
    4.0440    4.3871   22.8372 H   0  0  0  0  0  0  0  0  0  0  0  0
    4.9189    3.0769   21.9635 H   0  0  0  0  0  0  0  0  0  0  0  0
    5.7976    4.1281   23.1176 H   0  0  0  0  0  0  0  0  0  0  0  0
    4.8421    0.9987   25.2665 O   0  0  0  0  0  0  0  0  0  0  0  0
    5.8328    0.0379   25.4051 C   0  0  0  0  0  0  0  0  0  0  0  0
    5.8133   -0.8411   26.2231 O   0  0  0  0  0  0  0  0  0  0  0  0
    8.6619   -2.7345   23.0905 C   0  0  0  0  0  0  0  0  0  0  0  0
    9.6069   -2.6115   23.6251 H   0  0  0  0  0  0  0  0  0  0  0  0
    8.7850   -3.2306   22.1297 H   0  0  0  0  0  0  0  0  0  0  0  0
    7.4032   -2.9938   23.8735 C   0  0  0  0  0  0  0  0  0  0  0  0
    7.4567   -3.0423   24.9639 H   0  0  0  0  0  0  0  0  0  0  0  0
    6.6433   -3.6465   23.4477 H   0  0  0  0  0  0  0  0  0  0  0  0
    5.4675    0.6503   20.1622 C   0  0  0  0  0  0  0  0  0  0  0  0
    5.0487    0.6021   21.1687 H   0  0  0  0  0  0  0  0  0  0  0  0
    4.8183    1.3073   19.1102 C   0  0  0  0  0  0  0  0  0  0  0  0
    3.8806    1.8339   19.2569 H   0  0  0  0  0  0  0  0  0  0  0  0
  1  2  1  0
  2  3  2  0
  3  4  1  0
  4  5  1  0
  4  6  2  0
  6  7  1  0
  7  8  1  0
  7  9  1  0
  9 10  2  0
  9 11  1  0
 11 12  1  0
 12 13  1  0
 12 14  1  0
 12 15  1  0
 15 16  1  0
 16 17  2  0
 17 18  1  0
 18 19  1  0
 19 20  1  0
 19 21  1  0
 19 22  1  0
 17 23  1  0
 23 24  1  0
 24 25  2  0
 11 26  1  0
 26 27  1  0
 26 28  1  0
 26 29  1  0
 29 30  1  0
 29 31  1  0
  6 32  1  0
 32 33  1  0
 32 34  2  0
 34 35  1  0
 34  2  1  0
 29 11  1  0
 24 15  1  0
M  END
>  <cnnaffinity>  (1) 
-5.49989

>  <filename>  (1) 
COc1nn(CC2(C(=O)Nc3cccnc3)CC2)c(=O)o1

$$$$
