
     RDKit          3D

 43 46  0  0  0  0  0  0  0  0999 V2000
    5.0243    1.8626   16.9235 H   0  0  0  0  0  0  0  0  0  0  0  0
    5.4639    1.3580   17.7803 C   0  0  0  0  0  0  0  0  0  0  0  0
    6.6227    0.7177   17.5636 N   0  0  0  0  0  0  0  0  0  0  0  0
    7.1838    0.0843   18.6042 C   0  0  0  0  0  0  0  0  0  0  0  0
    8.1246   -0.4156   18.3939 H   0  0  0  0  0  0  0  0  0  0  0  0
    6.6416    0.0350   19.9217 C   0  0  0  0  0  0  0  0  0  0  0  0
    7.2241   -0.6799   20.9638 N   0  0  0  0  0  0  0  0  0  0  0  0
    7.1045   -0.2998   22.3965 C   0  0  0  0  0  0  0  0  0  0  0  0
    7.2064    0.7845   22.5467 H   0  0  0  0  0  0  0  0  0  0  0  0
    6.1573   -0.6470   22.8220 H   0  0  0  0  0  0  0  0  0  0  0  0
    8.3151   -1.0380   23.0273 C   0  0  2  0  0  0  0  0  0  0  0  0
    8.1997   -1.2186   24.1015 H   0  0  0  0  0  0  0  0  0  0  0  0
    9.5308   -0.2449   22.7168 N   0  0  0  0  0  0  0  0  0  0  0  0
   10.7031   -0.6130   23.5048 C   0  0  0  0  0  0  0  0  0  0  0  0
   10.4206   -0.5794   24.5616 H   0  0  0  0  0  0  0  0  0  0  0  0
   11.0326   -1.6498   23.3009 H   0  0  0  0  0  0  0  0  0  0  0  0
   11.8778    0.3193   23.3185 C   0  0  0  0  0  0  0  0  0  0  0  0
   13.0990   -0.1749   22.8442 C   0  0  0  0  0  0  0  0  0  0  0  0
   13.2259   -1.2452   22.6813 H   0  0  0  0  0  0  0  0  0  0  0  0
   14.1716    0.6771   22.5843 C   0  0  0  0  0  0  0  0  0  0  0  0
   15.1001    0.2906   22.1822 H   0  0  0  0  0  0  0  0  0  0  0  0
   14.0320    2.0430   22.8151 C   0  0  0  0  0  0  0  0  0  0  0  0
   14.8431    2.7222   22.5547 H   0  0  0  0  0  0  0  0  0  0  0  0
   12.8425    2.5585   23.3350 C   0  0  0  0  0  0  0  0  0  0  0  0
   12.7314    3.6179   23.5398 H   0  0  0  0  0  0  0  0  0  0  0  0
   11.7656    1.7012   23.6005 C   0  0  0  0  0  0  0  0  0  0  0  0
   10.6079    2.1222   24.1923 O   0  0  0  0  0  0  0  0  0  0  0  0
   10.2626    3.4893   24.1378 C   0  0  0  0  0  0  0  0  0  0  0  0
    9.2797    3.5686   24.6022 H   0  0  0  0  0  0  0  0  0  0  0  0
   10.9719    4.1219   24.6905 H   0  0  0  0  0  0  0  0  0  0  0  0
   10.2059    3.8465   23.1017 H   0  0  0  0  0  0  0  0  0  0  0  0
    9.6625   -0.4084   21.2299 C   0  0  0  0  0  0  0  0  0  0  0  0
    9.5153    0.5446   20.7045 H   0  0  0  0  0  0  0  0  0  0  0  0
   10.6369   -0.8198   20.9384 H   0  0  0  0  0  0  0  0  0  0  0  0
    8.5115   -1.3831   20.8672 C   0  0  1  0  0  0  0  0  0  0  0  0
    8.6563   -1.8750   19.9126 H   0  0  0  0  0  0  0  0  0  0  0  0
    8.4292   -2.2684   22.1121 C   0  0  0  0  0  0  0  0  0  0  0  0
    9.3224   -2.8733   22.2942 H   0  0  0  0  0  0  0  0  0  0  0  0
    7.5457   -2.9093   22.1186 H   0  0  0  0  0  0  0  0  0  0  0  0
    5.4134    0.7070   20.1079 C   0  0  0  0  0  0  0  0  0  0  0  0
    4.9401    0.6965   21.0879 H   0  0  0  0  0  0  0  0  0  0  0  0
    4.8293    1.3743   19.0273 C   0  0  0  0  0  0  0  0  0  0  0  0
    3.8983    1.9188   19.1437 H   0  0  0  0  0  0  0  0  0  0  0  0
  1  2  1  0
  2  3  2  0
  3  4  1  0
  4  5  1  0
  4  6  2  0
  6  7  1  0
  7  8  1  0
  8  9  1  0
  8 10  1  0
  8 11  1  0
 11 12  1  1
 11 13  1  0
 13 14  1  0
 14 15  1  0
 14 16  1  0
 14 17  1  0
 17 18  2  0
 18 19  1  0
 18 20  1  0
 20 21  1  0
 20 22  2  0
 22 23  1  0
 22 24  1  0
 24 25  1  0
 24 26  2  0
 26 27  1  0
 27 28  1  0
 28 29  1  0
 28 30  1  0
 28 31  1  0
 13 32  1  0
 32 33  1  0
 32 34  1  0
 32 35  1  0
 35 36  1  6
 35 37  1  0
 37 38  1  0
 37 39  1  0
  6 40  1  0
 40 41  1  0
 40 42  2  0
 42 43  1  0
 42  2  1  0
 35  7  1  0
 37 11  1  0
 26 17  1  0
M  END
>  <cnnaffinity>  (1) 
-5.62847

>  <filename>  (1) 
COc1ccccc1CN1C[C@H]2C[C@@H]1CN2c1cccnc1

$$$$
