
     RDKit          3D

 43 45  0  0  0  0  0  0  0  0999 V2000
    9.9621   -5.0080   26.3416 C   0  0  0  0  0  0  0  0  0  0  0  0
    9.2607   -4.0306   25.5889 O   0  0  0  0  0  0  0  0  0  0  0  0
    8.0085   -4.3249   25.1152 C   0  0  0  0  0  0  0  0  0  0  0  0
    7.3948   -5.5739   25.3182 C   0  0  0  0  0  0  0  0  0  0  0  0
    6.1410   -5.8515   24.7717 C   0  0  0  0  0  0  0  0  0  0  0  0
    5.5129   -4.9084   23.9641 C   0  0  0  0  0  0  0  0  0  0  0  0
    6.1077   -3.6584   23.7711 C   0  0  0  0  0  0  0  0  0  0  0  0
    7.3239   -3.3189   24.3826 C   0  0  0  0  0  0  0  0  0  0  0  0
    7.7910   -1.8507   24.3156 C   0  0  0  0  0  0  0  0  0  0  0  0
    6.9344   -0.9510   25.2336 C   0  0  0  0  0  0  0  0  0  0  0  0
    7.2869    0.0865   25.1923 H   0  0  0  0  0  0  0  0  0  0  0  0
    6.9992   -1.3014   26.2711 H   0  0  0  0  0  0  0  0  0  0  0  0
    5.8799   -0.9722   24.9264 H   0  0  0  0  0  0  0  0  0  0  0  0
    7.7899   -1.3533   22.8819 C   0  0  0  0  0  0  0  0  0  0  0  0
    6.8708   -0.6578   22.2391 N   0  0  0  0  0  0  0  0  0  0  0  0
    7.3404   -0.6010   20.9673 C   0  0  0  0  0  0  0  0  0  0  0  0
    6.6208    0.0482   19.8854 C   0  0  0  0  0  0  0  0  0  0  0  0
    5.3974    0.6934   20.1065 C   0  0  0  0  0  0  0  0  0  0  0  0
    4.7944    1.3295   19.0262 C   0  0  0  0  0  0  0  0  0  0  0  0
    5.4304    1.2961   17.7795 C   0  0  0  0  0  0  0  0  0  0  0  0
    6.5905    0.6581   17.5568 N   0  0  0  0  0  0  0  0  0  0  0  0
    7.1675    0.0469   18.5951 C   0  0  0  0  0  0  0  0  0  0  0  0
    8.1073   -0.4660   18.3995 H   0  0  0  0  0  0  0  0  0  0  0  0
    5.0006    1.8009   16.9181 H   0  0  0  0  0  0  0  0  0  0  0  0
    3.8602    1.8648   19.1352 H   0  0  0  0  0  0  0  0  0  0  0  0
    4.9529    0.6983   21.1031 H   0  0  0  0  0  0  0  0  0  0  0  0
    8.4981   -1.2021   20.7871 N   0  0  0  0  0  0  0  0  0  0  0  0
    8.7657   -1.7031   22.0095 N   0  0  0  0  0  0  0  0  0  0  0  0
    9.9938   -2.4458   22.1404 C   0  0  0  0  0  0  0  0  0  0  0  0
   11.1814   -1.5240   22.3150 C   0  0  0  0  0  0  0  0  0  0  0  0
   11.0819   -0.9010   23.5272 F   0  0  0  0  0  0  0  0  0  0  0  0
   12.3147   -2.2716   22.3115 F   0  0  0  0  0  0  0  0  0  0  0  0
   11.2768   -0.7616   21.5371 H   0  0  0  0  0  0  0  0  0  0  0  0
    9.9414   -3.1609   22.9662 H   0  0  0  0  0  0  0  0  0  0  0  0
   10.1030   -2.9495   21.1835 H   0  0  0  0  0  0  0  0  0  0  0  0
    8.8297   -1.7983   24.6632 H   0  0  0  0  0  0  0  0  0  0  0  0
    5.6117   -2.9236   23.1307 H   0  0  0  0  0  0  0  0  0  0  0  0
    4.5648   -5.1346   23.4918 H   0  0  0  0  0  0  0  0  0  0  0  0
    5.6667   -6.8100   24.9838 H   0  0  0  0  0  0  0  0  0  0  0  0
    7.9012   -6.3397   25.8920 H   0  0  0  0  0  0  0  0  0  0  0  0
   10.1260   -5.9129   25.7423 H   0  0  0  0  0  0  0  0  0  0  0  0
    9.3995   -5.2634   27.2493 H   0  0  0  0  0  0  0  0  0  0  0  0
   10.9284   -4.5693   26.6080 H   0  0  0  0  0  0  0  0  0  0  0  0
  1  2  1  0
  2  3  1  0
  3  4  2  0
  4  5  1  0
  5  6  2  0
  6  7  1  0
  7  8  2  0
  8  9  1  0
  9 10  1  0
 10 11  1  0
 10 12  1  0
 10 13  1  0
  9 14  1  0
 14 15  2  0
 15 16  1  0
 16 17  1  0
 17 18  2  0
 18 19  1  0
 19 20  2  0
 20 21  1  0
 21 22  2  0
 22 23  1  0
 20 24  1  0
 19 25  1  0
 18 26  1  0
 16 27  2  0
 27 28  1  0
 28 29  1  0
 29 30  1  0
 30 31  1  0
 30 32  1  0
 30 33  1  0
 29 34  1  0
 29 35  1  0
  9 36  1  0
  7 37  1  0
  6 38  1  0
  5 39  1  0
  4 40  1  0
  1 41  1  0
  1 42  1  0
  1 43  1  0
  8  3  1  0
 28 14  1  0
 22 17  1  0
M  END
>  <cnnaffinity>  (1) 
-6.08779

>  <filename>  (1) 
COc1ccccc1C(C)c1nc(-c2cccnc2)nn1CC(F)F

$$$$
