
     RDKit          3D

 28 29  0  0  0  0  0  0  0  0999 V2000
    5.2115    1.9582   16.9758 H   0  0  0  0  0  0  0  0  0  0  0  0
    5.5509    1.3362   17.8019 C   0  0  0  0  0  0  0  0  0  0  0  0
    6.6481    0.5906   17.5846 N   0  0  0  0  0  0  0  0  0  0  0  0
    7.1049   -0.1644   18.6007 C   0  0  0  0  0  0  0  0  0  0  0  0
    7.9831   -0.7694   18.3782 H   0  0  0  0  0  0  0  0  0  0  0  0
    6.4993   -0.2191   19.8876 C   0  0  0  0  0  0  0  0  0  0  0  0
    6.9441   -0.9897   20.9815 N   0  0  0  0  0  0  0  0  0  0  0  0
    6.4231   -0.8399   21.8374 H   0  0  0  0  0  0  0  0  0  0  0  0
    8.5295   -1.5283   21.2542 S   0  0  0  0  0  0  0  0  0  0  0  0
    9.3901   -0.0158   21.7253 C   0  0  0  0  0  0  0  0  0  0  0  0
    9.7824    0.8793   20.7284 C   0  0  0  0  0  0  0  0  0  0  0  0
    9.5135    0.6871   19.6913 H   0  0  0  0  0  0  0  0  0  0  0  0
   10.5460    2.0030   21.0696 C   0  0  0  0  0  0  0  0  0  0  0  0
   10.8864    2.7089   20.3192 H   0  0  0  0  0  0  0  0  0  0  0  0
   10.8768    2.2590   22.3929 C   0  0  0  0  0  0  0  0  0  0  0  0
   11.4739    3.1158   22.6828 H   0  0  0  0  0  0  0  0  0  0  0  0
   10.4369    1.3891   23.4004 C   0  0  0  0  0  0  0  0  0  0  0  0
   10.7567    1.7544   24.6646 O   0  0  0  0  0  0  0  0  0  0  0  0
   10.3702    0.9326   25.7447 C   0  0  0  0  0  0  0  0  0  0  0  0
   10.7802    1.4411   26.6028 H   0  0  0  0  0  0  0  0  0  0  0  0
   10.8180   -0.0676   25.6784 H   0  0  0  0  0  0  0  0  0  0  0  0
    9.2787    0.8497   25.8508 H   0  0  0  0  0  0  0  0  0  0  0  0
    9.7075    0.2380   23.0703 C   0  0  0  0  0  0  0  0  0  0  0  0
    9.3870   -0.4234   23.8656 H   0  0  0  0  0  0  0  0  0  0  0  0
    5.3214    0.5257   20.0589 C   0  0  0  0  0  0  0  0  0  0  0  0
    4.8003    0.4576   21.0157 H   0  0  0  0  0  0  0  0  0  0  0  0
    4.8540    1.3243   19.0151 C   0  0  0  0  0  0  0  0  0  0  0  0
    3.9635    1.9384   19.1300 H   0  0  0  0  0  0  0  0  0  0  0  0
  1  2  1  0
  2  3  2  0
  3  4  1  0
  4  5  1  0
  4  6  2  0
  6  7  1  0
  7  8  1  0
  7  9  1  0
  9 10  1  0
 10 11  2  0
 11 12  1  0
 11 13  1  0
 13 14  1  0
 13 15  2  0
 15 16  1  0
 15 17  1  0
 17 18  1  0
 18 19  1  0
 19 20  1  0
 19 21  1  0
 19 22  1  0
 17 23  2  0
 23 24  1  0
  6 25  1  0
 25 26  1  0
 25 27  2  0
 27 28  1  0
 27  2  1  0
 23 10  1  0
M  END
>  <cnnaffinity>  (1) 
-4.46776

>  <filename>  (1) 
COc1cccc(SNc2cccnc2)c1

$$$$
