
     RDKit          3D

 38 40  0  0  0  0  0  0  0  0999 V2000
    5.0255    1.9839   16.9179 H   0  0  0  0  0  0  0  0  0  0  0  0
    5.4525    1.3847   17.7192 C   0  0  0  0  0  0  0  0  0  0  0  0
    6.6049    0.7546   17.4378 N   0  0  0  0  0  0  0  0  0  0  0  0
    7.1758    0.0439   18.4144 C   0  0  0  0  0  0  0  0  0  0  0  0
    8.1101   -0.4612   18.1675 H   0  0  0  0  0  0  0  0  0  0  0  0
    6.6289   -0.0941   19.7070 C   0  0  0  0  0  0  0  0  0  0  0  0
    7.3608   -0.7882   20.7394 N   0  0  0  0  0  0  0  0  0  0  0  0
    8.6904   -0.4324   20.9614 C   0  0  0  0  0  0  0  0  0  0  0  0
    9.0643    0.3791   20.3410 H   0  0  0  0  0  0  0  0  0  0  0  0
    9.4470   -1.0220   21.9110 C   0  0  0  0  0  0  0  0  0  0  0  0
   10.7623   -0.4735   22.4042 C   0  0  0  0  0  0  0  0  0  0  0  0
   11.2647    0.1396   21.6408 H   0  0  0  0  0  0  0  0  0  0  0  0
   11.4384   -1.2987   22.6553 H   0  0  0  0  0  0  0  0  0  0  0  0
   10.4754    0.3465   23.6589 C   0  0  0  0  0  0  0  0  0  0  0  0
   10.6107   -0.2170   24.9307 C   0  0  0  0  0  0  0  0  0  0  0  0
   11.0542   -1.2023   25.0158 H   0  0  0  0  0  0  0  0  0  0  0  0
   10.0851    0.4007   26.0677 C   0  0  0  0  0  0  0  0  0  0  0  0
   10.1376   -0.0972   27.0346 H   0  0  0  0  0  0  0  0  0  0  0  0
    9.4413    1.6313   25.9369 C   0  0  0  0  0  0  0  0  0  0  0  0
    9.0129    2.0996   26.8181 H   0  0  0  0  0  0  0  0  0  0  0  0
    9.3350    2.2556   24.6874 C   0  0  0  0  0  0  0  0  0  0  0  0
    8.8316    3.2157   24.5945 H   0  0  0  0  0  0  0  0  0  0  0  0
    9.8533    1.6119   23.5517 C   0  0  0  0  0  0  0  0  0  0  0  0
    9.7506    2.0971   22.2780 O   0  0  0  0  0  0  0  0  0  0  0  0
    8.9611    3.2358   22.0064 C   0  0  0  0  0  0  0  0  0  0  0  0
    7.9356    3.1364   22.3944 H   0  0  0  0  0  0  0  0  0  0  0  0
    8.9202    3.2876   20.9160 H   0  0  0  0  0  0  0  0  0  0  0  0
    9.4195    4.1554   22.4053 H   0  0  0  0  0  0  0  0  0  0  0  0
    8.8518   -2.1135   22.6973 C   0  0  0  0  0  0  0  0  0  0  0  0
    9.4215   -2.8937   23.4305 O   0  0  0  0  0  0  0  0  0  0  0  0
    7.4909   -2.2368   22.5666 N   0  0  0  0  0  0  0  0  0  0  0  0
    7.0958   -3.0309   23.0261 H   0  0  0  0  0  0  0  0  0  0  0  0
    6.7421   -1.7906   21.5236 C   0  0  0  0  0  0  0  0  0  0  0  0
    5.6500   -2.2657   21.3236 O   0  0  0  0  0  0  0  0  0  0  0  0
    5.3927    0.5106   19.9678 C   0  0  0  0  0  0  0  0  0  0  0  0
    4.9098    0.3813   20.9359 H   0  0  0  0  0  0  0  0  0  0  0  0
    4.8106    1.2856   18.9578 C   0  0  0  0  0  0  0  0  0  0  0  0
    3.8817    1.8231   19.1211 H   0  0  0  0  0  0  0  0  0  0  0  0
  1  2  1  0
  2  3  2  0
  3  4  1  0
  4  5  1  0
  4  6  2  0
  6  7  1  0
  7  8  1  0
  8  9  1  0
  8 10  2  0
 10 11  1  0
 11 12  1  0
 11 13  1  0
 11 14  1  0
 14 15  2  0
 15 16  1  0
 15 17  1  0
 17 18  1  0
 17 19  2  0
 19 20  1  0
 19 21  1  0
 21 22  1  0
 21 23  2  0
 23 24  1  0
 24 25  1  0
 25 26  1  0
 25 27  1  0
 25 28  1  0
 10 29  1  0
 29 30  2  0
 29 31  1  0
 31 32  1  0
 31 33  1  0
 33 34  2  0
  6 35  1  0
 35 36  1  0
 35 37  2  0
 37 38  1  0
 37  2  1  0
 33  7  1  0
 23 14  1  0
M  END
>  <cnnaffinity>  (1) 
-4.90573

>  <filename>  (1) 
COc1ccccc1Cc1cn(-c2cccnc2)c(=O)[nH]c1=O

$$$$
