
     RDKit          3D

 37 39  0  0  0  0  0  0  0  0999 V2000
    5.0001    1.7545   17.1077 H   0  0  0  0  0  0  0  0  0  0  0  0
    5.4493    1.2242   17.9459 C   0  0  0  0  0  0  0  0  0  0  0  0
    6.5931    0.5711   17.6835 N   0  0  0  0  0  0  0  0  0  0  0  0
    7.1940   -0.0719   18.6911 C   0  0  0  0  0  0  0  0  0  0  0  0
    8.1343   -0.5767   18.4748 H   0  0  0  0  0  0  0  0  0  0  0  0
    6.6765   -0.1144   20.0020 C   0  0  0  0  0  0  0  0  0  0  0  0
    7.3635   -0.8015   21.0468 N   0  0  0  0  0  0  0  0  0  0  0  0
    6.6719   -1.4463   22.0445 N   0  0  0  0  0  0  0  0  0  0  0  0
    7.5433   -1.9594   22.8724 C   0  0  0  0  0  0  0  0  0  0  0  0
    7.1284   -2.7041   24.0726 C   0  0  0  0  0  0  0  0  0  0  0  0
    5.7594   -2.9129   24.3483 C   0  0  0  0  0  0  0  0  0  0  0  0
    5.0235   -2.7161   23.5763 H   0  0  0  0  0  0  0  0  0  0  0  0
    5.3243   -3.3714   25.5818 C   0  0  0  0  0  0  0  0  0  0  0  0
    4.2724   -3.4319   25.8263 H   0  0  0  0  0  0  0  0  0  0  0  0
    6.2631   -3.7325   26.5546 C   0  0  0  0  0  0  0  0  0  0  0  0
    5.7801   -4.0846   27.7787 O   0  0  0  0  0  0  0  0  0  0  0  0
    6.4612   -5.1078   28.4869 C   0  0  0  0  0  0  0  0  0  0  0  0
    6.6375   -5.9816   27.8441 H   0  0  0  0  0  0  0  0  0  0  0  0
    7.4213   -4.7734   28.9085 H   0  0  0  0  0  0  0  0  0  0  0  0
    5.8015   -5.3978   29.3044 H   0  0  0  0  0  0  0  0  0  0  0  0
    7.6211   -3.7127   26.2522 C   0  0  0  0  0  0  0  0  0  0  0  0
    8.3349   -4.0858   26.9763 H   0  0  0  0  0  0  0  0  0  0  0  0
    8.0563   -3.1983   25.0253 C   0  0  0  0  0  0  0  0  0  0  0  0
    9.3842   -3.1230   24.7288 O   0  0  0  0  0  0  0  0  0  0  0  0
   10.3017   -3.9564   25.4140 C   0  0  0  0  0  0  0  0  0  0  0  0
   10.0738   -5.0178   25.2467 H   0  0  0  0  0  0  0  0  0  0  0  0
   11.2701   -3.7148   24.9842 H   0  0  0  0  0  0  0  0  0  0  0  0
   10.3403   -3.7617   26.4962 H   0  0  0  0  0  0  0  0  0  0  0  0
    8.9513   -1.6608   22.4596 C   0  0  0  0  0  0  0  0  0  0  0  0
    9.5101   -1.0844   23.2007 H   0  0  0  0  0  0  0  0  0  0  0  0
    9.5382   -2.5586   22.2517 H   0  0  0  0  0  0  0  0  0  0  0  0
    8.7459   -0.8603   21.2108 C   0  0  0  0  0  0  0  0  0  0  0  0
    9.5876   -0.3782   20.4840 O   0  0  0  0  0  0  0  0  0  0  0  0
    5.4645    0.5387   20.2579 C   0  0  0  0  0  0  0  0  0  0  0  0
    5.0379    0.4791   21.2573 H   0  0  0  0  0  0  0  0  0  0  0  0
    4.8480    1.2317   19.2108 C   0  0  0  0  0  0  0  0  0  0  0  0
    3.9226    1.7787   19.3599 H   0  0  0  0  0  0  0  0  0  0  0  0
  1  2  1  0
  2  3  2  0
  3  4  1  0
  4  5  1  0
  4  6  2  0
  6  7  1  0
  7  8  1  0
  8  9  2  0
  9 10  1  0
 10 11  2  0
 11 12  1  0
 11 13  1  0
 13 14  1  0
 13 15  2  0
 15 16  1  0
 16 17  1  0
 17 18  1  0
 17 19  1  0
 17 20  1  0
 15 21  1  0
 21 22  1  0
 21 23  2  0
 23 24  1  0
 24 25  1  0
 25 26  1  0
 25 27  1  0
 25 28  1  0
  9 29  1  0
 29 30  1  0
 29 31  1  0
 29 32  1  0
 32 33  2  0
  6 34  1  0
 34 35  1  0
 34 36  2  0
 36 37  1  0
 36  2  1  0
 32  7  1  0
 23 10  1  0
M  END
>  <cnnaffinity>  (1) 
-5.0112

>  <filename>  (1) 
COc1ccc(C2=NN(c3cccnc3)C(=O)C2)c(OC)c1

$$$$
