
     RDKit          3D

 37 39  0  0  0  0  0  0  0  0999 V2000
    4.9326    1.7963   16.9967 H   0  0  0  0  0  0  0  0  0  0  0  0
    5.3984    1.2891   17.8363 C   0  0  0  0  0  0  0  0  0  0  0  0
    6.5539    0.6593   17.5712 N   0  0  0  0  0  0  0  0  0  0  0  0
    7.1726    0.0415   18.5845 C   0  0  0  0  0  0  0  0  0  0  0  0
    8.1257   -0.4342   18.3579 H   0  0  0  0  0  0  0  0  0  0  0  0
    6.6525   -0.0044   19.8950 C   0  0  0  0  0  0  0  0  0  0  0  0
    7.3289   -0.6930   20.9527 N   0  0  0  0  0  0  0  0  0  0  0  0
    6.7289   -1.6101   21.8053 C   0  0  0  0  0  0  0  0  0  0  0  0
    5.6816   -1.8465   21.7000 H   0  0  0  0  0  0  0  0  0  0  0  0
    7.6674   -2.0729   22.6692 C   0  0  0  0  0  0  0  0  0  0  0  0
    7.5528   -3.0195   23.7835 C   0  0  0  0  0  0  0  0  0  0  0  0
    8.6471   -3.7069   24.3146 C   0  0  0  0  0  0  0  0  0  0  0  0
    9.6431   -3.5532   23.9135 H   0  0  0  0  0  0  0  0  0  0  0  0
    8.4778   -4.6205   25.3610 C   0  0  0  0  0  0  0  0  0  0  0  0
    9.3357   -5.1470   25.7687 H   0  0  0  0  0  0  0  0  0  0  0  0
    7.2111   -4.8662   25.9032 C   0  0  0  0  0  0  0  0  0  0  0  0
    6.9780   -5.7271   26.9224 O   0  0  0  0  0  0  0  0  0  0  0  0
    8.0554   -6.4279   27.5033 C   0  0  0  0  0  0  0  0  0  0  0  0
    8.7712   -5.7505   27.9886 H   0  0  0  0  0  0  0  0  0  0  0  0
    8.5956   -7.0194   26.7500 H   0  0  0  0  0  0  0  0  0  0  0  0
    7.5855   -7.0745   28.2444 H   0  0  0  0  0  0  0  0  0  0  0  0
    6.0788   -4.1724   25.3654 C   0  0  0  0  0  0  0  0  0  0  0  0
    4.8668   -4.4537   25.9118 O   0  0  0  0  0  0  0  0  0  0  0  0
    3.6938   -3.8155   25.4519 C   0  0  0  0  0  0  0  0  0  0  0  0
    3.7365   -2.7266   25.5904 H   0  0  0  0  0  0  0  0  0  0  0  0
    3.4963   -4.0342   24.3935 H   0  0  0  0  0  0  0  0  0  0  0  0
    2.8946   -4.2318   26.0678 H   0  0  0  0  0  0  0  0  0  0  0  0
    6.2762   -3.2646   24.3302 C   0  0  0  0  0  0  0  0  0  0  0  0
    5.4198   -2.7249   23.9431 H   0  0  0  0  0  0  0  0  0  0  0  0
    8.8419   -1.4229   22.3109 N   0  0  0  0  0  0  0  0  0  0  0  0
    9.7455   -1.4118   22.7514 H   0  0  0  0  0  0  0  0  0  0  0  0
    8.6493   -0.5294   21.3126 C   0  0  0  0  0  0  0  0  0  0  0  0
    9.8071    0.5291   20.7825 S   0  0  0  0  0  0  0  0  0  0  0  0
    5.4427    0.6459   20.1561 C   0  0  0  0  0  0  0  0  0  0  0  0
    5.0376    0.6328   21.1708 H   0  0  0  0  0  0  0  0  0  0  0  0
    4.8062    1.3110   19.1045 C   0  0  0  0  0  0  0  0  0  0  0  0
    3.8748    1.8458   19.2577 H   0  0  0  0  0  0  0  0  0  0  0  0
  1  2  1  0
  2  3  2  0
  3  4  1  0
  4  5  1  0
  4  6  2  0
  6  7  1  0
  7  8  1  0
  8  9  1  0
  8 10  2  0
 10 11  1  0
 11 12  2  0
 12 13  1  0
 12 14  1  0
 14 15  1  0
 14 16  2  0
 16 17  1  0
 17 18  1  0
 18 19  1  0
 18 20  1  0
 18 21  1  0
 16 22  1  0
 22 23  1  0
 23 24  1  0
 24 25  1  0
 24 26  1  0
 24 27  1  0
 22 28  2  0
 28 29  1  0
 10 30  1  0
 30 31  1  0
 30 32  1  0
 32 33  2  0
  6 34  1  0
 34 35  1  0
 34 36  2  0
 36 37  1  0
 36  2  1  0
 32  7  1  0
 28 11  1  0
M  END
>  <cnnaffinity>  (1) 
-5.62395

>  <filename>  (1) 
COc1ccc(-c2cn(-c3cccnc3)c(=S)[nH]2)cc1OC

$$$$
