
     RDKit          3D

 28 29  0  0  0  0  0  0  0  0999 V2000
    4.9269    1.7887   16.9888 H   0  0  0  0  0  0  0  0  0  0  0  0
    5.4005    1.2974   17.8343 C   0  0  0  0  0  0  0  0  0  0  0  0
    6.5629    0.6799   17.5777 N   0  0  0  0  0  0  0  0  0  0  0  0
    7.1611    0.0492   18.5961 C   0  0  0  0  0  0  0  0  0  0  0  0
    8.1110   -0.4298   18.3691 H   0  0  0  0  0  0  0  0  0  0  0  0
    6.6307   -0.0142   19.8930 C   0  0  0  0  0  0  0  0  0  0  0  0
    7.3982   -0.6703   21.0134 C   0  0  1  0  0  0  0  0  0  0  0  0
    6.7014   -0.9991   21.7994 H   0  0  0  0  0  0  0  0  0  0  0  0
    8.0210   -1.8227   20.5369 F   0  0  0  0  0  0  0  0  0  0  0  0
    8.4306    0.2716   21.6229 C   0  0  0  0  0  0  0  0  0  0  0  0
    9.7061    0.3824   21.0652 C   0  0  0  0  0  0  0  0  0  0  0  0
    9.9812   -0.2608   20.2297 H   0  0  0  0  0  0  0  0  0  0  0  0
   10.6176    1.3003   21.5957 C   0  0  0  0  0  0  0  0  0  0  0  0
   11.6162    1.3672   21.1755 H   0  0  0  0  0  0  0  0  0  0  0  0
   10.2618    2.1110   22.6711 C   0  0  0  0  0  0  0  0  0  0  0  0
   10.9544    2.8188   23.1106 H   0  0  0  0  0  0  0  0  0  0  0  0
    8.9701    2.0255   23.2216 C   0  0  0  0  0  0  0  0  0  0  0  0
    8.7188    2.8625   24.2647 O   0  0  0  0  0  0  0  0  0  0  0  0
    7.4445    2.8657   24.8818 C   0  0  0  0  0  0  0  0  0  0  0  0
    7.1882    1.9024   25.3425 H   0  0  0  0  0  0  0  0  0  0  0  0
    7.5168    3.6163   25.6662 H   0  0  0  0  0  0  0  0  0  0  0  0
    6.6357    3.1539   24.1969 H   0  0  0  0  0  0  0  0  0  0  0  0
    8.0524    1.1087   22.6893 C   0  0  0  0  0  0  0  0  0  0  0  0
    7.0493    1.0600   23.1090 H   0  0  0  0  0  0  0  0  0  0  0  0
    5.4227    0.6451   20.1483 C   0  0  0  0  0  0  0  0  0  0  0  0
    4.9876    0.6421   21.1529 H   0  0  0  0  0  0  0  0  0  0  0  0
    4.7992    1.3154   19.0981 C   0  0  0  0  0  0  0  0  0  0  0  0
    3.8701    1.8487   19.2470 H   0  0  0  0  0  0  0  0  0  0  0  0
  1  2  1  0
  2  3  2  0
  3  4  1  0
  4  5  1  0
  4  6  2  0
  6  7  1  0
  7  8  1  1
  7  9  1  0
  7 10  1  0
 10 11  2  0
 11 12  1  0
 11 13  1  0
 13 14  1  0
 13 15  2  0
 15 16  1  0
 15 17  1  0
 17 18  1  0
 18 19  1  0
 19 20  1  0
 19 21  1  0
 19 22  1  0
 17 23  2  0
 23 24  1  0
  6 25  1  0
 25 26  1  0
 25 27  2  0
 27 28  1  0
 27  2  1  0
 23 10  1  0
M  END
>  <cnnaffinity>  (1) 
-4.18658

>  <filename>  (1) 
COc1cccc([C@H](F)c2cccnc2)c1

$$$$
