
     RDKit          3D

 38 39  0  0  0  0  0  0  0  0999 V2000
    3.7411   -3.0286   28.2912 C   0  0  0  0  0  0  0  0  0  0  0  0
    4.7098   -2.4203   27.4606 O   0  0  0  0  0  0  0  0  0  0  0  0
    4.8885   -2.8467   26.1829 C   0  0  0  0  0  0  0  0  0  0  0  0
    4.1817   -3.8987   25.6005 C   0  0  0  0  0  0  0  0  0  0  0  0
    4.4763   -4.2313   24.2780 C   0  0  0  0  0  0  0  0  0  0  0  0
    3.6157   -5.5426   23.5297 Cl  0  0  0  0  0  0  0  0  0  0  0  0
    5.4431   -3.5486   23.5477 C   0  0  0  0  0  0  0  0  0  0  0  0
    6.1629   -2.4768   24.1189 C   0  0  0  0  0  0  0  0  0  0  0  0
    7.2869   -1.8038   23.2816 C   0  0  0  0  0  0  0  0  0  0  0  0
    7.8990   -0.5931   24.0098 C   0  0  0  0  0  0  0  0  0  0  0  0
    7.1255    0.1492   24.2394 H   0  0  0  0  0  0  0  0  0  0  0  0
    8.3912   -0.9104   24.9370 H   0  0  0  0  0  0  0  0  0  0  0  0
    8.6414   -0.1326   23.3530 H   0  0  0  0  0  0  0  0  0  0  0  0
    8.3963   -2.8352   23.0067 C   0  0  0  0  0  0  0  0  0  0  0  0
    8.6856   -3.3311   23.9406 H   0  0  0  0  0  0  0  0  0  0  0  0
    8.0459   -3.5861   22.2930 H   0  0  0  0  0  0  0  0  0  0  0  0
    9.2606   -2.3386   22.5639 H   0  0  0  0  0  0  0  0  0  0  0  0
    6.7285   -1.3473   21.9928 N   0  0  0  0  0  0  0  0  0  0  0  0
    7.4303   -0.7421   20.9973 C   0  0  0  0  0  0  0  0  0  0  0  0
    8.6497   -0.7678   20.9131 O   0  0  0  0  0  0  0  0  0  0  0  0
    6.5994   -0.0537   19.9675 C   0  0  0  0  0  0  0  0  0  0  0  0
    5.3853    0.6191   20.1932 C   0  0  0  0  0  0  0  0  0  0  0  0
    4.7880    1.2890   19.1244 C   0  0  0  0  0  0  0  0  0  0  0  0
    5.4171    1.2615   17.8751 C   0  0  0  0  0  0  0  0  0  0  0  0
    6.5757    0.6278   17.6505 N   0  0  0  0  0  0  0  0  0  0  0  0
    7.1545    0.0083   18.6833 C   0  0  0  0  0  0  0  0  0  0  0  0
    8.1217   -0.4458   18.4773 H   0  0  0  0  0  0  0  0  0  0  0  0
    4.9855    1.7725   17.0139 H   0  0  0  0  0  0  0  0  0  0  0  0
    3.8682    1.8541   19.2376 H   0  0  0  0  0  0  0  0  0  0  0  0
    4.9257    0.6869   21.1834 H   0  0  0  0  0  0  0  0  0  0  0  0
    5.7275   -1.2990   21.9166 H   0  0  0  0  0  0  0  0  0  0  0  0
    5.8686   -2.1481   25.4537 C   0  0  0  0  0  0  0  0  0  0  0  0
    6.3857   -1.3566   25.9898 H   0  0  0  0  0  0  0  0  0  0  0  0
    5.6446   -3.8692   22.5353 H   0  0  0  0  0  0  0  0  0  0  0  0
    3.4233   -4.4435   26.1485 H   0  0  0  0  0  0  0  0  0  0  0  0
    2.7269   -2.9319   27.8772 H   0  0  0  0  0  0  0  0  0  0  0  0
    3.9557   -4.0938   28.4585 H   0  0  0  0  0  0  0  0  0  0  0  0
    3.8108   -2.4828   29.2341 H   0  0  0  0  0  0  0  0  0  0  0  0
  1  2  1  0
  2  3  1  0
  3  4  2  0
  4  5  1  0
  5  6  1  0
  5  7  2  0
  7  8  1  0
  8  9  1  0
  9 10  1  0
 10 11  1  0
 10 12  1  0
 10 13  1  0
  9 14  1  0
 14 15  1  0
 14 16  1  0
 14 17  1  0
  9 18  1  0
 18 19  1  0
 19 20  2  0
 19 21  1  0
 21 22  2  0
 22 23  1  0
 23 24  2  0
 24 25  1  0
 25 26  2  0
 26 27  1  0
 24 28  1  0
 23 29  1  0
 22 30  1  0
 18 31  1  0
  8 32  2  0
 32 33  1  0
  7 34  1  0
  4 35  1  0
  1 36  1  0
  1 37  1  0
  1 38  1  0
 32  3  1  0
 26 21  1  0
M  END
>  <cnnaffinity>  (1) 
-5.15386

>  <filename>  (1) 
COc1cc(Cl)cc(C(C)(C)NC(=O)c2cccnc2)c1

$$$$
