
     RDKit          3D

 44 46  0  0  0  0  0  0  0  0999 V2000
    4.9323    1.8005   16.9807 H   0  0  0  0  0  0  0  0  0  0  0  0
    5.4025    1.2968   17.8232 C   0  0  0  0  0  0  0  0  0  0  0  0
    6.5599    0.6744   17.5725 N   0  0  0  0  0  0  0  0  0  0  0  0
    7.1659    0.0486   18.5940 C   0  0  0  0  0  0  0  0  0  0  0  0
    8.1174   -0.4123   18.3398 H   0  0  0  0  0  0  0  0  0  0  0  0
    6.6575   -0.0213   19.9068 C   0  0  0  0  0  0  0  0  0  0  0  0
    7.3441   -0.7418   21.0883 C   0  0  2  0  0  0  0  0  0  0  0  0
    6.4164   -1.9081   21.5471 C   0  0  0  0  0  0  0  0  0  0  0  0
    6.3673   -2.6164   20.7076 H   0  0  0  0  0  0  0  0  0  0  0  0
    5.4008   -1.5156   21.6291 H   0  0  0  0  0  0  0  0  0  0  0  0
    6.8302   -2.6594   22.8056 C   0  0  0  0  0  0  0  0  0  0  0  0
    7.5978   -3.8306   22.6920 C   0  0  0  0  0  0  0  0  0  0  0  0
    7.9164   -4.1426   21.6998 H   0  0  0  0  0  0  0  0  0  0  0  0
    8.0081   -4.5709   23.7995 C   0  0  0  0  0  0  0  0  0  0  0  0
    8.6461   -5.4419   23.7251 H   0  0  0  0  0  0  0  0  0  0  0  0
    7.6103   -4.1569   25.0795 C   0  0  0  0  0  0  0  0  0  0  0  0
    8.0543   -4.9256   26.1018 O   0  0  0  0  0  0  0  0  0  0  0  0
    7.7200   -4.5918   27.4332 C   0  0  0  0  0  0  0  0  0  0  0  0
    6.6329   -4.6119   27.5864 H   0  0  0  0  0  0  0  0  0  0  0  0
    8.0976   -3.5973   27.7071 H   0  0  0  0  0  0  0  0  0  0  0  0
    8.2011   -5.3564   28.0456 H   0  0  0  0  0  0  0  0  0  0  0  0
    6.8344   -3.0113   25.2435 C   0  0  0  0  0  0  0  0  0  0  0  0
    6.5050   -2.6841   26.2208 H   0  0  0  0  0  0  0  0  0  0  0  0
    6.5200   -2.2337   24.1215 C   0  0  0  0  0  0  0  0  0  0  0  0
    6.0045   -0.9828   24.2859 O   0  0  0  0  0  0  0  0  0  0  0  0
    5.2517   -0.6004   25.4178 C   0  0  0  0  0  0  0  0  0  0  0  0
    4.6203    0.2160   25.0611 H   0  0  0  0  0  0  0  0  0  0  0  0
    4.6095   -1.4065   25.7913 H   0  0  0  0  0  0  0  0  0  0  0  0
    5.8970   -0.2465   26.2325 H   0  0  0  0  0  0  0  0  0  0  0  0
    7.6949    0.2865   22.2117 C   0  0  0  0  0  0  0  0  0  0  0  0
    7.8864   -0.2431   23.1499 H   0  0  0  0  0  0  0  0  0  0  0  0
    6.8941    1.0109   22.3912 H   0  0  0  0  0  0  0  0  0  0  0  0
    8.9272    0.9603   21.7926 N   0  0  0  0  0  0  0  0  0  0  0  0
    8.6781    1.7846   21.2577 H   0  0  0  0  0  0  0  0  0  0  0  0
    9.6446    0.0361   20.9012 C   0  0  0  0  0  0  0  0  0  0  0  0
    9.7329    0.4926   19.9120 H   0  0  0  0  0  0  0  0  0  0  0  0
   10.6527   -0.1840   21.2787 H   0  0  0  0  0  0  0  0  0  0  0  0
    8.7824   -1.2265   20.7942 C   0  0  0  0  0  0  0  0  0  0  0  0
    8.8896   -1.7194   19.8278 H   0  0  0  0  0  0  0  0  0  0  0  0
    9.0777   -1.9481   21.5663 H   0  0  0  0  0  0  0  0  0  0  0  0
    5.4372    0.6442   20.1357 C   0  0  0  0  0  0  0  0  0  0  0  0
    4.9952    0.6466   21.1359 H   0  0  0  0  0  0  0  0  0  0  0  0
    4.8055    1.3122   19.0881 C   0  0  0  0  0  0  0  0  0  0  0  0
    3.8743    1.8466   19.2394 H   0  0  0  0  0  0  0  0  0  0  0  0
  1  2  1  0
  2  3  2  0
  3  4  1  0
  4  5  1  0
  4  6  2  0
  6  7  1  0
  7  8  1  1
  8  9  1  0
  8 10  1  0
  8 11  1  0
 11 12  2  0
 12 13  1  0
 12 14  1  0
 14 15  1  0
 14 16  2  0
 16 17  1  0
 17 18  1  0
 18 19  1  0
 18 20  1  0
 18 21  1  0
 16 22  1  0
 22 23  1  0
 22 24  2  0
 24 25  1  0
 25 26  1  0
 26 27  1  0
 26 28  1  0
 26 29  1  0
  7 30  1  0
 30 31  1  0
 30 32  1  0
 30 33  1  0
 33 34  1  0
 33 35  1  0
 35 36  1  0
 35 37  1  0
 35 38  1  0
 38 39  1  0
 38 40  1  0
  6 41  1  0
 41 42  1  0
 41 43  2  0
 43 44  1  0
 43  2  1  0
 38  7  1  0
 24 11  1  0
M  END
>  <cnnaffinity>  (1) 
-4.96861

>  <filename>  (1) 
COc1ccc(C[C@]2(c3cccnc3)CCNC2)c(OC)c1

$$$$
