
     RDKit          3D

 48 50  0  0  0  0  0  0  0  0999 V2000
    6.4110    4.4371   27.7450 C   0  0  0  0  0  0  0  0  0  0  0  0
    6.7823    3.0719   27.7562 O   0  0  0  0  0  0  0  0  0  0  0  0
    7.5094    2.5956   26.7074 C   0  0  0  0  0  0  0  0  0  0  0  0
    7.9780    3.3714   25.6399 C   0  0  0  0  0  0  0  0  0  0  0  0
    8.7471    2.7707   24.6356 C   0  0  0  0  0  0  0  0  0  0  0  0
    9.0406    1.4028   24.6455 C   0  0  0  0  0  0  0  0  0  0  0  0
    9.8734    0.7320   23.5650 C   0  0  0  0  0  0  0  0  0  0  0  0
   11.1007   -0.1115   23.9935 C   0  0  0  0  0  0  0  0  0  0  0  0
   10.9431   -1.4801   23.2972 C   0  0  0  0  0  0  0  0  0  0  0  0
    9.8605   -1.3172   22.2627 C   0  0  0  0  0  0  0  0  0  0  0  0
    8.9835   -0.2586   22.8204 N   0  0  0  0  0  4  0  0  0  0  0  0
    8.1500    0.3720   21.7663 C   0  0  0  0  0  0  0  0  0  0  0  0
    7.2957   -0.6577   21.0152 C   0  0  0  0  0  0  0  0  0  0  0  0
    6.5691   -0.0210   19.8608 C   0  0  0  0  0  0  0  0  0  0  0  0
    5.3697    0.6622   20.0864 C   0  0  0  0  0  0  0  0  0  0  0  0
    4.7681    1.3393   19.0264 C   0  0  0  0  0  0  0  0  0  0  0  0
    5.3927    1.3279   17.7749 C   0  0  0  0  0  0  0  0  0  0  0  0
    6.5351    0.6695   17.5313 N   0  0  0  0  0  0  0  0  0  0  0  0
    7.0990    0.0188   18.5577 C   0  0  0  0  0  0  0  0  0  0  0  0
    8.0252   -0.5056   18.3240 H   0  0  0  0  0  0  0  0  0  0  0  0
    4.9598    1.8723   16.9357 H   0  0  0  0  0  0  0  0  0  0  0  0
    3.8435    1.8863   19.1613 H   0  0  0  0  0  0  0  0  0  0  0  0
    4.9260    0.6565   21.0849 H   0  0  0  0  0  0  0  0  0  0  0  0
    7.9369   -1.4672   20.6445 H   0  0  0  0  0  0  0  0  0  0  0  0
    6.5820   -1.1061   21.7182 H   0  0  0  0  0  0  0  0  0  0  0  0
    7.5310    1.1664   22.2023 H   0  0  0  0  0  0  0  0  0  0  0  0
    8.8302    0.8589   21.0414 H   0  0  0  0  0  0  0  0  0  0  0  0
    8.4107   -0.6638   23.6059 H   0  0  0  0  0  0  0  0  0  0  0  0
    9.3114   -2.2512   22.0940 H   0  0  0  0  0  0  0  0  0  0  0  0
   10.2823   -0.9885   21.3017 H   0  0  0  0  0  0  0  0  0  0  0  0
   11.8465   -1.8298   22.7914 H   0  0  0  0  0  0  0  0  0  0  0  0
   10.6398   -2.2405   24.0229 H   0  0  0  0  0  0  0  0  0  0  0  0
   12.0182    0.3885   23.6718 H   0  0  0  0  0  0  0  0  0  0  0  0
   11.1822   -0.2235   25.0785 H   0  0  0  0  0  0  0  0  0  0  0  0
   10.2118    1.4917   22.8434 H   0  0  0  0  0  0  0  0  0  0  0  0
    8.4610    0.6248   25.6771 C   0  0  0  0  0  0  0  0  0  0  0  0
    8.5576   -0.7433   25.5485 O   0  0  0  0  0  0  0  0  0  0  0  0
    8.3688   -1.5122   26.7267 C   0  0  0  0  0  0  0  0  0  0  0  0
    8.7798   -2.5078   26.5447 H   0  0  0  0  0  0  0  0  0  0  0  0
    8.8953   -1.0611   27.5813 H   0  0  0  0  0  0  0  0  0  0  0  0
    7.2981   -1.5978   26.9669 H   0  0  0  0  0  0  0  0  0  0  0  0
    7.7694    1.2230   26.7329 C   0  0  0  0  0  0  0  0  0  0  0  0
    7.4072    0.6384   27.5678 H   0  0  0  0  0  0  0  0  0  0  0  0
    9.0793    3.3974   23.8051 H   0  0  0  0  0  0  0  0  0  0  0  0
    7.7258    4.4232   25.5869 H   0  0  0  0  0  0  0  0  0  0  0  0
    5.8152    4.6087   28.6421 H   0  0  0  0  0  0  0  0  0  0  0  0
    7.3011    5.0808   27.7678 H   0  0  0  0  0  0  0  0  0  0  0  0
    5.8081    4.6739   26.8567 H   0  0  0  0  0  0  0  0  0  0  0  0
  1  2  1  0
  2  3  1  0
  3  4  2  0
  4  5  1  0
  5  6  2  0
  6  7  1  0
  7  8  1  0
  8  9  1  0
  9 10  1  0
 10 11  1  0
 11 12  1  0
 12 13  1  0
 13 14  1  0
 14 15  2  0
 15 16  1  0
 16 17  2  0
 17 18  1  0
 18 19  2  0
 19 20  1  0
 17 21  1  0
 16 22  1  0
 15 23  1  0
 13 24  1  0
 13 25  1  0
 12 26  1  0
 12 27  1  0
 11 28  1  0
 10 29  1  0
 10 30  1  0
  9 31  1  0
  9 32  1  0
  8 33  1  0
  8 34  1  0
  7 35  1  0
  6 36  1  0
 36 37  1  0
 37 38  1  0
 38 39  1  0
 38 40  1  0
 38 41  1  0
 36 42  2  0
 42 43  1  0
  5 44  1  0
  4 45  1  0
  1 46  1  0
  1 47  1  0
  1 48  1  0
 42  3  1  0
 11  7  1  0
 19 14  1  0
M  CHG  1  11   1
M  END
>  <cnnaffinity>  (1) 
-4.96552

>  <filename>  (1) 
COc1ccc(C2CCC[NH+]2CCc2cccnc2)c(OC)c1

$$$$
