
     RDKit          3D

 49 54  0  0  0  0  0  0  0  0999 V2000
    8.4000    7.3166   25.3791 C   0  0  0  0  0  0  0  0  0  0  0  0
    8.7372    6.3678   24.3833 O   0  0  0  0  0  0  0  0  0  0  0  0
    8.8033    5.0503   24.7213 C   0  0  0  0  0  0  0  0  0  0  0  0
    8.6085    4.5490   26.0176 C   0  0  0  0  0  0  0  0  0  0  0  0
    8.6592    3.1670   26.2404 C   0  0  0  0  0  0  0  0  0  0  0  0
    8.8877    2.2935   25.1842 C   0  0  0  0  0  0  0  0  0  0  0  0
    9.0499    2.7984   23.8843 C   0  0  0  0  0  0  0  0  0  0  0  0
    9.0816    1.8766   22.7942 N   0  0  0  0  0  0  0  0  0  0  0  0
    8.0532    0.9912   22.6604 N   0  0  0  0  0  0  0  0  0  0  0  0
    8.3172    0.3896   21.5280 C   0  0  0  0  0  0  0  0  0  0  0  0
    7.3741   -0.6272   20.9545 C   0  0  0  0  0  0  0  0  0  0  0  0
    6.5835   -0.0506   19.7943 C   0  0  0  0  0  0  0  0  0  0  0  0
    5.4140    0.6811   20.0172 C   0  0  0  0  0  0  0  0  0  0  0  0
    4.8048    1.3319   18.9428 C   0  0  0  0  0  0  0  0  0  0  0  0
    5.3990    1.2374   17.6806 C   0  0  0  0  0  0  0  0  0  0  0  0
    6.5124    0.5308   17.4403 N   0  0  0  0  0  0  0  0  0  0  0  0
    7.0801   -0.0922   18.4798 C   0  0  0  0  0  0  0  0  0  0  0  0
    7.9915   -0.6514   18.2676 H   0  0  0  0  0  0  0  0  0  0  0  0
    4.9660    1.7547   16.8263 H   0  0  0  0  0  0  0  0  0  0  0  0
    3.9047    1.9203   19.0713 H   0  0  0  0  0  0  0  0  0  0  0  0
    4.9933    0.7387   21.0226 H   0  0  0  0  0  0  0  0  0  0  0  0
    7.9652   -1.4906   20.6353 H   0  0  0  0  0  0  0  0  0  0  0  0
    6.7020   -0.9390   21.7641 H   0  0  0  0  0  0  0  0  0  0  0  0
    9.4652    0.7857   20.9240 N   0  0  0  0  0  0  0  0  0  0  0  0
    9.9402    1.7173   21.7429 C   0  0  0  0  0  0  0  0  0  0  0  0
   11.2780    2.3066   21.5481 C   0  0  0  0  0  0  0  0  0  0  0  0
   12.2057    2.5342   22.7406 C   0  0  0  0  0  0  0  0  0  0  0  0
   13.4714    2.1452   23.4120 C   0  0  0  0  0  0  0  0  0  0  0  0
   12.1377    2.1193   24.1676 C   0  0  0  0  0  0  0  0  0  0  0  0
   11.6798    1.1503   24.3633 H   0  0  0  0  0  0  0  0  0  0  0  0
   11.9018    2.9143   24.8754 H   0  0  0  0  0  0  0  0  0  0  0  0
   14.0865    3.0310   23.5381 H   0  0  0  0  0  0  0  0  0  0  0  0
   14.0019    1.2338   23.1482 H   0  0  0  0  0  0  0  0  0  0  0  0
   11.8684    3.6935   21.9112 C   0  0  0  0  0  0  0  0  0  0  0  0
   12.6543    4.6650   21.0957 C   0  0  0  0  0  0  0  0  0  0  0  0
   11.8056    5.1436   22.2632 C   0  0  0  0  0  0  0  0  0  0  0  0
   10.8906    5.6973   22.0751 H   0  0  0  0  0  0  0  0  0  0  0  0
   12.2791    5.4054   23.2103 H   0  0  0  0  0  0  0  0  0  0  0  0
   12.2706    4.8632   20.0988 H   0  0  0  0  0  0  0  0  0  0  0  0
   13.7426    4.6731   21.1681 H   0  0  0  0  0  0  0  0  0  0  0  0
   11.7320    1.8634   20.6597 H   0  0  0  0  0  0  0  0  0  0  0  0
    9.0651    4.1697   23.6587 C   0  0  0  0  0  0  0  0  0  0  0  0
    9.2446    4.5781   22.6735 H   0  0  0  0  0  0  0  0  0  0  0  0
    8.8991    1.2176   25.3329 H   0  0  0  0  0  0  0  0  0  0  0  0
    8.4777    2.7628   27.2359 H   0  0  0  0  0  0  0  0  0  0  0  0
    8.4213    5.2280   26.8410 H   0  0  0  0  0  0  0  0  0  0  0  0
    9.1877    7.3932   26.1424 H   0  0  0  0  0  0  0  0  0  0  0  0
    7.4465    7.0810   25.8760 H   0  0  0  0  0  0  0  0  0  0  0  0
    8.3036    8.2701   24.8598 H   0  0  0  0  0  0  0  0  0  0  0  0
  1  2  1  0
  2  3  1  0
  3  4  2  0
  4  5  1  0
  5  6  2  0
  6  7  1  0
  7  8  1  0
  8  9  1  0
  9 10  2  0
 10 11  1  0
 11 12  1  0
 12 13  2  0
 13 14  1  0
 14 15  2  0
 15 16  1  0
 16 17  2  0
 17 18  1  0
 15 19  1  0
 14 20  1  0
 13 21  1  0
 11 22  1  0
 11 23  1  0
 10 24  1  0
 24 25  2  0
 25 26  1  0
 26 27  1  0
 27 28  1  0
 28 29  1  0
 29 30  1  0
 29 31  1  0
 28 32  1  0
 28 33  1  0
 27 34  1  0
 34 35  1  0
 35 36  1  0
 36 37  1  0
 36 38  1  0
 35 39  1  0
 35 40  1  0
 26 41  1  0
  7 42  2  0
 42 43  1  0
  6 44  1  0
  5 45  1  0
  4 46  1  0
  1 47  1  0
  1 48  1  0
  1 49  1  0
 42  3  1  0
 25  8  1  0
 34 26  1  0
 17 12  1  0
 29 27  1  0
 36 34  1  0
M  END
>  <cnnaffinity>  (1) 
-6.1698

>  <filename>  (1) 
COc1cccc(-n2nc(Cc3cccnc3)nc2C2C3(CC3)C23CC3)c1

$$$$
