
     RDKit          3D

 42 44  0  0  0  0  0  0  0  0999 V2000
   12.9430    5.3755   22.9059 C   0  0  0  0  0  0  0  0  0  0  0  0
   11.7188    6.0898   22.9478 O   0  0  0  0  0  0  0  0  0  0  0  0
   10.5357    5.4622   22.8904 C   0  0  0  0  0  0  0  0  0  0  0  0
    9.4353    6.3317   22.8180 C   0  0  0  0  0  0  0  0  0  0  0  0
    8.1719    5.7661   22.7952 C   0  0  0  0  0  0  0  0  0  0  0  0
    8.0776    4.3699   22.8030 C   0  0  0  0  0  0  0  0  0  0  0  0
    9.2560    3.6044   22.8357 C   0  0  0  0  0  0  0  0  0  0  0  0
    9.2305    2.2283   22.7963 N   0  0  0  0  0  0  0  0  0  0  0  0
   10.0621    1.4674   23.7333 C   0  0  0  0  0  0  0  0  0  0  0  0
   10.5799    0.1885   23.0729 C   0  0  0  0  0  0  0  0  0  0  0  0
    9.4264   -0.6569   22.5238 C   0  0  0  0  0  0  0  0  0  0  0  0
    8.5732    0.1750   21.5538 C   0  0  0  0  0  0  0  0  0  0  0  0
    7.4132   -0.6764   21.0008 C   0  0  0  0  0  0  0  0  0  0  0  0
    6.6388   -0.0044   19.8962 C   0  0  0  0  0  0  0  0  0  0  0  0
    5.4250    0.6521   20.1354 C   0  0  0  0  0  0  0  0  0  0  0  0
    4.7883    1.3166   19.0841 C   0  0  0  0  0  0  0  0  0  0  0  0
    5.3888    1.3030   17.8217 C   0  0  0  0  0  0  0  0  0  0  0  0
    6.5503    0.6823   17.5653 N   0  0  0  0  0  0  0  0  0  0  0  0
    7.1537    0.0605   18.5868 C   0  0  0  0  0  0  0  0  0  0  0  0
    8.1075   -0.4141   18.3509 H   0  0  0  0  0  0  0  0  0  0  0  0
    4.9227    1.8075   16.9773 H   0  0  0  0  0  0  0  0  0  0  0  0
    3.8597    1.8545   19.2336 H   0  0  0  0  0  0  0  0  0  0  0  0
    4.9988    0.6483   21.1405 H   0  0  0  0  0  0  0  0  0  0  0  0
    6.7411   -0.9512   21.8282 H   0  0  0  0  0  0  0  0  0  0  0  0
    7.8324   -1.6213   20.6306 H   0  0  0  0  0  0  0  0  0  0  0  0
    8.0986    1.4834   22.2263 C   0  0  0  0  0  0  0  0  0  0  0  0
    7.3587    1.2369   23.0165 H   0  0  0  0  0  0  0  0  0  0  0  0
    7.5920    2.1029   21.4739 H   0  0  0  0  0  0  0  0  0  0  0  0
    9.2248    0.4792   20.7171 H   0  0  0  0  0  0  0  0  0  0  0  0
    9.8180   -1.5409   22.0026 H   0  0  0  0  0  0  0  0  0  0  0  0
    8.7941   -1.0407   23.3445 H   0  0  0  0  0  0  0  0  0  0  0  0
   11.2496    0.4702   22.2471 H   0  0  0  0  0  0  0  0  0  0  0  0
   11.1709   -0.3788   23.8012 H   0  0  0  0  0  0  0  0  0  0  0  0
   10.8968    2.0956   24.0656 H   0  0  0  0  0  0  0  0  0  0  0  0
    9.4743    1.1955   24.6338 H   0  0  0  0  0  0  0  0  0  0  0  0
   10.4849    4.1488   22.9529 N   0  0  0  0  0  0  0  0  0  0  0  0
    7.1255    3.8582   22.8246 H   0  0  0  0  0  0  0  0  0  0  0  0
    7.2773    6.3933   22.7792 H   0  0  0  0  0  0  0  0  0  0  0  0
    9.6458    7.3911   22.8037 H   0  0  0  0  0  0  0  0  0  0  0  0
   13.0303    4.7559   22.0036 H   0  0  0  0  0  0  0  0  0  0  0  0
   13.0644    4.7393   23.7912 H   0  0  0  0  0  0  0  0  0  0  0  0
   13.6923    6.1698   22.8935 H   0  0  0  0  0  0  0  0  0  0  0  0
  1  2  1  0
  2  3  1  0
  3  4  2  0
  4  5  1  0
  5  6  2  0
  6  7  1  0
  7  8  1  0
  8  9  1  0
  9 10  1  0
 10 11  1  0
 11 12  1  0
 12 13  1  0
 13 14  1  0
 14 15  2  0
 15 16  1  0
 16 17  2  0
 17 18  1  0
 18 19  2  0
 19 20  1  0
 17 21  1  0
 16 22  1  0
 15 23  1  0
 13 24  1  0
 13 25  1  0
 12 26  1  0
 26 27  1  0
 26 28  1  0
 12 29  1  0
 11 30  1  0
 11 31  1  0
 10 32  1  0
 10 33  1  0
  9 34  1  0
  9 35  1  0
  7 36  2  0
  6 37  1  0
  5 38  1  0
  4 39  1  0
  1 40  1  0
  1 41  1  0
  1 42  1  0
 36  3  1  0
 26  8  1  0
 19 14  1  0
M  END
>  <cnnaffinity>  (1) 
-5.58006

>  <filename>  (1) 
COc1cccc(N2CCCC(Cc3cccnc3)C2)n1

$$$$
