
     RDKit          3D

 28 29  0  0  0  0  0  0  0  0999 V2000
    5.6310   -1.4308   21.8097 H   0  0  0  0  0  0  0  0  0  0  0  0
    6.7112   -1.4663   21.8901 C   0  0  0  0  0  0  0  0  0  0  0  0
    7.4092   -0.7812   20.9130 C   0  0  0  0  0  0  0  0  0  0  0  0
    9.3268   -0.7503   20.9403 Br  0  0  0  0  0  0  0  0  0  0  0  0
    6.6847   -0.0360   19.8670 C   0  0  0  0  0  0  0  0  0  0  0  0
    7.2333    0.0710   18.5796 C   0  0  0  0  0  0  0  0  0  0  0  0
    8.1914   -0.3973   18.3749 H   0  0  0  0  0  0  0  0  0  0  0  0
    6.6216    0.7202   17.5698 N   0  0  0  0  0  0  0  0  0  0  0  0
    5.4387    1.3069   17.8153 C   0  0  0  0  0  0  0  0  0  0  0  0
    4.9395    1.8374   17.0098 H   0  0  0  0  0  0  0  0  0  0  0  0
    4.8309    1.2653   19.0725 C   0  0  0  0  0  0  0  0  0  0  0  0
    3.8865    1.7736   19.2166 H   0  0  0  0  0  0  0  0  0  0  0  0
    5.4560    0.5892   20.1214 C   0  0  0  0  0  0  0  0  0  0  0  0
    5.0066    0.5680   21.1137 H   0  0  0  0  0  0  0  0  0  0  0  0
    7.3084   -2.1941   23.0332 C   0  0  0  0  0  0  0  0  0  0  0  0
    6.6702   -2.1686   24.2911 C   0  0  0  0  0  0  0  0  0  0  0  0
    5.7825   -1.5521   24.4133 H   0  0  0  0  0  0  0  0  0  0  0  0
    7.1305   -2.8302   25.3683 N   0  0  0  0  0  0  0  0  0  0  0  0
    8.3003   -3.4878   25.2437 C   0  0  0  0  0  0  0  0  0  0  0  0
    8.6728   -3.9950   26.1266 H   0  0  0  0  0  0  0  0  0  0  0  0
    9.0567   -3.5317   24.0498 C   0  0  0  0  0  0  0  0  0  0  0  0
   10.3005   -4.1298   23.9501 O   0  0  0  0  0  0  0  0  0  0  0  0
   10.7268   -4.8708   25.1011 C   0  0  0  0  0  0  0  0  0  0  0  0
   10.0477   -5.7151   25.2363 H   0  0  0  0  0  0  0  0  0  0  0  0
   10.7000   -4.2337   25.9883 H   0  0  0  0  0  0  0  0  0  0  0  0
   11.7450   -5.2572   24.9913 H   0  0  0  0  0  0  0  0  0  0  0  0
    8.5160   -2.9084   22.9168 C   0  0  0  0  0  0  0  0  0  0  0  0
    9.0368   -2.9874   21.9660 H   0  0  0  0  0  0  0  0  0  0  0  0
  1  2  1  0
  2  3  2  3
  3  4  1  0
  3  5  1  0
  5  6  2  0
  6  7  1  0
  6  8  1  0
  8  9  2  0
  9 10  1  0
  9 11  1  0
 11 12  1  0
 11 13  2  0
 13 14  1  0
  2 15  1  0
 15 16  2  0
 16 17  1  0
 16 18  1  0
 18 19  2  0
 19 20  1  0
 19 21  1  0
 21 22  1  0
 22 23  1  0
 23 24  1  0
 23 25  1  0
 23 26  1  0
 21 27  2  0
 27 28  1  0
 13  5  1  0
 27 15  1  0
M  END
>  <cnnaffinity>  (1) 
-5.06324

>  <filename>  (1) 
COc1cncc(C=C(Br)c2cccnc2)c1

$$$$
