
     RDKit          3D

 40 42  0  0  0  0  0  0  0  0999 V2000
   10.2102   -4.9660   26.0308 C   0  0  0  0  0  0  0  0  0  0  0  0
    9.3789   -3.9562   25.4467 O   0  0  0  0  0  0  0  0  0  0  0  0
    8.1056   -4.2983   25.0400 C   0  0  0  0  0  0  0  0  0  0  0  0
    7.5580   -5.5883   25.1783 C   0  0  0  0  0  0  0  0  0  0  0  0
    6.2391   -5.8504   24.7556 C   0  0  0  0  0  0  0  0  0  0  0  0
    5.4771   -4.8530   24.1552 C   0  0  0  0  0  0  0  0  0  0  0  0
    3.7105   -5.2317   23.5322 Br  0  0  0  0  0  0  0  0  0  0  0  0
    6.0114   -3.5771   24.0192 C   0  0  0  0  0  0  0  0  0  0  0  0
    7.3069   -3.2875   24.4606 C   0  0  0  0  0  0  0  0  0  0  0  0
    7.7935   -1.8650   24.3032 C   0  0  0  0  0  0  0  0  0  0  0  0
    7.8031   -1.4506   22.8553 C   0  0  0  0  0  0  0  0  0  0  0  0
    6.8885   -0.7534   22.2468 N   0  0  0  0  0  0  0  0  0  0  0  0
    7.3571   -0.6762   20.9467 C   0  0  0  0  0  0  0  0  0  0  0  0
    6.6493    0.0100   19.9059 C   0  0  0  0  0  0  0  0  0  0  0  0
    5.4396    0.6516   20.1624 C   0  0  0  0  0  0  0  0  0  0  0  0
    4.8252    1.2935   19.1005 C   0  0  0  0  0  0  0  0  0  0  0  0
    5.4221    1.2803   17.8370 C   0  0  0  0  0  0  0  0  0  0  0  0
    6.5874    0.6504   17.5938 N   0  0  0  0  0  0  0  0  0  0  0  0
    7.1909    0.0334   18.6195 C   0  0  0  0  0  0  0  0  0  0  0  0
    8.1412   -0.4604   18.4323 H   0  0  0  0  0  0  0  0  0  0  0  0
    4.9215    1.8037   17.0304 H   0  0  0  0  0  0  0  0  0  0  0  0
    3.8917    1.8211   19.2420 H   0  0  0  0  0  0  0  0  0  0  0  0
    4.9921    0.6583   21.1577 H   0  0  0  0  0  0  0  0  0  0  0  0
    8.4948   -1.2784   20.7250 N   0  0  0  0  0  0  0  0  0  0  0  0
    8.7914   -1.7638   21.9441 N   0  0  0  0  0  0  0  0  0  0  0  0
   10.0093   -2.5129   22.1754 C   0  0  0  0  0  0  0  0  0  0  0  0
   11.1725   -1.6292   22.5601 C   0  0  0  0  0  0  0  0  0  0  0  0
   12.2708   -2.4171   22.5036 F   0  0  0  0  0  0  0  0  0  0  0  0
   11.0643   -1.2248   23.5706 H   0  0  0  0  0  0  0  0  0  0  0  0
   11.2473   -0.7969   21.8518 H   0  0  0  0  0  0  0  0  0  0  0  0
    9.8538   -3.2933   22.9257 H   0  0  0  0  0  0  0  0  0  0  0  0
   10.2410   -2.9593   21.2141 H   0  0  0  0  0  0  0  0  0  0  0  0
    7.1362   -1.1918   24.8609 H   0  0  0  0  0  0  0  0  0  0  0  0
    8.8014   -1.7791   24.7150 H   0  0  0  0  0  0  0  0  0  0  0  0
    5.4102   -2.7915   23.5697 H   0  0  0  0  0  0  0  0  0  0  0  0
    5.7515   -6.8122   24.8810 H   0  0  0  0  0  0  0  0  0  0  0  0
    8.1697   -6.3660   25.6231 H   0  0  0  0  0  0  0  0  0  0  0  0
   11.1764   -4.5260   26.2998 H   0  0  0  0  0  0  0  0  0  0  0  0
    9.7519   -5.3733   26.9378 H   0  0  0  0  0  0  0  0  0  0  0  0
   10.3898   -5.7785   25.3202 H   0  0  0  0  0  0  0  0  0  0  0  0
  1  2  1  0
  2  3  1  0
  3  4  2  0
  4  5  1  0
  5  6  2  0
  6  7  1  0
  6  8  1  0
  8  9  2  0
  9 10  1  0
 10 11  1  0
 11 12  2  0
 12 13  1  0
 13 14  1  0
 14 15  2  0
 15 16  1  0
 16 17  2  0
 17 18  1  0
 18 19  2  0
 19 20  1  0
 17 21  1  0
 16 22  1  0
 15 23  1  0
 13 24  2  0
 24 25  1  0
 25 26  1  0
 26 27  1  0
 27 28  1  0
 27 29  1  0
 27 30  1  0
 26 31  1  0
 26 32  1  0
 10 33  1  0
 10 34  1  0
  8 35  1  0
  5 36  1  0
  4 37  1  0
  1 38  1  0
  1 39  1  0
  1 40  1  0
  9  3  1  0
 25 11  1  0
 19 14  1  0
M  END
>  <cnnaffinity>  (1) 
-6.41843

>  <filename>  (1) 
COc1ccc(Br)cc1Cc1nc(-c2cccnc2)nn1CCF

$$$$
