
     RDKit          3D

 32 34  0  0  0  0  0  0  0  0999 V2000
    4.9300    1.7797   16.9981 H   0  0  0  0  0  0  0  0  0  0  0  0
    5.4075    1.2877   17.8430 C   0  0  0  0  0  0  0  0  0  0  0  0
    6.5731    0.6686   17.5941 N   0  0  0  0  0  0  0  0  0  0  0  0
    7.1840    0.0462   18.6065 C   0  0  0  0  0  0  0  0  0  0  0  0
    8.1283   -0.4338   18.3730 H   0  0  0  0  0  0  0  0  0  0  0  0
    6.6615   -0.0000   19.9122 C   0  0  0  0  0  0  0  0  0  0  0  0
    7.3632   -0.6778   20.9389 N   0  0  0  0  0  0  0  0  0  0  0  0
    8.2932   -1.6128   20.6521 N   0  0  0  0  0  0  0  0  0  0  0  0
    8.7263   -2.0380   21.8234 C   0  0  0  0  0  0  0  0  0  0  0  0
    9.4861   -2.7988   21.9001 H   0  0  0  0  0  0  0  0  0  0  0  0
    8.1007   -1.3630   22.9050 C   0  0  0  0  0  0  0  0  0  0  0  0
    8.3360   -1.5129   24.3538 C   0  0  0  0  0  0  0  0  0  0  0  0
    8.1982   -0.3764   25.1639 C   0  0  0  0  0  0  0  0  0  0  0  0
    7.9272    0.5649   24.6971 H   0  0  0  0  0  0  0  0  0  0  0  0
    8.4183   -0.4205   26.5349 C   0  0  0  0  0  0  0  0  0  0  0  0
    8.3094    0.4728   27.1489 H   0  0  0  0  0  0  0  0  0  0  0  0
    8.7832   -1.6324   27.1105 C   0  0  0  0  0  0  0  0  0  0  0  0
    8.9605   -1.6391   28.1746 H   0  0  0  0  0  0  0  0  0  0  0  0
    8.9223   -2.7956   26.3471 C   0  0  0  0  0  0  0  0  0  0  0  0
    9.2099   -3.7354   26.8116 H   0  0  0  0  0  0  0  0  0  0  0  0
    8.6948   -2.7474   24.9637 C   0  0  0  0  0  0  0  0  0  0  0  0
    8.7967   -3.8305   24.1420 O   0  0  0  0  0  0  0  0  0  0  0  0
    9.1325   -5.1081   24.6494 C   0  0  0  0  0  0  0  0  0  0  0  0
    9.1120   -5.7674   23.7845 H   0  0  0  0  0  0  0  0  0  0  0  0
   10.1374   -5.1311   25.0886 H   0  0  0  0  0  0  0  0  0  0  0  0
    8.4071   -5.4818   25.3833 H   0  0  0  0  0  0  0  0  0  0  0  0
    7.2429   -0.4883   22.2775 C   0  0  0  0  0  0  0  0  0  0  0  0
    6.5574    0.2481   22.6769 H   0  0  0  0  0  0  0  0  0  0  0  0
    5.4430    0.6454   20.1686 C   0  0  0  0  0  0  0  0  0  0  0  0
    4.9907    0.6283   21.1614 H   0  0  0  0  0  0  0  0  0  0  0  0
    4.8147    1.3018   19.1094 C   0  0  0  0  0  0  0  0  0  0  0  0
    3.8848    1.8339   19.2622 H   0  0  0  0  0  0  0  0  0  0  0  0
  1  2  1  0
  2  3  2  0
  3  4  1  0
  4  5  1  0
  4  6  2  0
  6  7  1  0
  7  8  1  0
  8  9  2  0
  9 10  1  0
  9 11  1  0
 11 12  1  0
 12 13  2  0
 13 14  1  0
 13 15  1  0
 15 16  1  0
 15 17  2  0
 17 18  1  0
 17 19  1  0
 19 20  1  0
 19 21  2  0
 21 22  1  0
 22 23  1  0
 23 24  1  0
 23 25  1  0
 23 26  1  0
 11 27  2  0
 27 28  1  0
  6 29  1  0
 29 30  1  0
 29 31  2  0
 31 32  1  0
 31  2  1  0
 27  7  1  0
 21 12  1  0
M  END
>  <cnnaffinity>  (1) 
-5.05923

>  <filename>  (1) 
COc1ccccc1-c1cnn(-c2cccnc2)c1

$$$$
