
     RDKit          3D

 35 37  0  0  0  0  0  0  0  0999 V2000
    4.9293    1.8223   16.9664 H   0  0  0  0  0  0  0  0  0  0  0  0
    5.4081    1.3277   17.8089 C   0  0  0  0  0  0  0  0  0  0  0  0
    6.5714    0.7108   17.5453 N   0  0  0  0  0  0  0  0  0  0  0  0
    7.1803    0.0714   18.5532 C   0  0  0  0  0  0  0  0  0  0  0  0
    8.1286   -0.4134   18.3205 H   0  0  0  0  0  0  0  0  0  0  0  0
    6.6488   -0.0080   19.8568 C   0  0  0  0  0  0  0  0  0  0  0  0
    7.3332   -0.7075   20.9201 N   0  0  0  0  0  0  0  0  0  0  0  0
    8.5876   -0.2649   21.2909 C   0  0  0  0  0  0  0  0  0  0  0  0
    8.9600    0.5871   20.7291 H   0  0  0  0  0  0  0  0  0  0  0  0
    9.3286   -0.8477   22.2820 C   0  0  0  0  0  0  0  0  0  0  0  0
   10.7145   -0.3520   22.5704 C   0  0  0  0  0  0  0  0  0  0  0  0
   11.8070   -1.2265   22.4874 C   0  0  0  0  0  0  0  0  0  0  0  0
   11.6180   -2.2725   22.2593 H   0  0  0  0  0  0  0  0  0  0  0  0
   13.1237   -0.7952   22.6843 C   0  0  0  0  0  0  0  0  0  0  0  0
   13.9231   -1.5151   22.5343 H   0  0  0  0  0  0  0  0  0  0  0  0
   13.3708    0.5197   23.0866 C   0  0  0  0  0  0  0  0  0  0  0  0
   14.3730    0.8728   23.3429 H   0  0  0  0  0  0  0  0  0  0  0  0
   12.2993    1.4176   23.1745 C   0  0  0  0  0  0  0  0  0  0  0  0
   12.4607    2.4383   23.4996 H   0  0  0  0  0  0  0  0  0  0  0  0
   10.9909    1.0093   22.8581 C   0  0  0  0  0  0  0  0  0  0  0  0
    9.9186    1.8532   22.8546 O   0  0  0  0  0  0  0  0  0  0  0  0
   10.1143    3.2345   23.0602 C   0  0  0  0  0  0  0  0  0  0  0  0
   10.4899    3.4350   24.0711 H   0  0  0  0  0  0  0  0  0  0  0  0
   10.8130    3.6582   22.3278 H   0  0  0  0  0  0  0  0  0  0  0  0
    9.1357    3.6964   22.9344 H   0  0  0  0  0  0  0  0  0  0  0  0
    8.7523   -1.9637   22.9752 C   0  0  0  0  0  0  0  0  0  0  0  0
    9.3169   -2.4588   23.7691 H   0  0  0  0  0  0  0  0  0  0  0  0
    7.4985   -2.3972   22.6632 C   0  0  0  0  0  0  0  0  0  0  0  0
    7.0026   -3.2225   23.1549 H   0  0  0  0  0  0  0  0  0  0  0  0
    6.6925   -1.8090   21.6004 C   0  0  0  0  0  0  0  0  0  0  0  0
    5.5928   -2.2271   21.2830 O   0  0  0  0  0  0  0  0  0  0  0  0
    5.4384    0.6450   20.1170 C   0  0  0  0  0  0  0  0  0  0  0  0
    5.0230    0.6136   21.1229 H   0  0  0  0  0  0  0  0  0  0  0  0
    4.8072    1.3290   19.0724 C   0  0  0  0  0  0  0  0  0  0  0  0
    3.8673    1.8535   19.2199 H   0  0  0  0  0  0  0  0  0  0  0  0
  1  2  1  0
  2  3  2  0
  3  4  1  0
  4  5  1  0
  4  6  2  0
  6  7  1  0
  7  8  1  0
  8  9  1  0
  8 10  2  0
 10 11  1  0
 11 12  2  0
 12 13  1  0
 12 14  1  0
 14 15  1  0
 14 16  2  0
 16 17  1  0
 16 18  1  0
 18 19  1  0
 18 20  2  0
 20 21  1  0
 21 22  1  0
 22 23  1  0
 22 24  1  0
 22 25  1  0
 10 26  1  0
 26 27  1  0
 26 28  2  0
 28 29  1  0
 28 30  1  0
 30 31  2  0
  6 32  1  0
 32 33  1  0
 32 34  2  0
 34 35  1  0
 34  2  1  0
 30  7  1  0
 20 11  1  0
M  END
>  <cnnaffinity>  (1) 
-5.10257

>  <filename>  (1) 
COc1ccccc1-c1ccc(=O)n(-c2cccnc2)c1

$$$$
