
     RDKit          3D

 40 41  0  0  0  0  0  0  0  0999 V2000
    8.0133    1.0737   30.2173 C   0  0  0  0  0  0  0  0  0  0  0  0
    7.6064    1.7310   29.0210 O   0  0  0  0  0  0  0  0  0  0  0  0
    8.0141    1.3017   27.8009 C   0  0  0  0  0  0  0  0  0  0  0  0
    8.3437   -0.0303   27.5131 C   0  0  0  0  0  0  0  0  0  0  0  0
    8.6802   -0.4258   26.2182 C   0  0  0  0  0  0  0  0  0  0  0  0
    8.8283   -1.7397   25.8697 O   0  0  0  0  0  0  0  0  0  0  0  0
    9.0959   -2.7142   26.8583 C   0  0  0  0  0  0  0  0  0  0  0  0
    8.2040   -2.9406   27.4544 H   0  0  0  0  0  0  0  0  0  0  0  0
    9.3959   -3.6146   26.3236 H   0  0  0  0  0  0  0  0  0  0  0  0
    9.9196   -2.3957   27.5036 H   0  0  0  0  0  0  0  0  0  0  0  0
    8.8615    0.5259   25.2066 C   0  0  0  0  0  0  0  0  0  0  0  0
    9.4983    0.1430   23.8979 C   0  0  0  0  0  0  0  0  0  0  0  0
   10.3910    0.8024   23.3935 O   0  0  0  0  0  0  0  0  0  0  0  0
    8.9298   -0.9511   23.2908 N   0  0  0  0  0  0  0  0  0  0  0  0
    9.3981   -1.4781   22.0024 C   0  0  0  0  0  0  0  0  0  0  0  0
    8.8336   -0.8464   20.6947 C   0  0  0  0  0  0  0  0  0  0  0  0
    9.5433   -0.6708   19.7288 O   0  0  0  0  0  0  0  0  0  0  0  0
    7.4870   -0.5835   20.7006 N   0  0  0  0  0  0  0  0  0  0  0  0
    6.7279    0.0155   19.6631 C   0  0  0  0  0  0  0  0  0  0  0  0
    5.5085    0.6092   20.0155 C   0  0  0  0  0  0  0  0  0  0  0  0
    4.7862    1.2958   19.0365 C   0  0  0  0  0  0  0  0  0  0  0  0
    5.2897    1.3460   17.7349 C   0  0  0  0  0  0  0  0  0  0  0  0
    6.4173    0.7187   17.3615 N   0  0  0  0  0  0  0  0  0  0  0  0
    7.1133    0.0608   18.2994 C   0  0  0  0  0  0  0  0  0  0  0  0
    8.0241   -0.4445   17.9829 H   0  0  0  0  0  0  0  0  0  0  0  0
    4.7819    1.9098   16.9576 H   0  0  0  0  0  0  0  0  0  0  0  0
    3.8653    1.8161   19.2740 H   0  0  0  0  0  0  0  0  0  0  0  0
    5.1349    0.5390   21.0344 H   0  0  0  0  0  0  0  0  0  0  0  0
    7.0931   -0.5442   21.6273 H   0  0  0  0  0  0  0  0  0  0  0  0
   10.4880   -1.4313   21.8906 H   0  0  0  0  0  0  0  0  0  0  0  0
    9.1269   -2.5416   21.9596 H   0  0  0  0  0  0  0  0  0  0  0  0
    8.5783   -1.5989   23.9835 H   0  0  0  0  0  0  0  0  0  0  0  0
    8.5441    1.8666   25.4919 C   0  0  0  0  0  0  0  0  0  0  0  0
    8.1050    2.2563   26.7578 C   0  0  0  0  0  0  0  0  0  0  0  0
    7.7061    3.9212   27.0595 Cl  0  0  0  0  0  0  0  0  0  0  0  0
    8.6402    2.6180   24.7083 H   0  0  0  0  0  0  0  0  0  0  0  0
    8.3964   -0.7608   28.2909 H   0  0  0  0  0  0  0  0  0  0  0  0
    9.0850    0.8352   30.2034 H   0  0  0  0  0  0  0  0  0  0  0  0
    7.4295    0.1626   30.4125 H   0  0  0  0  0  0  0  0  0  0  0  0
    7.8194    1.7901   31.0212 H   0  0  0  0  0  0  0  0  0  0  0  0
  1  2  1  0
  2  3  1  0
  3  4  2  0
  4  5  1  0
  5  6  1  0
  6  7  1  0
  7  8  1  0
  7  9  1  0
  7 10  1  0
  5 11  2  0
 11 12  1  0
 12 13  2  0
 12 14  1  0
 14 15  1  0
 15 16  1  0
 16 17  2  0
 16 18  1  0
 18 19  1  0
 19 20  2  0
 20 21  1  0
 21 22  2  0
 22 23  1  0
 23 24  2  0
 24 25  1  0
 22 26  1  0
 21 27  1  0
 20 28  1  0
 18 29  1  0
 15 30  1  0
 15 31  1  0
 14 32  1  0
 11 33  1  0
 33 34  2  0
 34 35  1  0
 33 36  1  0
  4 37  1  0
  1 38  1  0
  1 39  1  0
  1 40  1  0
 34  3  1  0
 24 19  1  0
M  END
>  <cnnaffinity>  (1) 
-5.02847

>  <filename>  (1) 
COc1cc(OC)c(C(=O)NCC(=O)Nc2cccnc2)cc1Cl

$$$$
