
     RDKit          3D

 39 41  0  0  0  0  0  0  0  0999 V2000
    4.5572   -2.4821   26.9477 C   0  0  0  0  0  0  0  0  0  0  0  0
    5.8820   -2.3913   26.4658 O   0  0  0  0  0  0  0  0  0  0  0  0
    6.4800   -3.4900   25.9175 C   0  0  0  0  0  0  0  0  0  0  0  0
    5.8777   -4.7561   25.8818 C   0  0  0  0  0  0  0  0  0  0  0  0
    6.5689   -5.8520   25.3643 C   0  0  0  0  0  0  0  0  0  0  0  0
    7.8676   -5.6908   24.8794 C   0  0  0  0  0  0  0  0  0  0  0  0
    8.4649   -4.4261   24.9178 C   0  0  0  0  0  0  0  0  0  0  0  0
    7.7850   -3.3081   25.4156 C   0  0  0  0  0  0  0  0  0  0  0  0
    8.4400   -1.9348   25.4004 C   0  0  0  0  0  0  0  0  0  0  0  0
    7.7818   -0.9646   24.5206 N   0  0  0  0  0  0  0  0  0  0  0  0
    6.9820    0.1196   25.0743 C   0  0  0  0  0  0  0  0  0  0  0  0
    7.3621    1.0946   24.7397 H   0  0  0  0  0  0  0  0  0  0  0  0
    7.0334    0.0620   26.1657 H   0  0  0  0  0  0  0  0  0  0  0  0
    5.9413    0.0290   24.7455 H   0  0  0  0  0  0  0  0  0  0  0  0
    7.8139   -1.0997   23.1660 C   0  0  0  0  0  0  0  0  0  0  0  0
    7.0932   -0.3688   22.3651 N   0  0  0  0  0  0  0  0  0  0  0  0
    7.3778   -0.6682   21.0543 C   0  0  0  0  0  0  0  0  0  0  0  0
    6.6494    0.0179   19.9724 C   0  0  0  0  0  0  0  0  0  0  0  0
    5.4214    0.6655   20.1893 C   0  0  0  0  0  0  0  0  0  0  0  0
    4.7990    1.3028   19.1176 C   0  0  0  0  0  0  0  0  0  0  0  0
    5.4175    1.2712   17.8633 C   0  0  0  0  0  0  0  0  0  0  0  0
    6.5797    0.6473   17.6346 N   0  0  0  0  0  0  0  0  0  0  0  0
    7.1745    0.0448   18.6685 C   0  0  0  0  0  0  0  0  0  0  0  0
    8.1253   -0.4254   18.4178 H   0  0  0  0  0  0  0  0  0  0  0  0
    4.9687    1.7707   17.0063 H   0  0  0  0  0  0  0  0  0  0  0  0
    3.8644    1.8397   19.2389 H   0  0  0  0  0  0  0  0  0  0  0  0
    4.9711    0.6700   21.1820 H   0  0  0  0  0  0  0  0  0  0  0  0
    8.3329   -1.6123   20.8545 C   0  0  0  0  0  0  0  0  0  0  0  0
    8.8892   -2.2352   22.3623 S   0  0  0  0  0  0  0  0  0  0  0  0
    8.7603   -1.9318   19.9252 H   0  0  0  0  0  0  0  0  0  0  0  0
    8.4206   -1.4986   26.4092 H   0  0  0  0  0  0  0  0  0  0  0  0
    9.4968   -2.0493   25.1097 H   0  0  0  0  0  0  0  0  0  0  0  0
    9.4808   -4.2975   24.5434 H   0  0  0  0  0  0  0  0  0  0  0  0
    8.4267   -6.5200   24.4606 H   0  0  0  0  0  0  0  0  0  0  0  0
    6.0580   -6.8124   25.3664 H   0  0  0  0  0  0  0  0  0  0  0  0
    4.8740   -4.8798   26.2647 H   0  0  0  0  0  0  0  0  0  0  0  0
    4.4816   -3.1896   27.7873 H   0  0  0  0  0  0  0  0  0  0  0  0
    4.3148   -1.4721   27.2832 H   0  0  0  0  0  0  0  0  0  0  0  0
    3.8594   -2.7969   26.1571 H   0  0  0  0  0  0  0  0  0  0  0  0
  1  2  1  0
  2  3  1  0
  3  4  2  0
  4  5  1  0
  5  6  2  0
  6  7  1  0
  7  8  2  0
  8  9  1  0
  9 10  1  0
 10 11  1  0
 11 12  1  0
 11 13  1  0
 11 14  1  0
 10 15  1  0
 15 16  2  0
 16 17  1  0
 17 18  1  0
 18 19  2  0
 19 20  1  0
 20 21  2  0
 21 22  1  0
 22 23  2  0
 23 24  1  0
 21 25  1  0
 20 26  1  0
 19 27  1  0
 17 28  2  0
 28 29  1  0
 28 30  1  0
  9 31  1  0
  9 32  1  0
  7 33  1  0
  6 34  1  0
  5 35  1  0
  4 36  1  0
  1 37  1  0
  1 38  1  0
  1 39  1  0
  8  3  1  0
 29 15  1  0
 23 18  1  0
M  END
>  <cnnaffinity>  (1) 
-5.28173

>  <filename>  (1) 
COc1ccccc1CN(C)c1nc(-c2cccnc2)cs1

$$$$
