
     RDKit          3D

 40 42  0  0  0  0  0  0  0  0999 V2000
    4.7451    0.6796   25.6336 C   0  0  0  0  0  0  0  0  0  0  0  0
    5.7498   -0.2537   25.3239 O   0  0  0  0  0  0  0  0  0  0  0  0
    5.4465   -1.5750   25.2311 C   0  0  0  0  0  0  0  0  0  0  0  0
    4.1891   -2.1153   25.5403 C   0  0  0  0  0  0  0  0  0  0  0  0
    3.9798   -3.4878   25.3952 C   0  0  0  0  0  0  0  0  0  0  0  0
    4.9997   -4.3196   24.9360 C   0  0  0  0  0  0  0  0  0  0  0  0
    6.2408   -3.7488   24.6220 C   0  0  0  0  0  0  0  0  0  0  0  0
    7.4738   -4.8005   23.9811 Cl  0  0  0  0  0  0  0  0  0  0  0  0
    6.5108   -2.3875   24.7686 C   0  0  0  0  0  0  0  0  0  0  0  0
    7.8219   -1.7511   24.3238 C   0  0  0  0  0  0  0  0  0  0  0  0
    7.8074   -1.4203   22.8609 C   0  0  0  0  0  0  0  0  0  0  0  0
    6.8836   -0.7310   22.2283 N   0  0  0  0  0  0  0  0  0  0  0  0
    7.3440   -0.6709   20.9577 C   0  0  0  0  0  0  0  0  0  0  0  0
    6.6383    0.0141   19.8929 C   0  0  0  0  0  0  0  0  0  0  0  0
    5.4237    0.6619   20.1386 C   0  0  0  0  0  0  0  0  0  0  0  0
    4.8092    1.3101   19.0732 C   0  0  0  0  0  0  0  0  0  0  0  0
    5.4299    1.2859   17.8184 C   0  0  0  0  0  0  0  0  0  0  0  0
    6.5916    0.6569   17.5756 N   0  0  0  0  0  0  0  0  0  0  0  0
    7.1842    0.0376   18.6025 C   0  0  0  0  0  0  0  0  0  0  0  0
    8.1318   -0.4563   18.3876 H   0  0  0  0  0  0  0  0  0  0  0  0
    4.9726    1.7952   16.9724 H   0  0  0  0  0  0  0  0  0  0  0  0
    3.8744    1.8389   19.2135 H   0  0  0  0  0  0  0  0  0  0  0  0
    5.0076    0.6476   21.1482 H   0  0  0  0  0  0  0  0  0  0  0  0
    8.5013   -1.2688   20.7647 N   0  0  0  0  0  0  0  0  0  0  0  0
    8.7850   -1.7688   21.9853 N   0  0  0  0  0  0  0  0  0  0  0  0
   10.0501   -2.4499   22.1144 C   0  0  0  0  0  0  0  0  0  0  0  0
   11.1572   -1.4840   22.4681 C   0  0  0  0  0  0  0  0  0  0  0  0
   10.9413   -1.0692   23.7542 F   0  0  0  0  0  0  0  0  0  0  0  0
   12.3421   -2.1439   22.3925 F   0  0  0  0  0  0  0  0  0  0  0  0
   11.2208   -0.6022   21.8242 H   0  0  0  0  0  0  0  0  0  0  0  0
   10.2355   -2.8593   21.1282 H   0  0  0  0  0  0  0  0  0  0  0  0
   10.0162   -3.2600   22.8499 H   0  0  0  0  0  0  0  0  0  0  0  0
    8.6678   -2.4056   24.5484 H   0  0  0  0  0  0  0  0  0  0  0  0
    7.9743   -0.8086   24.8619 H   0  0  0  0  0  0  0  0  0  0  0  0
    4.8532   -5.3858   24.7991 H   0  0  0  0  0  0  0  0  0  0  0  0
    3.0051   -3.9108   25.6253 H   0  0  0  0  0  0  0  0  0  0  0  0
    3.3848   -1.4602   25.8641 H   0  0  0  0  0  0  0  0  0  0  0  0
    3.9111    0.6292   24.9209 H   0  0  0  0  0  0  0  0  0  0  0  0
    5.2180    1.6591   25.5652 H   0  0  0  0  0  0  0  0  0  0  0  0
    4.3669    0.5272   26.6516 H   0  0  0  0  0  0  0  0  0  0  0  0
  1  2  1  0
  2  3  1  0
  3  4  2  0
  4  5  1  0
  5  6  2  0
  6  7  1  0
  7  8  1  0
  7  9  2  0
  9 10  1  0
 10 11  1  0
 11 12  2  0
 12 13  1  0
 13 14  1  0
 14 15  2  0
 15 16  1  0
 16 17  2  0
 17 18  1  0
 18 19  2  0
 19 20  1  0
 17 21  1  0
 16 22  1  0
 15 23  1  0
 13 24  2  0
 24 25  1  0
 25 26  1  0
 26 27  1  0
 27 28  1  0
 27 29  1  0
 27 30  1  0
 26 31  1  0
 26 32  1  0
 10 33  1  0
 10 34  1  0
  6 35  1  0
  5 36  1  0
  4 37  1  0
  1 38  1  0
  1 39  1  0
  1 40  1  0
  9  3  1  0
 25 11  1  0
 19 14  1  0
M  END
>  <cnnaffinity>  (1) 
-5.89493

>  <filename>  (1) 
COc1cccc(Cl)c1Cc1nc(-c2cccnc2)nn1CC(F)F

$$$$
