
     RDKit          3D

 25 26  0  0  0  0  0  0  0  0999 V2000
    4.9304    1.7816   17.0010 H   0  0  0  0  0  0  0  0  0  0  0  0
    5.4011    1.2866   17.8512 C   0  0  0  0  0  0  0  0  0  0  0  0
    6.5673    0.6638   17.6032 N   0  0  0  0  0  0  0  0  0  0  0  0
    7.1779    0.0499   18.6214 C   0  0  0  0  0  0  0  0  0  0  0  0
    8.1261   -0.4356   18.3976 H   0  0  0  0  0  0  0  0  0  0  0  0
    6.6668    0.0001   19.9433 C   0  0  0  0  0  0  0  0  0  0  0  0
    7.4327   -0.6699   20.8611 O   0  0  0  0  0  0  0  0  0  0  0  0
    6.9946   -0.8128   22.2071 C   0  0  0  0  0  0  0  0  0  0  0  0
    6.0353   -1.3362   22.2649 H   0  0  0  0  0  0  0  0  0  0  0  0
    6.9128    0.1736   22.6747 H   0  0  0  0  0  0  0  0  0  0  0  0
    7.9574   -1.5907   22.9229 N   0  0  0  0  0  0  0  0  0  0  0  0
    7.8358   -2.9632   23.1463 N   0  0  0  0  0  0  0  0  0  0  0  0
    8.9470   -3.2274   23.7421 C   0  0  0  0  0  0  0  0  0  0  0  0
    9.3989   -4.3839   24.1827 O   0  0  0  0  0  0  0  0  0  0  0  0
    8.5547   -5.5294   23.9858 C   0  0  0  0  0  0  0  0  0  0  0  0
    9.1025   -6.3673   24.4190 H   0  0  0  0  0  0  0  0  0  0  0  0
    8.3761   -5.7085   22.9207 H   0  0  0  0  0  0  0  0  0  0  0  0
    7.5944   -5.4059   24.4967 H   0  0  0  0  0  0  0  0  0  0  0  0
    9.7843   -2.2050   23.9449 O   0  0  0  0  0  0  0  0  0  0  0  0
    9.1387   -1.1067   23.4012 C   0  0  0  0  0  0  0  0  0  0  0  0
    9.5687    0.0106   23.4078 O   0  0  0  0  0  0  0  0  0  0  0  0
    5.4464    0.6397   20.1867 C   0  0  0  0  0  0  0  0  0  0  0  0
    4.9984    0.6345   21.1801 H   0  0  0  0  0  0  0  0  0  0  0  0
    4.8163    1.2987   19.1171 C   0  0  0  0  0  0  0  0  0  0  0  0
    3.8860    1.8322   19.2604 H   0  0  0  0  0  0  0  0  0  0  0  0
  1  2  1  0
  2  3  2  0
  3  4  1  0
  4  5  1  0
  4  6  2  0
  6  7  1  0
  7  8  1  0
  8  9  1  0
  8 10  1  0
  8 11  1  0
 11 12  1  0
 12 13  2  0
 13 14  1  0
 14 15  1  0
 15 16  1  0
 15 17  1  0
 15 18  1  0
 13 19  1  0
 19 20  1  0
 20 21  2  0
  6 22  1  0
 22 23  1  0
 22 24  2  0
 24 25  1  0
 24  2  1  0
 20 11  1  0
M  END
>  <cnnaffinity>  (1) 
-4.33583

>  <filename>  (1) 
COc1nn(COc2cccnc2)c(=O)o1

$$$$
