
     RDKit          3D

 35 37  0  0  0  0  0  0  0  0999 V2000
    4.9171    1.7943   16.9871 H   0  0  0  0  0  0  0  0  0  0  0  0
    5.3977    1.2969   17.8269 C   0  0  0  0  0  0  0  0  0  0  0  0
    6.5626    0.6861   17.5608 N   0  0  0  0  0  0  0  0  0  0  0  0
    7.1731    0.0692   18.5789 C   0  0  0  0  0  0  0  0  0  0  0  0
    8.1244   -0.4131   18.3445 H   0  0  0  0  0  0  0  0  0  0  0  0
    6.6607    0.0093   19.8864 C   0  0  0  0  0  0  0  0  0  0  0  0
    7.3958   -0.6922   21.0105 C   0  0  2  0  0  0  0  0  0  0  0  0
    8.1862   -1.3170   20.5776 H   0  0  0  0  0  0  0  0  0  0  0  0
    6.5153   -1.6569   21.8188 C   0  0  0  0  0  0  0  0  0  0  0  0
    5.8258   -2.5751   21.4252 O   0  0  0  0  0  0  0  0  0  0  0  0
    6.6671   -1.3370   23.1223 N   0  0  0  0  0  0  0  0  0  0  0  0
    6.1204   -1.8866   23.7611 H   0  0  0  0  0  0  0  0  0  0  0  0
    7.5698   -0.2607   23.4512 C   0  0  0  0  0  0  0  0  0  0  0  0
    7.0829    0.5126   24.0629 H   0  0  0  0  0  0  0  0  0  0  0  0
    8.4265   -0.6283   24.0385 H   0  0  0  0  0  0  0  0  0  0  0  0
    7.9908    0.2880   22.0632 C   0  0  1  0  0  0  0  0  0  0  0  0
    7.5276    1.2738   21.9355 H   0  0  0  0  0  0  0  0  0  0  0  0
    9.4831    0.4832   21.9165 C   0  0  0  0  0  0  0  0  0  0  0  0
   10.0201    1.7374   21.5849 C   0  0  0  0  0  0  0  0  0  0  0  0
    9.3756    2.5927   21.4246 H   0  0  0  0  0  0  0  0  0  0  0  0
   11.3943    1.8803   21.4866 C   0  0  0  0  0  0  0  0  0  0  0  0
   11.8293    2.8365   21.2144 H   0  0  0  0  0  0  0  0  0  0  0  0
   12.2620    0.8777   21.7067 N   0  0  0  0  0  0  0  0  0  0  0  0
   11.7533   -0.3148   21.9571 C   0  0  0  0  0  0  0  0  0  0  0  0
   12.5566   -1.3833   22.1148 O   0  0  0  0  0  0  0  0  0  0  0  0
   13.9708   -1.2598   21.9847 C   0  0  0  0  0  0  0  0  0  0  0  0
   14.3918   -0.5555   22.7119 H   0  0  0  0  0  0  0  0  0  0  0  0
   14.3440   -2.2639   22.1788 H   0  0  0  0  0  0  0  0  0  0  0  0
   14.2699   -0.9497   20.9770 H   0  0  0  0  0  0  0  0  0  0  0  0
   10.3770   -0.5659   22.0848 C   0  0  0  0  0  0  0  0  0  0  0  0
   10.0652   -1.5724   22.3216 H   0  0  0  0  0  0  0  0  0  0  0  0
    5.4452    0.6517   20.1423 C   0  0  0  0  0  0  0  0  0  0  0  0
    5.0169    0.6287   21.1486 H   0  0  0  0  0  0  0  0  0  0  0  0
    4.8070    1.3105   19.0934 C   0  0  0  0  0  0  0  0  0  0  0  0
    3.8781    1.8412   19.2481 H   0  0  0  0  0  0  0  0  0  0  0  0
  1  2  1  0
  2  3  2  0
  3  4  1  0
  4  5  1  0
  4  6  2  0
  6  7  1  0
  7  8  1  6
  7  9  1  0
  9 10  2  0
  9 11  1  0
 11 12  1  0
 11 13  1  0
 13 14  1  0
 13 15  1  0
 13 16  1  0
 16 17  1  6
 16 18  1  0
 18 19  2  0
 19 20  1  0
 19 21  1  0
 21 22  1  0
 21 23  2  0
 23 24  1  0
 24 25  1  0
 25 26  1  0
 26 27  1  0
 26 28  1  0
 26 29  1  0
 24 30  2  0
 30 31  1  0
  6 32  1  0
 32 33  1  0
 32 34  2  0
 34 35  1  0
 34  2  1  0
 16  7  1  0
 30 18  1  0
M  END
>  <cnnaffinity>  (1) 
-5.52472

>  <filename>  (1) 
COc1cc([C@@H]2CNC(=O)[C@H]2c2cccnc2)ccn1

$$$$
