
     RDKit          3D

 47 50  0  0  0  0  0  0  0  0999 V2000
    6.2328   -6.7606   22.4688 C   0  0  0  0  0  0  0  0  0  0  0  0
    5.6151   -5.5570   22.9048 O   0  0  0  0  0  0  0  0  0  0  0  0
    6.2655   -4.8831   23.9048 C   0  0  0  0  0  0  0  0  0  0  0  0
    6.5950   -5.4686   25.1330 C   0  0  0  0  0  0  0  0  0  0  0  0
    7.3377   -4.7360   26.0611 C   0  0  0  0  0  0  0  0  0  0  0  0
    7.7886   -3.4397   25.7615 C   0  0  0  0  0  0  0  0  0  0  0  0
    8.7804   -2.7732   26.6941 C   0  0  0  0  0  0  0  0  0  0  0  0
    8.8166   -1.2483   26.5790 C   0  0  0  0  0  0  0  0  0  0  0  0
    8.8988   -0.8140   25.1135 C   0  0  0  0  0  0  0  0  0  0  0  0
    7.6767   -1.3239   24.3005 C   0  0  0  0  0  0  0  0  0  0  0  0
    7.7668   -0.9700   22.8375 C   0  0  0  0  0  0  0  0  0  0  0  0
    6.8630   -0.2815   22.1660 N   0  0  0  0  0  0  0  0  0  0  0  0
    7.3478   -0.2689   20.9008 C   0  0  0  0  0  0  0  0  0  0  0  0
    6.6465    0.3408   19.7771 C   0  0  0  0  0  0  0  0  0  0  0  0
    5.4061    0.9848   19.9015 C   0  0  0  0  0  0  0  0  0  0  0  0
    4.8009    1.4640   18.7434 C   0  0  0  0  0  0  0  0  0  0  0  0
    5.4524    1.2821   17.5191 C   0  0  0  0  0  0  0  0  0  0  0  0
    6.6417    0.6759   17.3907 N   0  0  0  0  0  0  0  0  0  0  0  0
    7.2251    0.2260   18.5049 C   0  0  0  0  0  0  0  0  0  0  0  0
    8.1934   -0.2575   18.3786 H   0  0  0  0  0  0  0  0  0  0  0  0
    5.0008    1.6465   16.6015 H   0  0  0  0  0  0  0  0  0  0  0  0
    3.8517    1.9885   18.7782 H   0  0  0  0  0  0  0  0  0  0  0  0
    4.9359    1.1024   20.8799 H   0  0  0  0  0  0  0  0  0  0  0  0
    8.4936   -0.9062   20.7528 N   0  0  0  0  0  0  0  0  0  0  0  0
    8.7624   -1.3563   22.0003 N   0  0  0  0  0  0  0  0  0  0  0  0
    9.9347   -2.1977   22.1844 C   0  0  0  0  0  0  0  0  0  0  0  0
   11.2590   -1.4542   22.3069 C   0  0  0  0  0  0  0  0  0  0  0  0
   11.5533   -0.7188   21.1783 F   0  0  0  0  0  0  0  0  0  0  0  0
   11.2389   -0.7771   23.1703 H   0  0  0  0  0  0  0  0  0  0  0  0
   12.0514   -2.1995   22.4499 H   0  0  0  0  0  0  0  0  0  0  0  0
    9.7858   -2.8165   23.0760 H   0  0  0  0  0  0  0  0  0  0  0  0
    9.9620   -2.8455   21.3101 H   0  0  0  0  0  0  0  0  0  0  0  0
    7.3818   -2.8206   24.5606 C   0  0  0  0  0  0  0  0  0  0  0  0
    6.6200   -3.5616   23.6423 C   0  0  0  0  0  0  0  0  0  0  0  0
    6.2951   -3.1392   22.7000 H   0  0  0  0  0  0  0  0  0  0  0  0
    6.7771   -0.7700   24.6190 H   0  0  0  0  0  0  0  0  0  0  0  0
    8.9599    0.2764   25.0351 H   0  0  0  0  0  0  0  0  0  0  0  0
    9.8339   -1.2117   24.6941 H   0  0  0  0  0  0  0  0  0  0  0  0
    9.6753   -0.8557   27.1375 H   0  0  0  0  0  0  0  0  0  0  0  0
    7.9243   -0.8175   27.0487 H   0  0  0  0  0  0  0  0  0  0  0  0
    8.5543   -3.0813   27.7175 H   0  0  0  0  0  0  0  0  0  0  0  0
    9.7817   -3.1739   26.4718 H   0  0  0  0  0  0  0  0  0  0  0  0
    7.6156   -5.1804   27.0190 H   0  0  0  0  0  0  0  0  0  0  0  0
    6.2862   -6.4888   25.3386 H   0  0  0  0  0  0  0  0  0  0  0  0
    7.3311   -6.7025   22.5167 H   0  0  0  0  0  0  0  0  0  0  0  0
    5.8950   -7.6205   23.0603 H   0  0  0  0  0  0  0  0  0  0  0  0
    5.9412   -6.9018   21.4299 H   0  0  0  0  0  0  0  0  0  0  0  0
  1  2  1  0
  2  3  1  0
  3  4  2  0
  4  5  1  0
  5  6  2  0
  6  7  1  0
  7  8  1  0
  8  9  1  0
  9 10  1  0
 10 11  1  0
 11 12  2  0
 12 13  1  0
 13 14  1  0
 14 15  2  0
 15 16  1  0
 16 17  2  0
 17 18  1  0
 18 19  2  0
 19 20  1  0
 17 21  1  0
 16 22  1  0
 15 23  1  0
 13 24  2  0
 24 25  1  0
 25 26  1  0
 26 27  1  0
 27 28  1  0
 27 29  1  0
 27 30  1  0
 26 31  1  0
 26 32  1  0
 10 33  1  0
 33 34  2  0
 34 35  1  0
 10 36  1  0
  9 37  1  0
  9 38  1  0
  8 39  1  0
  8 40  1  0
  7 41  1  0
  7 42  1  0
  5 43  1  0
  4 44  1  0
  1 45  1  0
  1 46  1  0
  1 47  1  0
 34  3  1  0
 33  6  1  0
 25 11  1  0
 19 14  1  0
M  END
>  <cnnaffinity>  (1) 
-6.21332

>  <filename>  (1) 
COc1ccc2c(c1)C(c1nc(-c3cccnc3)nn1CCF)CCC2

$$$$
