
     RDKit          3D

 50 54  0  0  0  0  0  0  0  0999 V2000
   11.8486    1.8995   25.0065 C   0  0  0  0  0  0  0  0  0  0  0  0
   11.4847    0.9001   24.0943 O   0  0  0  0  0  0  0  0  0  0  0  0
   12.0932    1.0460   22.8476 C   0  0  0  0  0  0  0  0  0  0  0  0
   11.3450    2.0465   21.9691 C   0  0  0  0  0  0  0  0  0  0  0  0
    9.9147    1.6141   21.9586 C   0  0  0  0  0  0  0  0  0  0  0  0
    9.4763    0.6932   21.1234 N   0  0  0  0  0  0  0  0  0  0  0  0
    8.2821    0.3307   21.6617 C   0  0  0  0  0  0  0  0  0  0  0  0
    7.3989   -0.6754   20.9943 C   0  0  0  0  0  0  0  0  0  0  0  0
    6.6205   -0.0433   19.8517 C   0  0  0  0  0  0  0  0  0  0  0  0
    5.4226    0.6357   20.1086 C   0  0  0  0  0  0  0  0  0  0  0  0
    4.7936    1.3121   19.0617 C   0  0  0  0  0  0  0  0  0  0  0  0
    5.3935    1.3016   17.8001 C   0  0  0  0  0  0  0  0  0  0  0  0
    6.5432    0.6637   17.5308 N   0  0  0  0  0  0  0  0  0  0  0  0
    7.1335    0.0187   18.5447 C   0  0  0  0  0  0  0  0  0  0  0  0
    8.0840   -0.4655   18.3141 H   0  0  0  0  0  0  0  0  0  0  0  0
    4.9346    1.8302   16.9668 H   0  0  0  0  0  0  0  0  0  0  0  0
    3.8680    1.8559   19.2148 H   0  0  0  0  0  0  0  0  0  0  0  0
    5.0026    0.6459   21.1166 H   0  0  0  0  0  0  0  0  0  0  0  0
    8.0374   -1.4914   20.6405 H   0  0  0  0  0  0  0  0  0  0  0  0
    6.7223   -1.0831   21.7518 H   0  0  0  0  0  0  0  0  0  0  0  0
    7.9585    0.9598   22.7689 N   0  0  0  0  0  0  0  0  0  0  0  0
    8.9963    1.8267   22.9449 N   0  0  0  0  0  0  0  0  0  0  0  0
    8.9895    2.7625   24.0254 C   0  0  0  0  0  0  0  0  0  0  0  0
    8.6076    2.3092   25.3184 C   0  0  0  0  0  0  0  0  0  0  0  0
    8.6075    3.1683   26.4163 C   0  0  0  0  0  0  0  0  0  0  0  0
    8.9799    4.5020   26.1988 C   0  0  0  0  0  0  0  0  0  0  0  0
    9.0813    5.6180   27.0124 N   0  0  0  0  0  0  0  0  0  0  0  0
    9.4779    6.6646   26.2182 C   0  0  0  0  0  0  0  0  0  0  0  0
    9.6345    8.0458   26.7580 C   0  0  0  0  0  0  0  0  0  0  0  0
   10.0725    8.0360   27.7601 H   0  0  0  0  0  0  0  0  0  0  0  0
   10.2760    8.6227   26.0896 H   0  0  0  0  0  0  0  0  0  0  0  0
    8.6629    8.5492   26.8117 H   0  0  0  0  0  0  0  0  0  0  0  0
    9.6629    6.3184   24.9755 N   0  0  0  0  0  0  0  0  0  0  0  0
    9.3532    4.9702   24.9226 C   0  0  0  0  0  0  0  0  0  0  0  0
    9.3588    4.0939   23.8218 C   0  0  0  0  0  0  0  0  0  0  0  0
    9.6027    4.4927   22.8444 H   0  0  0  0  0  0  0  0  0  0  0  0
    8.8116    5.6898   27.9767 H   0  0  0  0  0  0  0  0  0  0  0  0
    8.3350    2.7998   27.4028 H   0  0  0  0  0  0  0  0  0  0  0  0
    8.3420    1.2612   25.4403 H   0  0  0  0  0  0  0  0  0  0  0  0
   11.7152    2.0325   20.9424 H   0  0  0  0  0  0  0  0  0  0  0  0
   11.4601    3.0549   22.3726 H   0  0  0  0  0  0  0  0  0  0  0  0
   12.5764   -0.2500   22.3085 C   0  0  0  0  0  0  0  0  0  0  0  0
   13.5566    0.7765   22.8164 C   0  0  0  0  0  0  0  0  0  0  0  0
   14.1910    1.3227   22.1401 H   0  0  0  0  0  0  0  0  0  0  0  0
   14.0266    0.5982   23.7806 H   0  0  0  0  0  0  0  0  0  0  0  0
   12.4673   -0.4701   21.2590 H   0  0  0  0  0  0  0  0  0  0  0  0
   12.4037   -1.1133   22.9312 H   0  0  0  0  0  0  0  0  0  0  0  0
   12.8572    1.6803   25.3661 H   0  0  0  0  0  0  0  0  0  0  0  0
   11.1161    1.8553   25.8128 H   0  0  0  0  0  0  0  0  0  0  0  0
   11.8656    2.9043   24.5615 H   0  0  0  0  0  0  0  0  0  0  0  0
  1  2  1  0
  2  3  1  0
  3  4  1  0
  4  5  1  0
  5  6  2  0
  6  7  1  0
  7  8  1  0
  8  9  1  0
  9 10  2  0
 10 11  1  0
 11 12  2  0
 12 13  1  0
 13 14  2  0
 14 15  1  0
 12 16  1  0
 11 17  1  0
 10 18  1  0
  8 19  1  0
  8 20  1  0
  7 21  2  0
 21 22  1  0
 22 23  1  0
 23 24  2  0
 24 25  1  0
 25 26  2  0
 26 27  1  0
 27 28  1  0
 28 29  1  0
 29 30  1  0
 29 31  1  0
 29 32  1  0
 28 33  2  0
 33 34  1  0
 34 35  2  0
 35 36  1  0
 27 37  1  0
 25 38  1  0
 24 39  1  0
  4 40  1  0
  4 41  1  0
  3 42  1  0
 42 43  1  0
 43 44  1  0
 43 45  1  0
 42 46  1  0
 42 47  1  0
  1 48  1  0
  1 49  1  0
  1 50  1  0
 43  3  1  0
 22  5  1  0
 35 23  1  0
 14  9  1  0
 34 26  1  0
M  END
>  <cnnaffinity>  (1) 
-5.63438

>  <filename>  (1) 
COC1(Cc2nc(Cc3cccnc3)nn2-c2ccc3[nH]c(C)nc3c2)CC1

$$$$
