
     RDKit          3D

 34 35  0  0  0  0  0  0  0  0999 V2000
    4.9522    1.7945   16.9853 H   0  0  0  0  0  0  0  0  0  0  0  0
    5.4355    1.2855   17.8190 C   0  0  0  0  0  0  0  0  0  0  0  0
    6.6034    0.6767   17.5512 N   0  0  0  0  0  0  0  0  0  0  0  0
    7.2314    0.0646   18.5653 C   0  0  0  0  0  0  0  0  0  0  0  0
    8.1732   -0.4252   18.3234 H   0  0  0  0  0  0  0  0  0  0  0  0
    6.7247    0.0059   19.8811 C   0  0  0  0  0  0  0  0  0  0  0  0
    7.4394   -0.6331   20.9373 N   0  0  0  0  0  0  0  0  0  0  0  0
    8.3344   -0.2555   21.2215 H   0  0  0  0  0  0  0  0  0  0  0  0
    6.8612   -1.4842   21.8416 C   0  0  0  0  0  0  0  0  0  0  0  0
    5.8119   -2.0597   21.6279 O   0  0  0  0  0  0  0  0  0  0  0  0
    7.6588   -1.8139   23.0995 C   0  0  2  0  0  0  0  0  0  0  0  0
    6.9070   -2.1871   23.7961 H   0  0  0  0  0  0  0  0  0  0  0  0
    8.2495   -0.5624   23.6927 C   0  0  0  0  0  0  0  0  0  0  0  0
    9.3794   -0.1015   23.1214 N   0  0  0  0  0  0  0  0  0  0  0  0
    9.9977    0.8993   23.7450 C   0  0  0  0  0  0  0  0  0  0  0  0
   11.2163    1.3191   23.3593 O   0  0  0  0  0  0  0  0  0  0  0  0
   11.8616    0.6344   22.3005 C   0  0  0  0  0  0  0  0  0  0  0  0
   12.0720   -0.4031   22.5748 H   0  0  0  0  0  0  0  0  0  0  0  0
   11.2387    0.6384   21.4033 H   0  0  0  0  0  0  0  0  0  0  0  0
   12.7936    1.1682   22.1133 H   0  0  0  0  0  0  0  0  0  0  0  0
    9.4645    1.6173   24.8248 C   0  0  0  0  0  0  0  0  0  0  0  0
   10.0618    2.4404   25.1955 H   0  0  0  0  0  0  0  0  0  0  0  0
    8.2433    1.2211   25.3355 C   0  0  0  0  0  0  0  0  0  0  0  0
    7.7884    1.7467   26.1779 H   0  0  0  0  0  0  0  0  0  0  0  0
    7.6244    0.0961   24.7543 C   0  0  0  0  0  0  0  0  0  0  0  0
    6.6845   -0.2805   25.1332 H   0  0  0  0  0  0  0  0  0  0  0  0
    8.6335   -2.9854   22.8170 C   0  0  0  0  0  0  0  0  0  0  0  0
    9.3912   -2.7093   22.0740 H   0  0  0  0  0  0  0  0  0  0  0  0
    8.0740   -3.8418   22.4262 H   0  0  0  0  0  0  0  0  0  0  0  0
    9.1555   -3.3067   23.7259 H   0  0  0  0  0  0  0  0  0  0  0  0
    5.4947    0.6240   20.1357 C   0  0  0  0  0  0  0  0  0  0  0  0
    5.0735    0.5675   21.1418 H   0  0  0  0  0  0  0  0  0  0  0  0
    4.8478    1.2898   19.0877 C   0  0  0  0  0  0  0  0  0  0  0  0
    3.9070    1.8003   19.2463 H   0  0  0  0  0  0  0  0  0  0  0  0
  1  2  1  0
  2  3  2  0
  3  4  1  0
  4  5  1  0
  4  6  2  0
  6  7  1  0
  7  8  1  0
  7  9  1  0
  9 10  2  0
  9 11  1  0
 11 12  1  1
 11 13  1  0
 13 14  2  0
 14 15  1  0
 15 16  1  0
 16 17  1  0
 17 18  1  0
 17 19  1  0
 17 20  1  0
 15 21  2  0
 21 22  1  0
 21 23  1  0
 23 24  1  0
 23 25  2  0
 25 26  1  0
 11 27  1  0
 27 28  1  0
 27 29  1  0
 27 30  1  0
  6 31  1  0
 31 32  1  0
 31 33  2  0
 33 34  1  0
 33  2  1  0
 25 13  1  0
M  END
>  <cnnaffinity>  (1) 
-5.07238

>  <filename>  (1) 
COc1cccc([C@H](C)C(=O)Nc2cccnc2)n1

$$$$
