
     RDKit          3D

 35 37  0  0  0  0  0  0  0  0999 V2000
    4.9336    1.7923   16.9934 H   0  0  0  0  0  0  0  0  0  0  0  0
    5.4054    1.2855   17.8330 C   0  0  0  0  0  0  0  0  0  0  0  0
    6.5684    0.6647   17.5774 N   0  0  0  0  0  0  0  0  0  0  0  0
    7.1783    0.0353   18.5925 C   0  0  0  0  0  0  0  0  0  0  0  0
    8.1292   -0.4373   18.3530 H   0  0  0  0  0  0  0  0  0  0  0  0
    6.6662   -0.0152   19.9141 C   0  0  0  0  0  0  0  0  0  0  0  0
    7.3277   -0.6860   20.9848 N   0  0  0  0  0  0  0  0  0  0  0  0
    7.8799   -1.5007   20.7842 H   0  0  0  0  0  0  0  0  0  0  0  0
    7.3905   -0.2522   22.2930 C   0  0  0  0  0  0  0  0  0  0  0  0
    6.9804    0.8380   22.6487 O   0  0  0  0  0  0  0  0  0  0  0  0
    8.0355   -1.2413   23.2735 C   0  0  0  0  0  0  0  0  0  0  0  0
    7.0654   -2.2575   23.8213 C   0  0  0  0  0  0  0  0  0  0  0  0
    6.2920   -1.9886   24.9653 C   0  0  0  0  0  0  0  0  0  0  0  0
    6.3842   -1.0400   25.4776 H   0  0  0  0  0  0  0  0  0  0  0  0
    5.4344   -2.9655   25.4506 C   0  0  0  0  0  0  0  0  0  0  0  0
    4.8418   -2.7848   26.3489 H   0  0  0  0  0  0  0  0  0  0  0  0
    5.2820   -4.1754   24.8798 N   0  0  0  0  0  0  0  0  0  0  0  0
    5.9960   -4.4092   23.7925 C   0  0  0  0  0  0  0  0  0  0  0  0
    5.9046   -5.5950   23.1594 O   0  0  0  0  0  0  0  0  0  0  0  0
    5.0185   -6.6062   23.6370 C   0  0  0  0  0  0  0  0  0  0  0  0
    5.2763   -6.9265   24.6546 H   0  0  0  0  0  0  0  0  0  0  0  0
    3.9756   -6.2650   23.6325 H   0  0  0  0  0  0  0  0  0  0  0  0
    5.1555   -7.4272   22.9307 H   0  0  0  0  0  0  0  0  0  0  0  0
    6.8931   -3.4904   23.2163 C   0  0  0  0  0  0  0  0  0  0  0  0
    7.4518   -3.8089   22.3485 H   0  0  0  0  0  0  0  0  0  0  0  0
    9.4963   -1.6183   23.1117 C   0  0  0  0  0  0  0  0  0  0  0  0
    9.7868   -2.6291   23.3996 H   0  0  0  0  0  0  0  0  0  0  0  0
   10.0449   -1.2320   22.2529 H   0  0  0  0  0  0  0  0  0  0  0  0
    9.0903   -0.6682   24.2058 C   0  0  0  0  0  0  0  0  0  0  0  0
    9.0973   -1.0147   25.2413 H   0  0  0  0  0  0  0  0  0  0  0  0
    9.3208    0.3923   24.1047 H   0  0  0  0  0  0  0  0  0  0  0  0
    5.4522    0.6411   20.1573 C   0  0  0  0  0  0  0  0  0  0  0  0
    5.0422    0.6363   21.1653 H   0  0  0  0  0  0  0  0  0  0  0  0
    4.8117    1.2969   19.1002 C   0  0  0  0  0  0  0  0  0  0  0  0
    3.8797    1.8334   19.2535 H   0  0  0  0  0  0  0  0  0  0  0  0
  1  2  1  0
  2  3  2  0
  3  4  1  0
  4  5  1  0
  4  6  2  0
  6  7  1  0
  7  8  1  0
  7  9  1  0
  9 10  2  0
  9 11  1  0
 11 12  1  0
 12 13  2  0
 13 14  1  0
 13 15  1  0
 15 16  1  0
 15 17  2  0
 17 18  1  0
 18 19  1  0
 19 20  1  0
 20 21  1  0
 20 22  1  0
 20 23  1  0
 18 24  2  0
 24 25  1  0
 11 26  1  0
 26 27  1  0
 26 28  1  0
 26 29  1  0
 29 30  1  0
 29 31  1  0
  6 32  1  0
 32 33  1  0
 32 34  2  0
 34 35  1  0
 34  2  1  0
 29 11  1  0
 24 12  1  0
M  END
>  <cnnaffinity>  (1) 
-5.16355

>  <filename>  (1) 
COc1cc(C2(C(=O)Nc3cccnc3)CC2)ccn1

$$$$
