
     RDKit          3D

 36 39  0  0  0  0  0  0  0  0999 V2000
    5.0018    1.8087   16.9470 H   0  0  0  0  0  0  0  0  0  0  0  0
    5.4497    1.2908   17.7962 C   0  0  0  0  0  0  0  0  0  0  0  0
    6.6044    0.6517   17.5622 N   0  0  0  0  0  0  0  0  0  0  0  0
    7.1798    0.0227   18.5892 C   0  0  0  0  0  0  0  0  0  0  0  0
    8.1183   -0.4880   18.3955 H   0  0  0  0  0  0  0  0  0  0  0  0
    6.6420   -0.0072   19.8868 C   0  0  0  0  0  0  0  0  0  0  0  0
    7.3873   -0.7019   20.9415 C   0  0  0  0  0  0  0  0  0  0  0  0
    8.5544   -1.2564   20.7662 N   0  0  0  0  0  0  0  0  0  0  0  0
    9.0238   -1.8481   21.8999 N   0  0  0  0  0  0  0  0  0  0  0  0
    8.2017   -1.7617   22.9044 C   0  0  0  0  0  0  0  0  0  0  0  0
    8.4359   -2.3811   24.2475 C   0  0  0  0  0  0  0  0  0  0  0  0
    7.5401   -3.5714   24.6091 C   0  0  0  0  0  0  0  0  0  0  0  0
    7.8127   -3.9253   25.6108 H   0  0  0  0  0  0  0  0  0  0  0  0
    6.5005   -3.2313   24.6598 H   0  0  0  0  0  0  0  0  0  0  0  0
    7.6349   -4.6974   23.6990 N   0  0  0  0  0  0  0  0  0  0  0  0
    6.9487   -4.7386   22.4821 N   0  0  0  0  0  0  0  0  0  0  0  0
    7.5436   -5.6961   21.8651 C   0  0  0  0  0  0  0  0  0  0  0  0
    7.3172   -6.1823   20.6628 O   0  0  0  0  0  0  0  0  0  0  0  0
    6.2115   -5.6123   19.9364 C   0  0  0  0  0  0  0  0  0  0  0  0
    6.3962   -4.5535   19.7262 H   0  0  0  0  0  0  0  0  0  0  0  0
    5.2785   -5.7357   20.4947 H   0  0  0  0  0  0  0  0  0  0  0  0
    6.1558   -6.1644   18.9980 H   0  0  0  0  0  0  0  0  0  0  0  0
    8.5535   -6.2896   22.5199 O   0  0  0  0  0  0  0  0  0  0  0  0
    8.6258   -5.6398   23.7401 C   0  0  0  0  0  0  0  0  0  0  0  0
    9.4035   -5.9087   24.6151 O   0  0  0  0  0  0  0  0  0  0  0  0
    9.8356   -2.3359   24.7848 C   0  0  0  0  0  0  0  0  0  0  0  0
   10.5648   -1.8187   24.1635 H   0  0  0  0  0  0  0  0  0  0  0  0
   10.1932   -3.2219   25.3055 H   0  0  0  0  0  0  0  0  0  0  0  0
    8.7819   -1.4778   25.4153 C   0  0  0  0  0  0  0  0  0  0  0  0
    8.8242   -0.4001   25.2759 H   0  0  0  0  0  0  0  0  0  0  0  0
    8.3802   -1.7659   26.3859 H   0  0  0  0  0  0  0  0  0  0  0  0
    6.7879   -0.8271   22.5617 S   0  0  0  0  0  0  0  0  0  0  0  0
    5.4317    0.6595   20.1238 C   0  0  0  0  0  0  0  0  0  0  0  0
    4.9818    0.6756   21.1190 H   0  0  0  0  0  0  0  0  0  0  0  0
    4.8270    1.3140   19.0501 C   0  0  0  0  0  0  0  0  0  0  0  0
    3.8941    1.8457   19.1767 H   0  0  0  0  0  0  0  0  0  0  0  0
  1  2  1  0
  2  3  2  0
  3  4  1  0
  4  5  1  0
  4  6  2  0
  6  7  1  0
  7  8  2  0
  8  9  1  0
  9 10  2  0
 10 11  1  0
 11 12  1  0
 12 13  1  0
 12 14  1  0
 12 15  1  0
 15 16  1  0
 16 17  2  0
 17 18  1  0
 18 19  1  0
 19 20  1  0
 19 21  1  0
 19 22  1  0
 17 23  1  0
 23 24  1  0
 24 25  2  0
 11 26  1  0
 26 27  1  0
 26 28  1  0
 26 29  1  0
 29 30  1  0
 29 31  1  0
 10 32  1  0
  6 33  1  0
 33 34  1  0
 33 35  2  0
 35 36  1  0
 35  2  1  0
 32  7  1  0
 29 11  1  0
 24 15  1  0
M  END
>  <cnnaffinity>  (1) 
-5.80261

>  <filename>  (1) 
COc1nn(CC2(c3nnc(-c4cccnc4)s3)CC2)c(=O)o1

$$$$
