
     RDKit          3D

 32 34  0  0  0  0  0  0  0  0999 V2000
    4.9212    1.7886   17.0082 H   0  0  0  0  0  0  0  0  0  0  0  0
    5.3981    1.2867   17.8482 C   0  0  0  0  0  0  0  0  0  0  0  0
    6.5550    0.6632   17.5738 N   0  0  0  0  0  0  0  0  0  0  0  0
    7.1858    0.0554   18.5840 C   0  0  0  0  0  0  0  0  0  0  0  0
    8.1354   -0.4210   18.3534 H   0  0  0  0  0  0  0  0  0  0  0  0
    6.6923    0.0088   19.9131 C   0  0  0  0  0  0  0  0  0  0  0  0
    7.4061   -0.6564   20.9834 N   0  0  0  0  0  0  0  0  0  0  0  0
    8.7866   -0.6523   21.1489 C   0  0  0  0  0  0  0  0  0  0  0  0
    9.5727   -0.0681   20.4470 O   0  0  0  0  0  0  0  0  0  0  0  0
    9.0572   -1.5615   22.3734 C   0  0  0  0  0  0  0  0  0  0  0  0
   10.1093   -1.8600   22.8731 O   0  0  0  0  0  0  0  0  0  0  0  0
    7.7995   -1.9961   22.7883 N   0  0  0  0  0  0  0  0  0  0  0  0
    7.5636   -2.9651   23.8541 C   0  0  0  0  0  0  0  0  0  0  0  0
    6.5557   -2.8468   24.8864 C   0  0  0  0  0  0  0  0  0  0  0  0
    5.8216   -1.7345   24.8735 O   0  0  0  0  0  0  0  0  0  0  0  0
    4.7646   -1.5201   25.8051 C   0  0  0  0  0  0  0  0  0  0  0  0
    3.9951   -2.3011   25.7441 H   0  0  0  0  0  0  0  0  0  0  0  0
    4.3567   -0.5605   25.4888 H   0  0  0  0  0  0  0  0  0  0  0  0
    5.1363   -1.4630   26.8366 H   0  0  0  0  0  0  0  0  0  0  0  0
    6.3532   -3.7513   25.8352 N   0  0  0  0  0  0  0  0  0  0  0  0
    7.1409   -4.8378   25.8546 C   0  0  0  0  0  0  0  0  0  0  0  0
    6.9557   -5.5607   26.6499 H   0  0  0  0  0  0  0  0  0  0  0  0
    8.1487   -5.0477   24.9284 C   0  0  0  0  0  0  0  0  0  0  0  0
    8.7717   -5.9291   25.0008 H   0  0  0  0  0  0  0  0  0  0  0  0
    8.3678   -4.0950   23.9191 C   0  0  0  0  0  0  0  0  0  0  0  0
    9.1741   -4.2154   23.1955 H   0  0  0  0  0  0  0  0  0  0  0  0
    6.8334   -1.5915   21.8559 C   0  0  0  0  0  0  0  0  0  0  0  0
    5.7325   -2.0470   21.7666 O   0  0  0  0  0  0  0  0  0  0  0  0
    5.4678    0.6303   20.1726 C   0  0  0  0  0  0  0  0  0  0  0  0
    5.0446    0.5855   21.1736 H   0  0  0  0  0  0  0  0  0  0  0  0
    4.8227    1.2977   19.1208 C   0  0  0  0  0  0  0  0  0  0  0  0
    3.8914    1.8283   19.2719 H   0  0  0  0  0  0  0  0  0  0  0  0
  1  2  1  0
  2  3  2  0
  3  4  1  0
  4  5  1  0
  4  6  2  0
  6  7  1  0
  7  8  1  0
  8  9  2  0
  8 10  1  0
 10 11  2  0
 10 12  1  0
 12 13  1  0
 13 14  2  0
 14 15  1  0
 15 16  1  0
 16 17  1  0
 16 18  1  0
 16 19  1  0
 14 20  1  0
 20 21  2  0
 21 22  1  0
 21 23  1  0
 23 24  1  0
 23 25  2  0
 25 26  1  0
 12 27  1  0
 27 28  2  0
  6 29  1  0
 29 30  1  0
 29 31  2  0
 31 32  1  0
 31  2  1  0
 27  7  1  0
 25 13  1  0
M  END
>  <cnnaffinity>  (1) 
-5.00747

>  <filename>  (1) 
COc1ncccc1N1C(=O)C(=O)N(c2cccnc2)C1=O

$$$$
