
     RDKit          3D

 32 34  0  0  0  0  0  0  0  0999 V2000
    4.9208    1.8054   16.9814 H   0  0  0  0  0  0  0  0  0  0  0  0
    5.3811    1.2996   17.8245 C   0  0  0  0  0  0  0  0  0  0  0  0
    6.5386    0.6708   17.5607 N   0  0  0  0  0  0  0  0  0  0  0  0
    7.1483    0.0531   18.5764 C   0  0  0  0  0  0  0  0  0  0  0  0
    8.1121   -0.4124   18.3816 H   0  0  0  0  0  0  0  0  0  0  0  0
    6.6293   -0.0028   19.8851 C   0  0  0  0  0  0  0  0  0  0  0  0
    7.3653   -0.6731   20.8919 N   0  0  0  0  0  0  0  0  0  0  0  0
    8.7715   -0.6383   21.1287 C   0  0  0  0  0  0  0  0  0  0  0  0
    9.5840   -0.0315   20.4492 O   0  0  0  0  0  0  0  0  0  0  0  0
    8.9393   -1.4592   22.3046 C   0  0  0  0  0  0  0  0  0  0  0  0
    9.9116   -1.6708   22.7130 H   0  0  0  0  0  0  0  0  0  0  0  0
    7.7237   -1.9097   22.7162 C   0  0  0  0  0  0  0  0  0  0  0  0
    7.3781   -2.7855   23.8656 C   0  0  0  0  0  0  0  0  0  0  0  0
    6.1647   -3.5103   23.9755 C   0  0  0  0  0  0  0  0  0  0  0  0
    5.4090   -3.4521   23.2066 H   0  0  0  0  0  0  0  0  0  0  0  0
    5.9455   -4.3147   25.0829 C   0  0  0  0  0  0  0  0  0  0  0  0
    5.0165   -4.8805   25.1889 H   0  0  0  0  0  0  0  0  0  0  0  0
    6.8340   -4.4667   26.0807 N   0  0  0  0  0  0  0  0  0  0  0  0
    7.9642   -3.7929   25.9590 C   0  0  0  0  0  0  0  0  0  0  0  0
    8.9339   -3.8952   26.8752 O   0  0  0  0  0  0  0  0  0  0  0  0
    8.7670   -4.7641   27.9794 C   0  0  0  0  0  0  0  0  0  0  0  0
    8.5449   -5.7942   27.6766 H   0  0  0  0  0  0  0  0  0  0  0  0
    7.9434   -4.4183   28.6153 H   0  0  0  0  0  0  0  0  0  0  0  0
    9.7311   -4.6877   28.4853 H   0  0  0  0  0  0  0  0  0  0  0  0
    8.2886   -2.9392   24.8991 C   0  0  0  0  0  0  0  0  0  0  0  0
    9.2474   -2.4454   24.9528 H   0  0  0  0  0  0  0  0  0  0  0  0
    6.7746   -1.4345   21.8742 N   0  0  0  0  0  0  0  0  0  0  0  0
    5.7726   -1.5342   21.9385 H   0  0  0  0  0  0  0  0  0  0  0  0
    5.4158    0.6523   20.1480 C   0  0  0  0  0  0  0  0  0  0  0  0
    5.0111    0.6543   21.1591 H   0  0  0  0  0  0  0  0  0  0  0  0
    4.7876    1.3173   19.0929 C   0  0  0  0  0  0  0  0  0  0  0  0
    3.8607    1.8569   19.2442 H   0  0  0  0  0  0  0  0  0  0  0  0
  1  2  1  0
  2  3  2  0
  3  4  1  0
  4  5  1  0
  4  6  2  0
  6  7  1  0
  7  8  1  0
  8  9  2  0
  8 10  1  0
 10 11  1  0
 10 12  2  0
 12 13  1  0
 13 14  2  0
 14 15  1  0
 14 16  1  0
 16 17  1  0
 16 18  2  0
 18 19  1  0
 19 20  1  0
 20 21  1  0
 21 22  1  0
 21 23  1  0
 21 24  1  0
 19 25  2  0
 25 26  1  0
 12 27  1  0
 27 28  1  0
  6 29  1  0
 29 30  1  0
 29 31  2  0
 31 32  1  0
 31  2  1  0
 27  7  1  0
 25 13  1  0
M  END
>  <cnnaffinity>  (1) 
-5.16184

>  <filename>  (1) 
COc1cc(-c2cc(=O)n(-c3cccnc3)[nH]2)ccn1

$$$$
