
     RDKit          3D

 53 57  0  0  0  0  0  0  0  0999 V2000
    6.1167    4.3625   21.6532 C   0  0  0  0  0  0  0  0  0  0  0  0
    6.7613    4.7699   22.8370 O   0  0  0  0  0  0  0  0  0  0  0  0
    8.1751    4.6307   22.8689 C   0  0  0  0  0  0  0  0  0  0  0  0
    8.7282    5.8913   23.5466 C   0  0  0  0  0  0  0  0  0  0  0  0
    8.5618    5.8222   25.0706 C   0  0  0  0  0  0  0  0  0  0  0  0
    9.4010    4.6640   25.6633 C   0  0  0  0  0  0  0  0  0  0  0  0
    9.6785    3.5035   24.6667 C   0  0  0  0  0  0  0  0  0  0  0  0
    8.5175    3.3236   23.6624 C   0  0  0  0  0  0  0  0  0  0  0  0
    8.6024    2.1446   22.7317 C   0  0  0  0  0  0  0  0  0  0  0  0
    7.5734    1.3492   22.5023 N   0  0  0  0  0  0  0  0  0  0  0  0
    8.0340    0.4723   21.5771 C   0  0  0  0  0  0  0  0  0  0  0  0
    7.1431   -0.5711   20.9723 C   0  0  0  0  0  0  0  0  0  0  0  0
    6.4066   -0.0138   19.7627 C   0  0  0  0  0  0  0  0  0  0  0  0
    5.2613    0.7777   19.9259 C   0  0  0  0  0  0  0  0  0  0  0  0
    4.7217    1.4229   18.8096 C   0  0  0  0  0  0  0  0  0  0  0  0
    5.3522    1.2592   17.5732 C   0  0  0  0  0  0  0  0  0  0  0  0
    6.4367    0.4910   17.3879 N   0  0  0  0  0  0  0  0  0  0  0  0
    6.9364   -0.1260   18.4658 C   0  0  0  0  0  0  0  0  0  0  0  0
    7.8242   -0.7384   18.2971 H   0  0  0  0  0  0  0  0  0  0  0  0
    4.9720    1.7683   16.6905 H   0  0  0  0  0  0  0  0  0  0  0  0
    3.8442    2.0577   18.8849 H   0  0  0  0  0  0  0  0  0  0  0  0
    4.8144    0.9034   20.9161 H   0  0  0  0  0  0  0  0  0  0  0  0
    7.7550   -1.4369   20.6991 H   0  0  0  0  0  0  0  0  0  0  0  0
    6.4387   -0.8803   21.7512 H   0  0  0  0  0  0  0  0  0  0  0  0
    9.2807    0.6589   21.2147 N   0  0  0  0  0  0  0  0  0  0  0  0
    9.6519    1.7500   21.9401 N   0  0  0  0  0  0  0  0  0  0  0  0
   11.0357    2.1054   22.0171 C   0  0  0  0  0  0  0  0  0  0  0  0
   11.6811    3.0199   21.1885 C   0  0  0  0  0  0  0  0  0  0  0  0
   12.9111    3.5962   21.5843 C   0  0  0  0  0  0  0  0  0  0  0  0
   13.5763    3.1576   22.7289 C   0  0  0  0  0  0  0  0  0  0  0  0
   13.0364    2.0603   23.4282 C   0  0  0  0  0  0  0  0  0  0  0  0
   11.7894    1.5463   23.0547 C   0  0  0  0  0  0  0  0  0  0  0  0
   11.5595    0.4861   23.8998 N   0  0  0  0  0  0  0  0  0  0  0  0
   12.6449    0.3996   24.7193 C   0  0  0  0  0  0  0  0  0  0  0  0
   13.5403    1.3067   24.4714 N   0  0  0  0  0  0  0  0  0  0  0  0
   12.7062   -0.3312   25.5160 H   0  0  0  0  0  0  0  0  0  0  0  0
   10.8419   -0.2024   23.7716 H   0  0  0  0  0  0  0  0  0  0  0  0
   14.5079    3.6090   23.0493 H   0  0  0  0  0  0  0  0  0  0  0  0
   13.3766    4.3426   20.9392 H   0  0  0  0  0  0  0  0  0  0  0  0
   11.2768    3.2282   20.2057 H   0  0  0  0  0  0  0  0  0  0  0  0
    7.6221    3.1036   24.2523 H   0  0  0  0  0  0  0  0  0  0  0  0
   10.6057    3.7115   24.1162 H   0  0  0  0  0  0  0  0  0  0  0  0
    9.8343    2.5757   25.2270 H   0  0  0  0  0  0  0  0  0  0  0  0
   10.3647    5.0721   25.9876 H   0  0  0  0  0  0  0  0  0  0  0  0
    8.9067    4.2849   26.5672 H   0  0  0  0  0  0  0  0  0  0  0  0
    8.8478    6.7764   25.5283 H   0  0  0  0  0  0  0  0  0  0  0  0
    7.4954    5.6750   25.2931 H   0  0  0  0  0  0  0  0  0  0  0  0
    9.7906    6.0057   23.2879 H   0  0  0  0  0  0  0  0  0  0  0  0
    8.2082    6.7565   23.1244 H   0  0  0  0  0  0  0  0  0  0  0  0
    8.5810    4.5846   21.8432 H   0  0  0  0  0  0  0  0  0  0  0  0
    6.4244    4.9821   20.7982 H   0  0  0  0  0  0  0  0  0  0  0  0
    5.0478    4.5118   21.8229 H   0  0  0  0  0  0  0  0  0  0  0  0
    6.3016    3.3048   21.4226 H   0  0  0  0  0  0  0  0  0  0  0  0
  1  2  1  0
  2  3  1  0
  3  4  1  0
  4  5  1  0
  5  6  1  0
  6  7  1  0
  7  8  1  0
  8  9  1  0
  9 10  2  0
 10 11  1  0
 11 12  1  0
 12 13  1  0
 13 14  2  0
 14 15  1  0
 15 16  2  0
 16 17  1  0
 17 18  2  0
 18 19  1  0
 16 20  1  0
 15 21  1  0
 14 22  1  0
 12 23  1  0
 12 24  1  0
 11 25  2  0
 25 26  1  0
 26 27  1  0
 27 28  2  0
 28 29  1  0
 29 30  2  0
 30 31  1  0
 31 32  2  0
 32 33  1  0
 33 34  1  0
 34 35  2  0
 34 36  1  0
 33 37  1  0
 30 38  1  0
 29 39  1  0
 28 40  1  0
  8 41  1  0
  7 42  1  0
  7 43  1  0
  6 44  1  0
  6 45  1  0
  5 46  1  0
  5 47  1  0
  4 48  1  0
  4 49  1  0
  3 50  1  0
  1 51  1  0
  1 52  1  0
  1 53  1  0
  8  3  1  0
 26  9  1  0
 32 27  1  0
 18 13  1  0
 35 31  1  0
M  END
>  <cnnaffinity>  (1) 
-6.19071

>  <filename>  (1) 
COC1CCCCC1c1nc(Cc2cccnc2)nn1-c1cccc2nc[nH]c12

$$$$
