
     RDKit          3D

 53 58  0  0  0  0  0  0  0  0999 V2000
    5.1787    0.1447   30.3294 C   0  0  0  0  0  0  0  0  0  0  0  0
    5.1641    1.2434   29.4402 O   0  0  0  0  0  0  0  0  0  0  0  0
    5.6008    1.0807   28.1611 C   0  0  0  0  0  0  0  0  0  0  0  0
    6.1087   -0.1223   27.6582 C   0  0  0  0  0  0  0  0  0  0  0  0
    6.5137   -0.2502   26.3222 C   0  0  0  0  0  0  0  0  0  0  0  0
    6.4426    0.8597   25.4834 C   0  0  0  0  0  0  0  0  0  0  0  0
    6.9521    0.7753   24.1493 N   0  0  0  0  0  0  0  0  0  0  0  0
    6.6327   -0.2368   23.2982 N   0  0  0  0  0  0  0  0  0  0  0  0
    7.3460    0.0451   22.2275 C   0  0  0  0  0  0  0  0  0  0  0  0
    7.2963   -0.7723   20.9693 C   0  0  0  0  0  0  0  0  0  0  0  0
    6.5984   -0.0641   19.8185 C   0  0  0  0  0  0  0  0  0  0  0  0
    5.3878    0.5982   20.0483 C   0  0  0  0  0  0  0  0  0  0  0  0
    4.7891    1.2956   18.9965 C   0  0  0  0  0  0  0  0  0  0  0  0
    5.4207    1.2945   17.7486 C   0  0  0  0  0  0  0  0  0  0  0  0
    6.5619    0.6373   17.4970 N   0  0  0  0  0  0  0  0  0  0  0  0
    7.1290   -0.0211   18.5169 C   0  0  0  0  0  0  0  0  0  0  0  0
    8.0615   -0.5380   18.2896 H   0  0  0  0  0  0  0  0  0  0  0  0
    4.9901    1.8427   16.9124 H   0  0  0  0  0  0  0  0  0  0  0  0
    3.8721    1.8534   19.1386 H   0  0  0  0  0  0  0  0  0  0  0  0
    4.9431    0.5751   21.0477 H   0  0  0  0  0  0  0  0  0  0  0  0
    6.7800   -1.7029   21.2192 H   0  0  0  0  0  0  0  0  0  0  0  0
    8.3248   -1.0253   20.6949 H   0  0  0  0  0  0  0  0  0  0  0  0
    8.1507    1.1327   22.3426 N   0  0  0  0  0  0  0  0  0  0  0  0
    7.8842    1.5816   23.5620 C   0  0  0  0  0  0  0  0  0  0  0  0
    8.6513    2.5768   24.3607 C   0  0  0  0  0  0  0  0  0  0  0  0
    9.7195    3.6777   24.0725 C   0  0  0  0  0  0  0  0  0  0  0  0
    9.2885    4.9187   23.3203 C   0  0  0  0  0  0  0  0  0  0  0  0
   10.6651    4.8566   23.9137 C   0  0  0  0  0  0  0  0  0  0  0  0
   11.4937    4.6799   23.2276 H   0  0  0  0  0  0  0  0  0  0  0  0
   10.9138    5.4539   24.7843 H   0  0  0  0  0  0  0  0  0  0  0  0
    9.1376    4.8375   22.2442 H   0  0  0  0  0  0  0  0  0  0  0  0
    8.5447    5.4910   23.8775 H   0  0  0  0  0  0  0  0  0  0  0  0
   10.1233    2.3366   24.6151 C   0  0  0  0  0  0  0  0  0  0  0  0
   11.2266    1.3778   24.2382 C   0  0  0  0  0  0  0  0  0  0  0  0
   10.5309    1.2344   25.5765 C   0  0  0  0  0  0  0  0  0  0  0  0
   10.9966    1.4605   26.5205 H   0  0  0  0  0  0  0  0  0  0  0  0
    9.7660    0.4553   25.6485 H   0  0  0  0  0  0  0  0  0  0  0  0
   10.9632    0.7036   23.4251 H   0  0  0  0  0  0  0  0  0  0  0  0
   12.2406    1.7765   24.2210 H   0  0  0  0  0  0  0  0  0  0  0  0
    8.1114    2.8215   25.2733 H   0  0  0  0  0  0  0  0  0  0  0  0
    5.9460    2.0840   25.9703 C   0  0  0  0  0  0  0  0  0  0  0  0
    5.5169    2.2190   27.2935 C   0  0  0  0  0  0  0  0  0  0  0  0
    5.0355    3.3767   27.8215 O   0  0  0  0  0  0  0  0  0  0  0  0
    4.9696    4.5405   27.0210 C   0  0  0  0  0  0  0  0  0  0  0  0
    4.5438    5.3089   27.6659 H   0  0  0  0  0  0  0  0  0  0  0  0
    4.3217    4.4023   26.1447 H   0  0  0  0  0  0  0  0  0  0  0  0
    5.9645    4.8637   26.6851 H   0  0  0  0  0  0  0  0  0  0  0  0
    5.9615    2.9410   25.3013 H   0  0  0  0  0  0  0  0  0  0  0  0
    6.9022   -1.1909   25.9432 H   0  0  0  0  0  0  0  0  0  0  0  0
    6.1909   -0.9772   28.3219 H   0  0  0  0  0  0  0  0  0  0  0  0
    4.5673   -0.6879   29.9563 H   0  0  0  0  0  0  0  0  0  0  0  0
    4.7537    0.5131   31.2633 H   0  0  0  0  0  0  0  0  0  0  0  0
    6.1990   -0.2165   30.5151 H   0  0  0  0  0  0  0  0  0  0  0  0
  1  2  1  0
  2  3  1  0
  3  4  2  0
  4  5  1  0
  5  6  2  0
  6  7  1  0
  7  8  1  0
  8  9  2  0
  9 10  1  0
 10 11  1  0
 11 12  2  0
 12 13  1  0
 13 14  2  0
 14 15  1  0
 15 16  2  0
 16 17  1  0
 14 18  1  0
 13 19  1  0
 12 20  1  0
 10 21  1  0
 10 22  1  0
  9 23  1  0
 23 24  2  0
 24 25  1  0
 25 26  1  0
 26 27  1  0
 27 28  1  0
 28 29  1  0
 28 30  1  0
 27 31  1  0
 27 32  1  0
 26 33  1  0
 33 34  1  0
 34 35  1  0
 35 36  1  0
 35 37  1  0
 34 38  1  0
 34 39  1  0
 25 40  1  0
  6 41  1  0
 41 42  2  0
 42 43  1  0
 43 44  1  0
 44 45  1  0
 44 46  1  0
 44 47  1  0
 41 48  1  0
  5 49  1  0
  4 50  1  0
  1 51  1  0
  1 52  1  0
  1 53  1  0
 42  3  1  0
 24  7  1  0
 33 25  1  0
 16 11  1  0
 28 26  1  0
 35 33  1  0
M  END
>  <cnnaffinity>  (1) 
-6.43317

>  <filename>  (1) 
COc1ccc(-n2nc(Cc3cccnc3)nc2C2C3(CC3)C23CC3)cc1OC

$$$$
