
     RDKit          3D

 38 40  0  0  0  0  0  0  0  0999 V2000
    6.0471    1.0242   22.0966 H   0  0  0  0  0  0  0  0  0  0  0  0
    6.6471    0.1691   21.7871 C   0  0  0  0  0  0  0  0  0  0  0  0
    7.2508   -0.5222   22.7622 N   0  0  0  0  0  0  0  0  0  0  0  0
    8.0348   -1.5656   22.3900 C   0  0  0  0  0  0  0  0  0  0  0  0
    8.6576   -2.2630   23.3909 N   0  0  0  0  0  0  0  0  0  0  0  0
    8.3048   -2.0262   24.7985 C   0  0  0  0  0  0  0  0  0  0  0  0
    7.4464   -1.3568   24.8399 H   0  0  0  0  0  0  0  0  0  0  0  0
    9.1399   -1.5110   25.2934 H   0  0  0  0  0  0  0  0  0  0  0  0
    8.0170   -3.3762   25.4438 C   0  0  0  0  0  0  0  0  0  0  0  0
    7.2435   -3.8612   24.8324 H   0  0  0  0  0  0  0  0  0  0  0  0
    7.6379   -3.2465   26.4652 H   0  0  0  0  0  0  0  0  0  0  0  0
    9.2838   -4.2535   25.4685 C   0  0  0  0  0  0  0  0  0  0  0  0
    8.9712   -5.2988   25.3001 H   0  0  0  0  0  0  0  0  0  0  0  0
    9.9130   -4.1009   26.7327 O   0  0  0  0  0  0  0  0  0  0  0  0
   10.2770   -5.2808   27.4093 C   0  0  0  0  0  0  0  0  0  0  0  0
   11.0780   -5.0216   28.1073 H   0  0  0  0  0  0  0  0  0  0  0  0
    9.4315   -5.7061   27.9771 H   0  0  0  0  0  0  0  0  0  0  0  0
   10.6489   -6.0549   26.7189 H   0  0  0  0  0  0  0  0  0  0  0  0
   10.2932   -3.8400   24.3725 C   0  0  0  0  0  0  0  0  0  0  0  0
   10.9670   -4.6778   24.1644 H   0  0  0  0  0  0  0  0  0  0  0  0
   10.9122   -3.0201   24.7535 H   0  0  0  0  0  0  0  0  0  0  0  0
    9.6081   -3.3515   23.0949 C   0  0  0  0  0  0  0  0  0  0  0  0
   10.3684   -2.9920   22.3887 H   0  0  0  0  0  0  0  0  0  0  0  0
    9.0960   -4.1896   22.5964 H   0  0  0  0  0  0  0  0  0  0  0  0
    8.1852   -1.8826   20.9920 C   0  0  0  0  0  0  0  0  0  0  0  0
    8.8136   -2.7179   20.6890 H   0  0  0  0  0  0  0  0  0  0  0  0
    7.6038   -1.1672   20.0283 N   0  0  0  0  0  0  0  0  0  0  0  0
    6.8010   -0.1371   20.4126 C   0  0  0  0  0  0  0  0  0  0  0  0
    6.1798    0.6409   19.3222 C   0  0  0  0  0  0  0  0  0  0  0  0
    6.8141    0.6324   18.0628 C   0  0  0  0  0  0  0  0  0  0  0  0
    7.7181    0.0454   17.9399 H   0  0  0  0  0  0  0  0  0  0  0  0
    6.3850    1.3044   16.9953 N   0  0  0  0  0  0  0  0  0  0  0  0
    5.2651    2.0272   17.1463 C   0  0  0  0  0  0  0  0  0  0  0  0
    4.9362    2.5692   16.2616 H   0  0  0  0  0  0  0  0  0  0  0  0
    4.5474    2.1018   18.3434 C   0  0  0  0  0  0  0  0  0  0  0  0
    3.6544    2.7157   18.3839 H   0  0  0  0  0  0  0  0  0  0  0  0
    5.0071    1.4036   19.4628 C   0  0  0  0  0  0  0  0  0  0  0  0
    4.4513    1.4504   20.4033 H   0  0  0  0  0  0  0  0  0  0  0  0
  1  2  1  0
  2  3  2  0
  3  4  1  0
  4  5  1  0
  5  6  1  0
  6  7  1  0
  6  8  1  0
  6  9  1  0
  9 10  1  0
  9 11  1  0
  9 12  1  0
 12 13  1  0
 12 14  1  0
 14 15  1  0
 15 16  1  0
 15 17  1  0
 15 18  1  0
 12 19  1  0
 19 20  1  0
 19 21  1  0
 19 22  1  0
 22 23  1  0
 22 24  1  0
  4 25  2  0
 25 26  1  0
 25 27  1  0
 27 28  2  0
 28 29  1  0
 29 30  2  0
 30 31  1  0
 30 32  1  0
 32 33  2  0
 33 34  1  0
 33 35  1  0
 35 36  1  0
 35 37  2  0
 37 38  1  0
 28  2  1  0
 37 29  1  0
 22  5  1  0
M  END
>  <cnnaffinity>  (1) 
-4.98958

>  <filename>  (1) 
COC1CCN(c2cnc(-c3cccnc3)cn2)CC1

$$$$
