
     RDKit          3D

 33 35  0  0  0  0  0  0  0  0999 V2000
    5.0435    1.8837   17.0204 H   0  0  0  0  0  0  0  0  0  0  0  0
    5.4696    1.2944   17.8294 C   0  0  0  0  0  0  0  0  0  0  0  0
    6.5930    0.6172   17.5423 N   0  0  0  0  0  0  0  0  0  0  0  0
    7.1592   -0.1016   18.5270 C   0  0  0  0  0  0  0  0  0  0  0  0
    8.0485   -0.6628   18.2430 H   0  0  0  0  0  0  0  0  0  0  0  0
    6.6551   -0.1694   19.8565 C   0  0  0  0  0  0  0  0  0  0  0  0
    7.2656   -0.8492   20.9258 N   0  0  0  0  0  0  0  0  0  0  0  0
    6.6477   -1.1091   21.6960 H   0  0  0  0  0  0  0  0  0  0  0  0
    8.6283   -0.7942   21.2532 C   0  0  0  0  0  0  0  0  0  0  0  0
    9.5985    0.1627   20.8378 C   0  0  0  0  0  0  0  0  0  0  0  0
    9.4414    1.0298   20.2103 H   0  0  0  0  0  0  0  0  0  0  0  0
   10.8099   -0.1240   21.3048 N   0  0  0  0  0  0  0  0  0  0  0  0
   10.6276   -1.2446   22.0150 N   0  0  0  0  0  0  0  0  0  0  0  0
   11.4275   -1.6547   22.4793 H   0  0  0  0  0  0  0  0  0  0  0  0
    9.3399   -1.6878   22.0431 C   0  0  0  0  0  0  0  0  0  0  0  0
    8.9724   -2.8859   22.8790 C   0  0  0  0  0  0  0  0  0  0  0  0
    9.8648   -3.4657   23.1479 H   0  0  0  0  0  0  0  0  0  0  0  0
    8.2871   -3.5403   22.3308 H   0  0  0  0  0  0  0  0  0  0  0  0
    8.3019   -2.5229   24.1213 N   0  0  0  0  0  0  0  0  0  0  0  0
    8.9966   -2.0781   25.2579 N   0  0  0  0  0  0  0  0  0  0  0  0
    8.0661   -1.4715   25.9102 C   0  0  0  0  0  0  0  0  0  0  0  0
    8.1057   -0.8676   27.0806 O   0  0  0  0  0  0  0  0  0  0  0  0
    9.4061   -0.5338   27.5961 C   0  0  0  0  0  0  0  0  0  0  0  0
    9.8774    0.2414   26.9802 H   0  0  0  0  0  0  0  0  0  0  0  0
   10.0472   -1.4163   27.6180 H   0  0  0  0  0  0  0  0  0  0  0  0
    9.2336   -0.1646   28.6094 H   0  0  0  0  0  0  0  0  0  0  0  0
    6.8661   -1.3857   25.3025 O   0  0  0  0  0  0  0  0  0  0  0  0
    7.0427   -2.0192   24.1033 C   0  0  0  0  0  0  0  0  0  0  0  0
    6.2238   -2.1122   23.2200 O   0  0  0  0  0  0  0  0  0  0  0  0
    5.4430    0.4895   20.1038 C   0  0  0  0  0  0  0  0  0  0  0  0
    4.9927    0.4102   21.0952 H   0  0  0  0  0  0  0  0  0  0  0  0
    4.8525    1.2467   19.0854 C   0  0  0  0  0  0  0  0  0  0  0  0
    3.9350    1.8019   19.2542 H   0  0  0  0  0  0  0  0  0  0  0  0
  1  2  1  0
  2  3  2  0
  3  4  1  0
  4  5  1  0
  4  6  2  0
  6  7  1  0
  7  8  1  0
  7  9  1  0
  9 10  1  0
 10 11  1  0
 10 12  2  0
 12 13  1  0
 13 14  1  0
 13 15  1  0
 15 16  1  0
 16 17  1  0
 16 18  1  0
 16 19  1  0
 19 20  1  0
 20 21  2  0
 21 22  1  0
 22 23  1  0
 23 24  1  0
 23 25  1  0
 23 26  1  0
 21 27  1  0
 27 28  1  0
 28 29  2  0
  6 30  1  0
 30 31  1  0
 30 32  2  0
 32 33  1  0
 32  2  1  0
 15  9  2  0
 28 19  1  0
M  END
>  <cnnaffinity>  (1) 
-5.02797

>  <filename>  (1) 
COc1nn(Cc2[nH]ncc2Nc2cccnc2)c(=O)o1

$$$$
