
     RDKit          3D

 38 40  0  0  0  0  0  0  0  0999 V2000
    8.2624   -4.3489   27.3082 C   0  0  0  0  0  0  0  0  0  0  0  0
    8.8308   -3.4937   26.3229 O   0  0  0  0  0  0  0  0  0  0  0  0
    8.0632   -2.5950   25.7013 C   0  0  0  0  0  0  0  0  0  0  0  0
    6.7702   -2.5111   25.9885 N   0  0  0  0  0  0  0  0  0  0  0  0
    6.0823   -1.6299   25.2560 C   0  0  0  0  0  0  0  0  0  0  0  0
    6.6475   -0.8748   24.2622 C   0  0  0  0  0  0  0  0  0  0  0  0
    8.0314   -1.0535   24.0898 C   0  0  0  0  0  0  0  0  0  0  0  0
    8.7102   -0.3676   23.1509 N   0  0  0  0  0  0  0  0  0  0  0  0
   10.1582   -0.1921   23.2307 C   0  0  0  0  0  0  0  0  0  0  0  0
   10.4328    0.9684   22.2763 C   0  0  0  0  0  0  0  0  0  0  0  0
    9.2604    0.9597   21.2905 C   0  0  0  0  0  0  0  0  0  0  0  0
    8.0839    0.2639   21.9931 C   0  0  0  0  0  0  0  0  0  0  0  0
    7.3562   -0.7281   21.0380 C   0  0  0  0  0  0  0  0  0  0  0  0
    6.6369   -0.0322   19.8919 C   0  0  0  0  0  0  0  0  0  0  0  0
    5.4236    0.6384   20.1255 C   0  0  0  0  0  0  0  0  0  0  0  0
    4.7937    1.3127   19.0769 C   0  0  0  0  0  0  0  0  0  0  0  0
    5.4025    1.3032   17.8188 C   0  0  0  0  0  0  0  0  0  0  0  0
    6.5581    0.6760   17.5608 N   0  0  0  0  0  0  0  0  0  0  0  0
    7.1523    0.0354   18.5795 C   0  0  0  0  0  0  0  0  0  0  0  0
    8.1015   -0.4457   18.3331 H   0  0  0  0  0  0  0  0  0  0  0  0
    4.9399    1.8230   16.9826 H   0  0  0  0  0  0  0  0  0  0  0  0
    3.8646    1.8546   19.2223 H   0  0  0  0  0  0  0  0  0  0  0  0
    4.9874    0.6498   21.1271 H   0  0  0  0  0  0  0  0  0  0  0  0
    6.6381   -1.3303   21.6053 H   0  0  0  0  0  0  0  0  0  0  0  0
    8.1027   -1.4408   20.6631 H   0  0  0  0  0  0  0  0  0  0  0  0
    7.3546    1.0063   22.3515 H   0  0  0  0  0  0  0  0  0  0  0  0
    9.5307    0.3786   20.4033 H   0  0  0  0  0  0  0  0  0  0  0  0
    8.9724    1.9616   20.9617 H   0  0  0  0  0  0  0  0  0  0  0  0
   11.4002    0.8518   21.7777 H   0  0  0  0  0  0  0  0  0  0  0  0
   10.4490    1.9070   22.8362 H   0  0  0  0  0  0  0  0  0  0  0  0
   10.4664    0.0346   24.2581 H   0  0  0  0  0  0  0  0  0  0  0  0
   10.6713   -1.1212   22.9514 H   0  0  0  0  0  0  0  0  0  0  0  0
    8.7490   -1.8741   24.8367 N   0  0  0  0  0  0  0  0  0  0  0  0
    6.0929   -0.1965   23.6420 H   0  0  0  0  0  0  0  0  0  0  0  0
    5.0203   -1.5509   25.4828 H   0  0  0  0  0  0  0  0  0  0  0  0
    7.8100   -3.7649   28.1044 H   0  0  0  0  0  0  0  0  0  0  0  0
    7.4884   -5.0014   26.8929 H   0  0  0  0  0  0  0  0  0  0  0  0
    9.0896   -4.9372   27.7081 H   0  0  0  0  0  0  0  0  0  0  0  0
  1  2  1  0
  2  3  1  0
  3  4  2  0
  4  5  1  0
  5  6  2  0
  6  7  1  0
  7  8  1  0
  8  9  1  0
  9 10  1  0
 10 11  1  0
 11 12  1  0
 12 13  1  0
 13 14  1  0
 14 15  2  0
 15 16  1  0
 16 17  2  0
 17 18  1  0
 18 19  2  0
 19 20  1  0
 17 21  1  0
 16 22  1  0
 15 23  1  0
 13 24  1  0
 13 25  1  0
 12 26  1  0
 11 27  1  0
 11 28  1  0
 10 29  1  0
 10 30  1  0
  9 31  1  0
  9 32  1  0
  7 33  2  0
  6 34  1  0
  5 35  1  0
  1 36  1  0
  1 37  1  0
  1 38  1  0
 33  3  1  0
 12  8  1  0
 19 14  1  0
M  END
>  <cnnaffinity>  (1) 
-5.00709

>  <filename>  (1) 
COc1nccc(N2CCCC2Cc2cccnc2)n1

$$$$
