
     RDKit          3D

 40 42  0  0  0  0  0  0  0  0999 V2000
    6.6452   -1.3319   21.6663 H   0  0  0  0  0  0  0  0  0  0  0  0
    7.2959   -0.7115   21.0428 C   0  0  0  0  0  0  0  0  0  0  0  0
    8.5745   -0.5111   21.4154 C   0  0  0  0  0  0  0  0  0  0  0  0
    9.3520   -1.1314   22.5140 C   0  0  0  0  0  0  0  0  0  0  0  0
    8.8634   -2.3025   23.2857 C   0  0  0  0  0  0  0  0  0  0  0  0
    8.2786   -3.3891   22.6126 C   0  0  0  0  0  0  0  0  0  0  0  0
    8.1551   -3.3394   21.5283 H   0  0  0  0  0  0  0  0  0  0  0  0
    7.8404   -4.5095   23.3024 C   0  0  0  0  0  0  0  0  0  0  0  0
    7.3969   -5.3678   22.8141 H   0  0  0  0  0  0  0  0  0  0  0  0
    7.9583   -4.5541   24.6985 C   0  0  0  0  0  0  0  0  0  0  0  0
    7.4866   -5.6934   25.2663 O   0  0  0  0  0  0  0  0  0  0  0  0
    7.5538   -5.8492   26.6683 C   0  0  0  0  0  0  0  0  0  0  0  0
    6.9881   -5.0616   27.1834 H   0  0  0  0  0  0  0  0  0  0  0  0
    7.1026   -6.8186   26.8773 H   0  0  0  0  0  0  0  0  0  0  0  0
    8.5935   -5.8326   27.0221 H   0  0  0  0  0  0  0  0  0  0  0  0
    8.5194   -3.4844   25.3997 C   0  0  0  0  0  0  0  0  0  0  0  0
    8.5865   -3.5258   26.4802 H   0  0  0  0  0  0  0  0  0  0  0  0
    8.9831   -2.3598   24.6955 C   0  0  0  0  0  0  0  0  0  0  0  0
    9.5433   -1.2952   25.3123 O   0  0  0  0  0  0  0  0  0  0  0  0
    9.4526   -1.0989   26.7091 C   0  0  0  0  0  0  0  0  0  0  0  0
    8.4112   -0.9422   27.0183 H   0  0  0  0  0  0  0  0  0  0  0  0
   10.0475   -0.2020   26.8964 H   0  0  0  0  0  0  0  0  0  0  0  0
    9.8682   -1.9458   27.2743 H   0  0  0  0  0  0  0  0  0  0  0  0
   10.5187   -0.6187   22.6753 N   0  0  0  0  0  0  0  0  0  0  0  0
   10.7099    0.4891   21.7395 C   0  0  0  0  0  0  0  0  0  0  0  0
   10.7816    1.4213   22.3128 H   0  0  0  0  0  0  0  0  0  0  0  0
   11.6643    0.3626   21.2171 H   0  0  0  0  0  0  0  0  0  0  0  0
    9.4872    0.5124   20.7888 C   0  0  0  0  0  0  0  0  0  0  0  0
    9.7191    0.1878   19.7726 H   0  0  0  0  0  0  0  0  0  0  0  0
    8.9959    1.4865   20.7234 H   0  0  0  0  0  0  0  0  0  0  0  0
    6.6203   -0.0414   19.9054 C   0  0  0  0  0  0  0  0  0  0  0  0
    7.1468    0.0315   18.5967 C   0  0  0  0  0  0  0  0  0  0  0  0
    8.0887   -0.4591   18.3559 H   0  0  0  0  0  0  0  0  0  0  0  0
    6.5592    0.6712   17.5747 N   0  0  0  0  0  0  0  0  0  0  0  0
    5.4023    1.3015   17.8263 C   0  0  0  0  0  0  0  0  0  0  0  0
    4.9486    1.8281   16.9890 H   0  0  0  0  0  0  0  0  0  0  0  0
    4.7815    1.2989   19.0806 C   0  0  0  0  0  0  0  0  0  0  0  0
    3.8563    1.8482   19.2243 H   0  0  0  0  0  0  0  0  0  0  0  0
    5.3926    0.6078   20.1260 C   0  0  0  0  0  0  0  0  0  0  0  0
    4.9562    0.6001   21.1248 H   0  0  0  0  0  0  0  0  0  0  0  0
  1  2  1  0
  2  3  2  3
  3  4  1  0
  4  5  1  0
  5  6  2  0
  6  7  1  0
  6  8  1  0
  8  9  1  0
  8 10  2  0
 10 11  1  0
 11 12  1  0
 12 13  1  0
 12 14  1  0
 12 15  1  0
 10 16  1  0
 16 17  1  0
 16 18  2  0
 18 19  1  0
 19 20  1  0
 20 21  1  0
 20 22  1  0
 20 23  1  0
  4 24  2  0
 24 25  1  0
 25 26  1  0
 25 27  1  0
 25 28  1  0
 28 29  1  0
 28 30  1  0
  2 31  1  0
 31 32  2  0
 32 33  1  0
 32 34  1  0
 34 35  2  0
 35 36  1  0
 35 37  1  0
 37 38  1  0
 37 39  2  0
 39 40  1  0
 28  3  1  0
 39 31  1  0
 18  5  1  0
M  END
>  <cnnaffinity>  (1) 
-5.43781

>  <filename>  (1) 
COc1ccc(C2=NCCC2=Cc2cccnc2)c(OC)c1

$$$$
