
     RDKit          3D

 31 32  0  0  0  0  0  0  0  0999 V2000
    4.9207    1.7938   16.9859 H   0  0  0  0  0  0  0  0  0  0  0  0
    5.3926    1.2970   17.8301 C   0  0  0  0  0  0  0  0  0  0  0  0
    6.5560    0.6740   17.5808 N   0  0  0  0  0  0  0  0  0  0  0  0
    7.1587    0.0385   18.5946 C   0  0  0  0  0  0  0  0  0  0  0  0
    8.1187   -0.4260   18.3722 H   0  0  0  0  0  0  0  0  0  0  0  0
    6.6224   -0.0171   19.8949 C   0  0  0  0  0  0  0  0  0  0  0  0
    7.4835   -0.7983   21.2582 S   0  0  0  0  0  0  0  0  0  0  0  0
    8.5629    0.5680   21.7054 C   0  0  0  0  0  0  0  0  0  0  0  0
   10.0311    0.7480   21.0674 S   0  0  0  0  0  0  0  0  0  0  0  0
    7.9576    1.5372   22.7113 C   0  0  0  0  0  0  0  0  0  0  0  0
    6.9225    1.8008   22.4490 H   0  0  0  0  0  0  0  0  0  0  0  0
    8.5445    2.4593   22.6748 H   0  0  0  0  0  0  0  0  0  0  0  0
    8.0069    0.9020   24.0837 C   0  0  0  0  0  0  0  0  0  0  0  0
    9.1828    0.9715   24.8337 C   0  0  0  0  0  0  0  0  0  0  0  0
   10.0431    1.5072   24.4355 H   0  0  0  0  0  0  0  0  0  0  0  0
    9.2568    0.3388   26.0776 C   0  0  0  0  0  0  0  0  0  0  0  0
   10.1693    0.4028   26.6653 H   0  0  0  0  0  0  0  0  0  0  0  0
    8.1630   -0.3708   26.5697 C   0  0  0  0  0  0  0  0  0  0  0  0
    8.1880   -0.8585   27.5370 H   0  0  0  0  0  0  0  0  0  0  0  0
    6.9820   -0.4655   25.8085 C   0  0  0  0  0  0  0  0  0  0  0  0
    5.9716   -1.1755   26.3787 O   0  0  0  0  0  0  0  0  0  0  0  0
    4.7442   -1.3498   25.6931 C   0  0  0  0  0  0  0  0  0  0  0  0
    4.1200   -1.9502   26.3560 H   0  0  0  0  0  0  0  0  0  0  0  0
    4.2324   -0.3972   25.4917 H   0  0  0  0  0  0  0  0  0  0  0  0
    4.8776   -1.9023   24.7553 H   0  0  0  0  0  0  0  0  0  0  0  0
    6.9136    0.1661   24.5574 C   0  0  0  0  0  0  0  0  0  0  0  0
    6.0141    0.0830   23.9553 H   0  0  0  0  0  0  0  0  0  0  0  0
    5.4140    0.6381   20.1405 C   0  0  0  0  0  0  0  0  0  0  0  0
    4.9976    0.6324   21.1470 H   0  0  0  0  0  0  0  0  0  0  0  0
    4.7900    1.3130   19.0912 C   0  0  0  0  0  0  0  0  0  0  0  0
    3.8658    1.8520   19.2484 H   0  0  0  0  0  0  0  0  0  0  0  0
  1  2  1  0
  2  3  2  0
  3  4  1  0
  4  5  1  0
  4  6  2  0
  6  7  1  0
  7  8  1  0
  8  9  2  0
  8 10  1  0
 10 11  1  0
 10 12  1  0
 10 13  1  0
 13 14  2  0
 14 15  1  0
 14 16  1  0
 16 17  1  0
 16 18  2  0
 18 19  1  0
 18 20  1  0
 20 21  1  0
 21 22  1  0
 22 23  1  0
 22 24  1  0
 22 25  1  0
 20 26  2  0
 26 27  1  0
  6 28  1  0
 28 29  1  0
 28 30  2  0
 30 31  1  0
 30  2  1  0
 26 13  1  0
M  END
>  <cnnaffinity>  (1) 
-4.64061

>  <filename>  (1) 
COc1cccc(CC(=S)Sc2cccnc2)c1

$$$$
