
     RDKit          3D

 54 57  0  0  0  0  0  0  0  0999 V2000
   14.3967    5.5713   21.7673 C   0  0  0  0  0  0  0  0  0  0  0  0
   13.0863    5.1244   22.0723 O   0  0  0  0  0  0  0  0  0  0  0  0
   12.9051    3.7943   22.3134 C   0  0  0  0  0  0  0  0  0  0  0  0
   13.9362    2.9110   22.6412 C   0  0  0  0  0  0  0  0  0  0  0  0
   13.6735    1.5490   22.8474 C   0  0  0  0  0  0  0  0  0  0  0  0
   12.3870    1.0497   22.6574 C   0  0  0  0  0  0  0  0  0  0  0  0
   11.3482    1.9469   22.3776 C   0  0  0  0  0  0  0  0  0  0  0  0
   10.0045    1.4803   22.2706 N   0  0  0  0  0  0  0  0  0  0  0  0
    9.6433    0.4544   21.4522 N   0  0  0  0  0  0  0  0  0  0  0  0
    8.3522    0.3423   21.6773 C   0  0  0  0  0  0  0  0  0  0  0  0
    7.4746   -0.6353   20.9521 C   0  0  0  0  0  0  0  0  0  0  0  0
    6.6825   -0.0092   19.8127 C   0  0  0  0  0  0  0  0  0  0  0  0
    5.4732    0.6442   20.0781 C   0  0  0  0  0  0  0  0  0  0  0  0
    4.8215    1.3078   19.0389 C   0  0  0  0  0  0  0  0  0  0  0  0
    5.4060    1.2930   17.7690 C   0  0  0  0  0  0  0  0  0  0  0  0
    6.5483    0.6472   17.4811 N   0  0  0  0  0  0  0  0  0  0  0  0
    7.1568    0.0097   18.4884 C   0  0  0  0  0  0  0  0  0  0  0  0
    8.0779   -0.5228   18.2397 H   0  0  0  0  0  0  0  0  0  0  0  0
    4.9372    1.8154   16.9405 H   0  0  0  0  0  0  0  0  0  0  0  0
    3.8880    1.8361   19.2024 H   0  0  0  0  0  0  0  0  0  0  0  0
    5.0692    0.6272   21.0932 H   0  0  0  0  0  0  0  0  0  0  0  0
    6.7858   -1.0448   21.6999 H   0  0  0  0  0  0  0  0  0  0  0  0
    8.1128   -1.4459   20.5878 H   0  0  0  0  0  0  0  0  0  0  0  0
    7.8601    1.1939   22.6089 N   0  0  0  0  0  0  0  0  0  0  0  0
    8.9117    1.9152   22.9649 C   0  0  0  0  0  0  0  0  0  0  0  0
    8.9134    2.9254   24.0847 C   0  0  0  0  0  0  0  0  0  0  0  0
    8.6669    2.2220   25.4475 C   0  0  0  0  0  0  0  0  0  0  0  0
    8.4972    3.2350   26.5797 C   0  0  0  0  0  0  0  0  0  0  0  0
    7.5737    4.2648   26.2874 O   0  0  0  0  0  0  0  0  0  0  0  0
    7.9585    4.9933   25.1359 C   0  0  0  0  0  0  0  0  0  0  0  0
    7.9241    4.1278   23.8533 C   0  0  0  0  0  0  0  0  0  0  0  0
    8.3882    4.9951   22.6683 C   0  0  0  0  0  0  0  0  0  0  0  0
    7.7171    5.8518   22.5340 H   0  0  0  0  0  0  0  0  0  0  0  0
    8.3861    4.4310   21.7285 H   0  0  0  0  0  0  0  0  0  0  0  0
    9.3966    5.4029   22.8205 H   0  0  0  0  0  0  0  0  0  0  0  0
    6.4745    3.6653   23.6200 C   0  0  0  0  0  0  0  0  0  0  0  0
    5.7907    4.5227   23.6126 H   0  0  0  0  0  0  0  0  0  0  0  0
    6.3787    3.1516   22.6629 H   0  0  0  0  0  0  0  0  0  0  0  0
    6.1352    2.9884   24.4093 H   0  0  0  0  0  0  0  0  0  0  0  0
    7.2582    5.8329   25.0537 H   0  0  0  0  0  0  0  0  0  0  0  0
    8.9716    5.4182   25.2716 H   0  0  0  0  0  0  0  0  0  0  0  0
    8.1450    2.7421   27.4897 H   0  0  0  0  0  0  0  0  0  0  0  0
    9.4661    3.7025   26.7943 H   0  0  0  0  0  0  0  0  0  0  0  0
    9.5220    1.5751   25.6866 H   0  0  0  0  0  0  0  0  0  0  0  0
    7.7862    1.5718   25.3876 H   0  0  0  0  0  0  0  0  0  0  0  0
    9.9140    3.3697   24.1559 H   0  0  0  0  0  0  0  0  0  0  0  0
   11.5954    3.3146   22.2428 C   0  0  0  0  0  0  0  0  0  0  0  0
   10.7821    4.0088   22.1144 H   0  0  0  0  0  0  0  0  0  0  0  0
   12.1769   -0.0159   22.6720 H   0  0  0  0  0  0  0  0  0  0  0  0
   14.4844    0.8721   23.1106 H   0  0  0  0  0  0  0  0  0  0  0  0
   14.9528    3.2701   22.5847 H   0  0  0  0  0  0  0  0  0  0  0  0
   15.0585    5.5105   22.6427 H   0  0  0  0  0  0  0  0  0  0  0  0
   14.8426    4.9950   20.9422 H   0  0  0  0  0  0  0  0  0  0  0  0
   14.3104    6.6137   21.4626 H   0  0  0  0  0  0  0  0  0  0  0  0
  1  2  1  0
  2  3  1  0
  3  4  2  0
  4  5  1  0
  5  6  2  0
  6  7  1  0
  7  8  1  0
  8  9  1  0
  9 10  2  0
 10 11  1  0
 11 12  1  0
 12 13  2  0
 13 14  1  0
 14 15  2  0
 15 16  1  0
 16 17  2  0
 17 18  1  0
 15 19  1  0
 14 20  1  0
 13 21  1  0
 11 22  1  0
 11 23  1  0
 10 24  1  0
 24 25  2  0
 25 26  1  0
 26 27  1  0
 27 28  1  0
 28 29  1  0
 29 30  1  0
 30 31  1  0
 31 32  1  0
 32 33  1  0
 32 34  1  0
 32 35  1  0
 31 36  1  0
 36 37  1  0
 36 38  1  0
 36 39  1  0
 30 40  1  0
 30 41  1  0
 28 42  1  0
 28 43  1  0
 27 44  1  0
 27 45  1  0
 26 46  1  0
  7 47  2  0
 47 48  1  0
  6 49  1  0
  5 50  1  0
  4 51  1  0
  1 52  1  0
  1 53  1  0
  1 54  1  0
 47  3  1  0
 25  8  1  0
 31 26  1  0
 17 12  1  0
M  END
>  <cnnaffinity>  (1) 
-6.21635

>  <filename>  (1) 
COc1cccc(-n2nc(Cc3cccnc3)nc2C2CCOCC2(C)C)c1

$$$$
