
     RDKit          3D

 38 40  0  0  0  0  0  0  0  0999 V2000
    4.9137    1.7916   16.9844 H   0  0  0  0  0  0  0  0  0  0  0  0
    5.3924    1.3005   17.8272 C   0  0  0  0  0  0  0  0  0  0  0  0
    6.5536    0.6812   17.5605 N   0  0  0  0  0  0  0  0  0  0  0  0
    7.1655    0.0734   18.5838 C   0  0  0  0  0  0  0  0  0  0  0  0
    8.1068   -0.4237   18.3572 H   0  0  0  0  0  0  0  0  0  0  0  0
    6.6621    0.0172   19.8963 C   0  0  0  0  0  0  0  0  0  0  0  0
    7.3799   -0.7084   20.9772 C   0  0  0  0  0  0  0  0  0  0  0  0
    8.7702   -0.5905   21.1634 C   0  0  0  0  0  0  0  0  0  0  0  0
    9.3422    0.0612   20.5026 H   0  0  0  0  0  0  0  0  0  0  0  0
    9.4633   -1.2182   22.1176 N   0  0  0  0  0  0  0  0  0  0  0  0
    8.7618   -1.9960   22.9543 C   0  0  0  0  0  0  0  0  0  0  0  0
    9.3359   -2.5015   23.7235 H   0  0  0  0  0  0  0  0  0  0  0  0
    7.3691   -2.1989   22.8869 C   0  0  0  0  0  0  0  0  0  0  0  0
    6.6376   -3.0869   23.8411 C   0  0  0  0  0  0  0  0  0  0  0  0
    5.7682   -4.0605   23.3438 C   0  0  0  0  0  0  0  0  0  0  0  0
    5.6586   -4.1367   22.2675 H   0  0  0  0  0  0  0  0  0  0  0  0
    5.0691   -4.9428   24.1669 C   0  0  0  0  0  0  0  0  0  0  0  0
    4.4069   -5.6881   23.7405 H   0  0  0  0  0  0  0  0  0  0  0  0
    5.2298   -4.8344   25.5533 C   0  0  0  0  0  0  0  0  0  0  0  0
    4.6032   -5.6282   26.4588 O   0  0  0  0  0  0  0  0  0  0  0  0
    3.7138   -6.6522   26.0405 C   0  0  0  0  0  0  0  0  0  0  0  0
    2.8427   -6.2637   25.4965 H   0  0  0  0  0  0  0  0  0  0  0  0
    4.2027   -7.4169   25.4229 H   0  0  0  0  0  0  0  0  0  0  0  0
    3.3651   -7.1224   26.9593 H   0  0  0  0  0  0  0  0  0  0  0  0
    6.0799   -3.8549   26.0978 C   0  0  0  0  0  0  0  0  0  0  0  0
    6.1885   -3.7957   27.1748 H   0  0  0  0  0  0  0  0  0  0  0  0
    6.7739   -2.9850   25.2548 C   0  0  0  0  0  0  0  0  0  0  0  0
    7.5999   -2.0030   25.6983 O   0  0  0  0  0  0  0  0  0  0  0  0
    7.8388   -1.7775   27.0734 C   0  0  0  0  0  0  0  0  0  0  0  0
    6.9280   -1.5035   27.6203 H   0  0  0  0  0  0  0  0  0  0  0  0
    8.5296   -0.9322   27.1135 H   0  0  0  0  0  0  0  0  0  0  0  0
    8.3173   -2.6382   27.5551 H   0  0  0  0  0  0  0  0  0  0  0  0
    6.6848   -1.5410   21.8595 C   0  0  0  0  0  0  0  0  0  0  0  0
    5.6071   -1.6687   21.7381 H   0  0  0  0  0  0  0  0  0  0  0  0
    5.4363    0.6534   20.1452 C   0  0  0  0  0  0  0  0  0  0  0  0
    5.0191    0.6370   21.1565 H   0  0  0  0  0  0  0  0  0  0  0  0
    4.8022    1.3190   19.0956 C   0  0  0  0  0  0  0  0  0  0  0  0
    3.8714    1.8463   19.2499 H   0  0  0  0  0  0  0  0  0  0  0  0
  1  2  1  0
  2  3  2  0
  3  4  1  0
  4  5  1  0
  4  6  2  0
  6  7  1  0
  7  8  2  0
  8  9  1  0
  8 10  1  0
 10 11  2  0
 11 12  1  0
 11 13  1  0
 13 14  1  0
 14 15  2  0
 15 16  1  0
 15 17  1  0
 17 18  1  0
 17 19  2  0
 19 20  1  0
 20 21  1  0
 21 22  1  0
 21 23  1  0
 21 24  1  0
 19 25  1  0
 25 26  1  0
 25 27  2  0
 27 28  1  0
 28 29  1  0
 29 30  1  0
 29 31  1  0
 29 32  1  0
 13 33  2  0
 33 34  1  0
  6 35  1  0
 35 36  1  0
 35 37  2  0
 37 38  1  0
 37  2  1  0
 33  7  1  0
 27 14  1  0
M  END
>  <cnnaffinity>  (1) 
-5.32161

>  <filename>  (1) 
COc1ccc(-c2cncc(-c3cccnc3)c2)c(OC)c1

$$$$
