
     RDKit          3D

 32 34  0  0  0  0  0  0  0  0999 V2000
    4.9361    1.8076   16.9428 H   0  0  0  0  0  0  0  0  0  0  0  0
    5.4083    1.3118   17.7895 C   0  0  0  0  0  0  0  0  0  0  0  0
    6.5612    0.6706   17.5398 N   0  0  0  0  0  0  0  0  0  0  0  0
    7.1787    0.0565   18.5592 C   0  0  0  0  0  0  0  0  0  0  0  0
    8.1158   -0.4443   18.3211 H   0  0  0  0  0  0  0  0  0  0  0  0
    6.6634    0.0361   19.8740 C   0  0  0  0  0  0  0  0  0  0  0  0
    7.3057   -0.6449   20.9585 N   0  0  0  0  0  0  0  0  0  0  0  0
    6.6434   -1.5411   21.7963 C   0  0  0  0  0  0  0  0  0  0  0  0
    5.5998   -1.7687   21.6402 H   0  0  0  0  0  0  0  0  0  0  0  0
    7.5209   -1.9807   22.7227 C   0  0  0  0  0  0  0  0  0  0  0  0
    7.3351   -2.8586   23.9194 C   0  0  0  0  0  0  0  0  0  0  0  0
    8.0374   -2.5715   24.7066 H   0  0  0  0  0  0  0  0  0  0  0  0
    6.3101   -2.7562   24.2896 H   0  0  0  0  0  0  0  0  0  0  0  0
    7.5286   -4.2618   23.6367 N   0  0  0  0  0  0  0  0  0  0  0  0
    6.5379   -4.9235   22.9225 N   0  0  0  0  0  0  0  0  0  0  0  0
    7.1802   -5.9042   22.3988 C   0  0  0  0  0  0  0  0  0  0  0  0
    6.7072   -6.8117   21.5661 O   0  0  0  0  0  0  0  0  0  0  0  0
    5.3152   -6.6431   21.2039 C   0  0  0  0  0  0  0  0  0  0  0  0
    5.1065   -7.3551   20.4061 H   0  0  0  0  0  0  0  0  0  0  0  0
    5.1304   -5.6258   20.8446 H   0  0  0  0  0  0  0  0  0  0  0  0
    4.6677   -6.8510   22.0612 H   0  0  0  0  0  0  0  0  0  0  0  0
    8.4922   -5.9713   22.6809 O   0  0  0  0  0  0  0  0  0  0  0  0
    8.7481   -4.8521   23.4705 C   0  0  0  0  0  0  0  0  0  0  0  0
    9.8157   -4.5141   23.8923 O   0  0  0  0  0  0  0  0  0  0  0  0
    8.7201   -1.3575   22.4269 N   0  0  0  0  0  0  0  0  0  0  0  0
    9.6331   -1.5657   22.8056 H   0  0  0  0  0  0  0  0  0  0  0  0
    8.6092   -0.4785   21.3917 C   0  0  0  0  0  0  0  0  0  0  0  0
    9.7840    0.5704   20.8639 S   0  0  0  0  0  0  0  0  0  0  0  0
    5.4531    0.6955   20.1156 C   0  0  0  0  0  0  0  0  0  0  0  0
    5.0409    0.6983   21.1268 H   0  0  0  0  0  0  0  0  0  0  0  0
    4.8163    1.3479   19.0567 C   0  0  0  0  0  0  0  0  0  0  0  0
    3.8795    1.8757   19.2034 H   0  0  0  0  0  0  0  0  0  0  0  0
  1  2  1  0
  2  3  2  0
  3  4  1  0
  4  5  1  0
  4  6  2  0
  6  7  1  0
  7  8  1  0
  8  9  1  0
  8 10  2  0
 10 11  1  0
 11 12  1  0
 11 13  1  0
 11 14  1  0
 14 15  1  0
 15 16  2  0
 16 17  1  0
 17 18  1  0
 18 19  1  0
 18 20  1  0
 18 21  1  0
 16 22  1  0
 22 23  1  0
 23 24  2  0
 10 25  1  0
 25 26  1  0
 25 27  1  0
 27 28  2  0
  6 29  1  0
 29 30  1  0
 29 31  2  0
 31 32  1  0
 31  2  1  0
 27  7  1  0
 23 14  1  0
M  END
>  <cnnaffinity>  (1) 
-5.27208

>  <filename>  (1) 
COc1nn(Cc2cn(-c3cccnc3)c(=S)[nH]2)c(=O)o1

$$$$
