
     RDKit          3D

 32 34  0  0  0  0  0  0  0  0999 V2000
    4.9198    1.7973   16.9817 H   0  0  0  0  0  0  0  0  0  0  0  0
    5.3865    1.2989   17.8297 C   0  0  0  0  0  0  0  0  0  0  0  0
    6.5461    0.6727   17.5691 N   0  0  0  0  0  0  0  0  0  0  0  0
    7.1527    0.0530   18.5862 C   0  0  0  0  0  0  0  0  0  0  0  0
    8.1143   -0.4127   18.3879 H   0  0  0  0  0  0  0  0  0  0  0  0
    6.6294   -0.0049   19.8913 C   0  0  0  0  0  0  0  0  0  0  0  0
    7.3511   -0.6828   20.8999 N   0  0  0  0  0  0  0  0  0  0  0  0
    8.7545   -0.6622   21.1393 C   0  0  0  0  0  0  0  0  0  0  0  0
    9.5807   -0.0606   20.4681 O   0  0  0  0  0  0  0  0  0  0  0  0
    8.9080   -1.4925   22.3112 C   0  0  0  0  0  0  0  0  0  0  0  0
    9.8852   -1.6729   22.7172 H   0  0  0  0  0  0  0  0  0  0  0  0
    7.6798   -1.9346   22.7292 C   0  0  0  0  0  0  0  0  0  0  0  0
    7.2997   -2.8155   23.8852 C   0  0  0  0  0  0  0  0  0  0  0  0
    5.9909   -3.1007   24.0810 N   0  0  0  0  0  0  0  0  0  0  0  0
    5.6959   -3.8694   25.1223 C   0  0  0  0  0  0  0  0  0  0  0  0
    4.4150   -4.1848   25.3879 O   0  0  0  0  0  0  0  0  0  0  0  0
    3.3736   -3.6839   24.5574 C   0  0  0  0  0  0  0  0  0  0  0  0
    2.4628   -4.0902   24.9957 H   0  0  0  0  0  0  0  0  0  0  0  0
    3.3328   -2.5874   24.5590 H   0  0  0  0  0  0  0  0  0  0  0  0
    3.4778   -4.0275   23.5211 H   0  0  0  0  0  0  0  0  0  0  0  0
    6.6452   -4.4156   26.0090 C   0  0  0  0  0  0  0  0  0  0  0  0
    6.2812   -5.0377   26.8161 H   0  0  0  0  0  0  0  0  0  0  0  0
    7.9837   -4.1337   25.7988 C   0  0  0  0  0  0  0  0  0  0  0  0
    8.7690   -4.5299   26.4490 H   0  0  0  0  0  0  0  0  0  0  0  0
    8.3084   -3.3121   24.7091 C   0  0  0  0  0  0  0  0  0  0  0  0
    9.3329   -3.0533   24.4909 H   0  0  0  0  0  0  0  0  0  0  0  0
    6.7400   -1.4158   21.8867 N   0  0  0  0  0  0  0  0  0  0  0  0
    5.7435   -1.5710   21.9270 H   0  0  0  0  0  0  0  0  0  0  0  0
    5.4192    0.6478   20.1558 C   0  0  0  0  0  0  0  0  0  0  0  0
    5.0144    0.6426   21.1677 H   0  0  0  0  0  0  0  0  0  0  0  0
    4.7961    1.3160   19.0994 C   0  0  0  0  0  0  0  0  0  0  0  0
    3.8673    1.8504   19.2500 H   0  0  0  0  0  0  0  0  0  0  0  0
  1  2  1  0
  2  3  2  0
  3  4  1  0
  4  5  1  0
  4  6  2  0
  6  7  1  0
  7  8  1  0
  8  9  2  0
  8 10  1  0
 10 11  1  0
 10 12  2  0
 12 13  1  0
 13 14  2  0
 14 15  1  0
 15 16  1  0
 16 17  1  0
 17 18  1  0
 17 19  1  0
 17 20  1  0
 15 21  2  0
 21 22  1  0
 21 23  1  0
 23 24  1  0
 23 25  2  0
 25 26  1  0
 12 27  1  0
 27 28  1  0
  6 29  1  0
 29 30  1  0
 29 31  2  0
 31 32  1  0
 31  2  1  0
 27  7  1  0
 25 13  1  0
M  END
>  <cnnaffinity>  (1) 
-5.09139

>  <filename>  (1) 
COc1cccc(-c2cc(=O)n(-c3cccnc3)[nH]2)n1

$$$$
