
     RDKit          3D

 37 39  0  0  0  0  0  0  0  0999 V2000
    7.7810   -5.4654   24.0305 C   0  0  0  0  0  0  0  0  0  0  0  0
    7.8588   -4.1004   23.6539 O   0  0  0  0  0  0  0  0  0  0  0  0
    7.8082   -3.1665   24.6441 C   0  0  0  0  0  0  0  0  0  0  0  0
    7.8616   -3.4615   26.0123 C   0  0  0  0  0  0  0  0  0  0  0  0
    7.9333   -2.4297   26.9507 C   0  0  0  0  0  0  0  0  0  0  0  0
    7.8589   -1.1064   26.5404 C   0  0  0  0  0  0  0  0  0  0  0  0
    7.8942   -0.1149   27.4448 F   0  0  0  0  0  0  0  0  0  0  0  0
    7.7607   -0.7905   25.1921 C   0  0  0  0  0  0  0  0  0  0  0  0
    7.7533   -1.8169   24.2390 C   0  0  0  0  0  0  0  0  0  0  0  0
    7.7358   -1.4846   22.8080 C   0  0  0  0  0  0  0  0  0  0  0  0
    6.8318   -0.7778   22.1755 N   0  0  0  0  0  0  0  0  0  0  0  0
    7.3207   -0.7144   20.9155 C   0  0  0  0  0  0  0  0  0  0  0  0
    6.6329    0.0056   19.8651 C   0  0  0  0  0  0  0  0  0  0  0  0
    5.4280    0.6659   20.1208 C   0  0  0  0  0  0  0  0  0  0  0  0
    4.8121    1.3190   19.0607 C   0  0  0  0  0  0  0  0  0  0  0  0
    5.4306    1.2942   17.8032 C   0  0  0  0  0  0  0  0  0  0  0  0
    6.5931    0.6692   17.5573 N   0  0  0  0  0  0  0  0  0  0  0  0
    7.1850    0.0422   18.5783 C   0  0  0  0  0  0  0  0  0  0  0  0
    8.1347   -0.4536   18.3760 H   0  0  0  0  0  0  0  0  0  0  0  0
    4.9716    1.8010   16.9576 H   0  0  0  0  0  0  0  0  0  0  0  0
    3.8762    1.8433   19.2010 H   0  0  0  0  0  0  0  0  0  0  0  0
    5.0142    0.6555   21.1322 H   0  0  0  0  0  0  0  0  0  0  0  0
    8.4800   -1.3166   20.7397 N   0  0  0  0  0  0  0  0  0  0  0  0
    8.7535   -1.8119   21.9675 N   0  0  0  0  0  0  0  0  0  0  0  0
   10.0802   -2.3608   22.1545 C   0  0  0  0  0  0  0  0  0  0  0  0
   11.1958   -1.3427   22.3648 C   0  0  0  0  0  0  0  0  0  0  0  0
   11.1388   -0.7704   23.5767 F   0  0  0  0  0  0  0  0  0  0  0  0
   12.3648   -2.0041   22.2671 F   0  0  0  0  0  0  0  0  0  0  0  0
   11.2155   -0.3694   21.4481 F   0  0  0  0  0  0  0  0  0  0  0  0
   10.2990   -2.8371   21.2092 H   0  0  0  0  0  0  0  0  0  0  0  0
   10.0949   -3.0976   22.9573 H   0  0  0  0  0  0  0  0  0  0  0  0
    7.7472    0.2470   24.8729 H   0  0  0  0  0  0  0  0  0  0  0  0
    8.0961   -2.6521   27.9889 H   0  0  0  0  0  0  0  0  0  0  0  0
    7.8594   -4.4941   26.3449 H   0  0  0  0  0  0  0  0  0  0  0  0
    7.7519   -6.0448   23.1079 H   0  0  0  0  0  0  0  0  0  0  0  0
    8.6591   -5.7665   24.6198 H   0  0  0  0  0  0  0  0  0  0  0  0
    6.8690   -5.6603   24.6132 H   0  0  0  0  0  0  0  0  0  0  0  0
  1  2  1  0
  2  3  1  0
  3  4  2  0
  4  5  1  0
  5  6  2  0
  6  7  1  0
  6  8  1  0
  8  9  2  0
  9 10  1  0
 10 11  2  0
 11 12  1  0
 12 13  1  0
 13 14  2  0
 14 15  1  0
 15 16  2  0
 16 17  1  0
 17 18  2  0
 18 19  1  0
 16 20  1  0
 15 21  1  0
 14 22  1  0
 12 23  2  0
 23 24  1  0
 24 25  1  0
 25 26  1  0
 26 27  1  0
 26 28  1  0
 26 29  1  0
 25 30  1  0
 25 31  1  0
  8 32  1  0
  5 33  1  0
  4 34  1  0
  1 35  1  0
  1 36  1  0
  1 37  1  0
  9  3  1  0
 24 10  1  0
 18 13  1  0
M  END
>  <cnnaffinity>  (1) 
-6.14371

>  <filename>  (1) 
COc1ccc(F)cc1-c1nc(-c2cccnc2)nn1CC(F)(F)F

$$$$
