
     RDKit          3D

 33 35  0  0  0  0  0  0  0  0999 V2000
    5.0179    1.7617   17.0714 H   0  0  0  0  0  0  0  0  0  0  0  0
    5.4834    1.2197   17.8922 C   0  0  0  0  0  0  0  0  0  0  0  0
    6.6224    0.5691   17.5982 N   0  0  0  0  0  0  0  0  0  0  0  0
    7.2248   -0.0926   18.5905 C   0  0  0  0  0  0  0  0  0  0  0  0
    8.1729   -0.5716   18.3689 H   0  0  0  0  0  0  0  0  0  0  0  0
    6.7192   -0.1924   19.9092 C   0  0  0  0  0  0  0  0  0  0  0  0
    7.4321   -0.9324   20.8911 N   0  0  0  0  0  0  0  0  0  0  0  0
    8.7955   -0.7586   21.1187 C   0  0  0  0  0  0  0  0  0  0  0  0
    9.6062   -0.1416   20.4736 O   0  0  0  0  0  0  0  0  0  0  0  0
    9.0894   -1.4335   22.2708 N   0  0  0  0  0  0  0  0  0  0  0  0
   10.0011   -1.3911   22.6766 H   0  0  0  0  0  0  0  0  0  0  0  0
    8.0213   -2.0312   22.8566 C   0  0  0  0  0  0  0  0  0  0  0  0
    8.0507   -2.6020   23.9127 O   0  0  0  0  0  0  0  0  0  0  0  0
    6.8321   -1.7805   21.9265 C   0  0  2  0  0  0  0  0  0  0  0  0
    6.0741   -1.2344   22.4956 H   0  0  0  0  0  0  0  0  0  0  0  0
    6.1992   -3.0759   21.3799 C   0  0  0  0  0  0  0  0  0  0  0  0
    6.9369   -3.6966   20.8649 H   0  0  0  0  0  0  0  0  0  0  0  0
    5.4163   -2.8189   20.6583 H   0  0  0  0  0  0  0  0  0  0  0  0
    5.6077   -3.8786   22.4301 N   0  0  0  0  0  0  0  0  0  0  0  0
    4.4309   -3.4723   23.0424 N   0  0  0  0  0  0  0  0  0  0  0  0
    4.2296   -4.4012   23.9052 C   0  0  0  0  0  0  0  0  0  0  0  0
    3.2557   -4.4996   24.7923 O   0  0  0  0  0  0  0  0  0  0  0  0
    2.4307   -3.3312   24.9861 C   0  0  0  0  0  0  0  0  0  0  0  0
    1.8679   -3.5321   25.8973 H   0  0  0  0  0  0  0  0  0  0  0  0
    3.0379   -2.4285   25.1120 H   0  0  0  0  0  0  0  0  0  0  0  0
    1.7357   -3.1783   24.1543 H   0  0  0  0  0  0  0  0  0  0  0  0
    5.1344   -5.3885   23.9342 O   0  0  0  0  0  0  0  0  0  0  0  0
    6.0699   -5.0506   22.9627 C   0  0  0  0  0  0  0  0  0  0  0  0
    7.0290   -5.7136   22.6803 O   0  0  0  0  0  0  0  0  0  0  0  0
    5.5264    0.4892   20.1933 C   0  0  0  0  0  0  0  0  0  0  0  0
    5.1163    0.4701   21.2029 H   0  0  0  0  0  0  0  0  0  0  0  0
    4.9042    1.2139   19.1661 C   0  0  0  0  0  0  0  0  0  0  0  0
    3.9861    1.7718   19.3387 H   0  0  0  0  0  0  0  0  0  0  0  0
  1  2  1  0
  2  3  2  0
  3  4  1  0
  4  5  1  0
  4  6  2  0
  6  7  1  0
  7  8  1  0
  8  9  2  0
  8 10  1  0
 10 11  1  0
 10 12  1  0
 12 13  2  0
 12 14  1  0
 14 15  1  1
 14 16  1  0
 16 17  1  0
 16 18  1  0
 16 19  1  0
 19 20  1  0
 20 21  2  0
 21 22  1  0
 22 23  1  0
 23 24  1  0
 23 25  1  0
 23 26  1  0
 21 27  1  0
 27 28  1  0
 28 29  2  0
  6 30  1  0
 30 31  1  0
 30 32  2  0
 32 33  1  0
 32  2  1  0
 14  7  1  0
 28 19  1  0
M  END
>  <cnnaffinity>  (1) 
-5.00168

>  <filename>  (1) 
COc1nn(C[C@H]2C(=O)NC(=O)N2c2cccnc2)c(=O)o1

$$$$
