
     RDKit          3D

 34 35  0  0  0  0  0  0  0  0999 V2000
    4.9527    1.7764   16.8706 H   0  0  0  0  0  0  0  0  0  0  0  0
    5.3869    1.3370   17.7675 C   0  0  0  0  0  0  0  0  0  0  0  0
    6.5682    0.7226   17.6184 N   0  0  0  0  0  0  0  0  0  0  0  0
    7.1264    0.1871   18.7123 C   0  0  0  0  0  0  0  0  0  0  0  0
    8.0729   -0.3229   18.5290 H   0  0  0  0  0  0  0  0  0  0  0  0
    6.5743    0.2438   20.0001 C   0  0  0  0  0  0  0  0  0  0  0  0
    7.3338   -0.3941   21.1654 C   0  0  2  0  0  0  0  0  0  0  0  0
    6.6487   -0.1259   22.3523 F   0  0  0  0  0  0  0  0  0  0  0  0
    8.7354    0.2025   21.3291 C   0  0  0  0  0  0  0  0  0  0  0  0
    9.3762   -0.0074   20.4668 H   0  0  0  0  0  0  0  0  0  0  0  0
    9.2132   -0.2122   22.2195 H   0  0  0  0  0  0  0  0  0  0  0  0
    8.6893    1.2861   21.4549 H   0  0  0  0  0  0  0  0  0  0  0  0
    7.3699   -1.9290   20.9595 C   0  0  0  0  0  0  0  0  0  0  0  0
    6.3659   -2.2504   20.6630 H   0  0  0  0  0  0  0  0  0  0  0  0
    8.0235   -2.0318   20.0954 H   0  0  0  0  0  0  0  0  0  0  0  0
    7.9061   -2.7998   22.0848 C   0  0  0  0  0  0  0  0  0  0  0  0
    9.2873   -2.9136   22.3074 C   0  0  0  0  0  0  0  0  0  0  0  0
    9.9749   -2.3988   21.6331 H   0  0  0  0  0  0  0  0  0  0  0  0
    9.8131   -3.6500   23.3772 C   0  0  0  0  0  0  0  0  0  0  0  0
   10.8853   -3.7060   23.5251 H   0  0  0  0  0  0  0  0  0  0  0  0
    8.9510   -4.3283   24.2414 C   0  0  0  0  0  0  0  0  0  0  0  0
    9.3326   -4.8839   25.0942 H   0  0  0  0  0  0  0  0  0  0  0  0
    7.5734   -4.2627   24.0192 C   0  0  0  0  0  0  0  0  0  0  0  0
    6.8886   -4.7713   24.6834 H   0  0  0  0  0  0  0  0  0  0  0  0
    7.0461   -3.5100   22.9571 C   0  0  0  0  0  0  0  0  0  0  0  0
    5.6982   -3.4584   22.7184 O   0  0  0  0  0  0  0  0  0  0  0  0
    4.8112   -3.6940   23.7994 C   0  0  0  0  0  0  0  0  0  0  0  0
    5.1325   -3.1972   24.7265 H   0  0  0  0  0  0  0  0  0  0  0  0
    4.7120   -4.7680   23.9953 H   0  0  0  0  0  0  0  0  0  0  0  0
    3.8460   -3.2855   23.5067 H   0  0  0  0  0  0  0  0  0  0  0  0
    5.3151    0.8558   20.1258 C   0  0  0  0  0  0  0  0  0  0  0  0
    4.8305    0.8944   21.1001 H   0  0  0  0  0  0  0  0  0  0  0  0
    4.7157    1.4109   18.9917 C   0  0  0  0  0  0  0  0  0  0  0  0
    3.7515    1.9057   19.0511 H   0  0  0  0  0  0  0  0  0  0  0  0
  1  2  1  0
  2  3  2  0
  3  4  1  0
  4  5  1  0
  4  6  2  0
  6  7  1  0
  7  8  1  1
  7  9  1  0
  9 10  1  0
  9 11  1  0
  9 12  1  0
  7 13  1  0
 13 14  1  0
 13 15  1  0
 13 16  1  0
 16 17  2  0
 17 18  1  0
 17 19  1  0
 19 20  1  0
 19 21  2  0
 21 22  1  0
 21 23  1  0
 23 24  1  0
 23 25  2  0
 25 26  1  0
 26 27  1  0
 27 28  1  0
 27 29  1  0
 27 30  1  0
  6 31  1  0
 31 32  1  0
 31 33  2  0
 33 34  1  0
 33  2  1  0
 25 16  1  0
M  END
>  <cnnaffinity>  (1) 
-4.61017

>  <filename>  (1) 
COc1ccccc1C[C@](C)(F)c1cccnc1

$$$$
