
     RDKit          3D

 34 35  0  0  0  0  0  0  0  0999 V2000
    4.9137    1.7849   16.9946 H   0  0  0  0  0  0  0  0  0  0  0  0
    5.3983    1.2944   17.8354 C   0  0  0  0  0  0  0  0  0  0  0  0
    6.5617    0.6801   17.5703 N   0  0  0  0  0  0  0  0  0  0  0  0
    7.1764    0.0615   18.5909 C   0  0  0  0  0  0  0  0  0  0  0  0
    8.1226   -0.4222   18.3564 H   0  0  0  0  0  0  0  0  0  0  0  0
    6.6747   -0.0038   19.9245 C   0  0  0  0  0  0  0  0  0  0  0  0
    7.3163   -0.6566   20.9627 N   0  0  0  0  0  0  0  0  0  0  0  0
    6.8751   -0.6477   21.8676 H   0  0  0  0  0  0  0  0  0  0  0  0
    8.5960   -1.3255   20.8341 C   0  0  0  0  0  0  0  0  0  0  0  0
    8.5034   -2.0950   20.0796 H   0  0  0  0  0  0  0  0  0  0  0  0
    9.3614   -0.6359   20.4461 H   0  0  0  0  0  0  0  0  0  0  0  0
    9.0251   -1.9592   22.1327 C   0  0  0  0  0  0  0  0  0  0  0  0
    8.6534   -3.2612   22.4650 C   0  0  0  0  0  0  0  0  0  0  0  0
    8.0575   -3.8495   21.7704 H   0  0  0  0  0  0  0  0  0  0  0  0
    9.0273   -3.8142   23.6966 C   0  0  0  0  0  0  0  0  0  0  0  0
    8.7172   -4.8247   23.9420 H   0  0  0  0  0  0  0  0  0  0  0  0
    9.7775   -3.0821   24.6195 C   0  0  0  0  0  0  0  0  0  0  0  0
   10.1549   -3.5630   25.8343 O   0  0  0  0  0  0  0  0  0  0  0  0
    9.8354   -4.8734   26.2595 C   0  0  0  0  0  0  0  0  0  0  0  0
    8.7520   -5.0277   26.3520 H   0  0  0  0  0  0  0  0  0  0  0  0
   10.2638   -5.6504   25.6110 H   0  0  0  0  0  0  0  0  0  0  0  0
   10.2821   -4.9687   27.2498 H   0  0  0  0  0  0  0  0  0  0  0  0
   10.1605   -1.7346   24.2742 C   0  0  0  0  0  0  0  0  0  0  0  0
   10.8528   -1.0072   25.1773 O   0  0  0  0  0  0  0  0  0  0  0  0
   11.3206    0.2966   24.9403 C   0  0  0  0  0  0  0  0  0  0  0  0
   11.8741    0.5307   25.8428 H   0  0  0  0  0  0  0  0  0  0  0  0
   12.0165    0.3697   24.0923 H   0  0  0  0  0  0  0  0  0  0  0  0
   10.4975    1.0151   24.8354 H   0  0  0  0  0  0  0  0  0  0  0  0
    9.7859   -1.2143   23.0398 C   0  0  0  0  0  0  0  0  0  0  0  0
   10.0762   -0.1985   22.7841 H   0  0  0  0  0  0  0  0  0  0  0  0
    5.4458    0.6448   20.1704 C   0  0  0  0  0  0  0  0  0  0  0  0
    5.0139    0.6263   21.1736 H   0  0  0  0  0  0  0  0  0  0  0  0
    4.8164    1.3024   19.1112 C   0  0  0  0  0  0  0  0  0  0  0  0
    3.8846    1.8342   19.2630 H   0  0  0  0  0  0  0  0  0  0  0  0
  1  2  1  0
  2  3  2  0
  3  4  1  0
  4  5  1  0
  4  6  2  0
  6  7  1  0
  7  8  1  0
  7  9  1  0
  9 10  1  0
  9 11  1  0
  9 12  1  0
 12 13  2  0
 13 14  1  0
 13 15  1  0
 15 16  1  0
 15 17  2  0
 17 18  1  0
 18 19  1  0
 19 20  1  0
 19 21  1  0
 19 22  1  0
 17 23  1  0
 23 24  1  0
 24 25  1  0
 25 26  1  0
 25 27  1  0
 25 28  1  0
 23 29  2  0
 29 30  1  0
  6 31  1  0
 31 32  1  0
 31 33  2  0
 33 34  1  0
 33  2  1  0
 29 12  1  0
M  END
>  <cnnaffinity>  (1) 
-4.69712

>  <filename>  (1) 
COc1ccc(CNc2cccnc2)cc1OC

$$$$
