
     RDKit          3D

 43 46  0  0  0  0  0  0  0  0999 V2000
    4.9622    1.8383   16.9406 H   0  0  0  0  0  0  0  0  0  0  0  0
    5.3843    1.3089   17.7912 C   0  0  0  0  0  0  0  0  0  0  0  0
    6.5417    0.6631   17.5813 N   0  0  0  0  0  0  0  0  0  0  0  0
    7.0917    0.0334   18.6300 C   0  0  0  0  0  0  0  0  0  0  0  0
    8.0433   -0.4577   18.4168 H   0  0  0  0  0  0  0  0  0  0  0  0
    6.5122   -0.0240   19.9179 C   0  0  0  0  0  0  0  0  0  0  0  0
    7.2472   -0.6683   21.0277 C   0  0  0  0  0  0  0  0  0  0  0  0
    8.6006   -0.6143   21.2694 C   0  0  0  0  0  0  0  0  0  0  0  0
    8.7991   -1.1362   22.5382 C   0  0  0  0  0  0  0  0  0  0  0  0
    7.6897   -1.6140   23.0700 N   0  0  0  0  0  0  0  0  0  0  0  0
    6.7438   -1.3025   22.1386 N   0  0  0  0  0  0  0  0  0  0  0  0
    5.7757   -1.4718   22.3825 H   0  0  0  0  0  0  0  0  0  0  0  0
   10.2082   -0.9242   23.0156 C   0  0  0  0  0  0  0  0  0  0  0  0
   10.7387   -1.8793   23.0493 H   0  0  0  0  0  0  0  0  0  0  0  0
   10.2682   -0.4958   24.0204 H   0  0  0  0  0  0  0  0  0  0  0  0
   10.8205    0.0266   21.9218 C   0  0  2  0  0  0  0  0  0  0  0  0
   11.7726   -0.3996   21.5950 H   0  0  0  0  0  0  0  0  0  0  0  0
   11.1283    1.4245   22.4300 C   0  0  0  0  0  0  0  0  0  0  0  0
   12.4453    1.9110   22.4641 C   0  0  0  0  0  0  0  0  0  0  0  0
   13.2541    1.2764   22.1024 H   0  0  0  0  0  0  0  0  0  0  0  0
   12.7429    3.1777   22.9519 C   0  0  0  0  0  0  0  0  0  0  0  0
   13.7499    3.5742   22.9892 H   0  0  0  0  0  0  0  0  0  0  0  0
   11.7142    4.0043   23.4234 C   0  0  0  0  0  0  0  0  0  0  0  0
   12.1306    5.2159   23.8899 O   0  0  0  0  0  0  0  0  0  0  0  0
   11.1838    6.1478   24.3727 C   0  0  0  0  0  0  0  0  0  0  0  0
   11.7394    7.0382   24.6736 H   0  0  0  0  0  0  0  0  0  0  0  0
   10.6449    5.7594   25.2460 H   0  0  0  0  0  0  0  0  0  0  0  0
   10.4607    6.4304   23.5970 H   0  0  0  0  0  0  0  0  0  0  0  0
   10.3885    3.5607   23.3958 C   0  0  0  0  0  0  0  0  0  0  0  0
    9.5836    4.1956   23.7481 H   0  0  0  0  0  0  0  0  0  0  0  0
   10.1043    2.2772   22.8961 C   0  0  0  0  0  0  0  0  0  0  0  0
    8.8426    1.7687   22.8357 O   0  0  0  0  0  0  0  0  0  0  0  0
    7.7216    2.5167   23.2396 C   0  0  0  0  0  0  0  0  0  0  0  0
    7.7723    2.7814   24.3043 H   0  0  0  0  0  0  0  0  0  0  0  0
    6.8504    1.8769   23.0740 H   0  0  0  0  0  0  0  0  0  0  0  0
    7.6057    3.4329   22.6456 H   0  0  0  0  0  0  0  0  0  0  0  0
    9.8301    0.0033   20.7119 C   0  0  0  0  0  0  0  0  0  0  0  0
   10.2470   -0.6215   19.9214 H   0  0  0  0  0  0  0  0  0  0  0  0
    9.6567    0.9943   20.2740 H   0  0  0  0  0  0  0  0  0  0  0  0
    5.2984    0.6641   20.1031 C   0  0  0  0  0  0  0  0  0  0  0  0
    4.8441    0.7134   21.0943 H   0  0  0  0  0  0  0  0  0  0  0  0
    4.7277    1.3380   19.0258 C   0  0  0  0  0  0  0  0  0  0  0  0
    3.8116    1.9083   19.1438 H   0  0  0  0  0  0  0  0  0  0  0  0
  1  2  1  0
  2  3  2  0
  3  4  1  0
  4  5  1  0
  4  6  2  0
  6  7  1  0
  7  8  2  0
  8  9  1  0
  9 10  2  0
 10 11  1  0
 11 12  1  0
  9 13  1  0
 13 14  1  0
 13 15  1  0
 13 16  1  0
 16 17  1  6
 16 18  1  0
 18 19  2  0
 19 20  1  0
 19 21  1  0
 21 22  1  0
 21 23  2  0
 23 24  1  0
 24 25  1  0
 25 26  1  0
 25 27  1  0
 25 28  1  0
 23 29  1  0
 29 30  1  0
 29 31  2  0
 31 32  1  0
 32 33  1  0
 33 34  1  0
 33 35  1  0
 33 36  1  0
 16 37  1  0
 37 38  1  0
 37 39  1  0
  6 40  1  0
 40 41  1  0
 40 42  2  0
 42 43  1  0
 42  2  1  0
 11  7  1  0
 31 18  1  0
 37  8  1  0
M  END
>  <cnnaffinity>  (1) 
-5.79738

>  <filename>  (1) 
COc1ccc([C@H]2Cc3n[nH]c(-c4cccnc4)c3C2)c(OC)c1

$$$$
