
     RDKit          3D

 36 38  0  0  0  0  0  0  0  0999 V2000
    5.0523    1.7578   17.0197 H   0  0  0  0  0  0  0  0  0  0  0  0
    5.4682    1.2069   17.8606 C   0  0  0  0  0  0  0  0  0  0  0  0
    6.5852    0.5048   17.6129 N   0  0  0  0  0  0  0  0  0  0  0  0
    7.1350   -0.1408   18.6475 C   0  0  0  0  0  0  0  0  0  0  0  0
    8.0441   -0.7030   18.4365 H   0  0  0  0  0  0  0  0  0  0  0  0
    6.6428   -0.1095   19.9584 C   0  0  0  0  0  0  0  0  0  0  0  0
    7.3900   -0.8685   21.0269 C   0  0  0  0  0  0  0  0  0  0  0  0
    6.9453   -2.2250   20.8951 N   0  0  0  0  0  0  0  0  0  0  0  0
    6.2111   -2.3893   20.2439 H   0  0  0  0  0  0  0  0  0  0  0  0
    7.2317   -3.2761   21.6862 C   0  0  0  0  0  0  0  0  0  0  0  0
    8.1427   -3.1137   22.6491 N   0  0  0  0  0  0  0  0  0  0  0  0
    8.3755   -4.1910   23.3792 C   0  0  0  0  0  0  0  0  0  0  0  0
    9.2687   -4.1568   24.3852 O   0  0  0  0  0  0  0  0  0  0  0  0
   10.0816   -3.0216   24.6230 C   0  0  0  0  0  0  0  0  0  0  0  0
   10.8952   -3.3878   25.2527 H   0  0  0  0  0  0  0  0  0  0  0  0
    9.5347   -2.2367   25.1658 H   0  0  0  0  0  0  0  0  0  0  0  0
   10.4962   -2.6078   23.6955 H   0  0  0  0  0  0  0  0  0  0  0  0
    7.7697   -5.4448   23.2015 C   0  0  0  0  0  0  0  0  0  0  0  0
    8.0790   -6.2273   23.8743 H   0  0  0  0  0  0  0  0  0  0  0  0
    6.8332   -5.5858   22.1884 C   0  0  0  0  0  0  0  0  0  0  0  0
    6.3344   -6.5417   22.0162 H   0  0  0  0  0  0  0  0  0  0  0  0
    6.5510   -4.4720   21.4092 C   0  0  0  0  0  0  0  0  0  0  0  0
    5.8329   -4.4896   20.6011 H   0  0  0  0  0  0  0  0  0  0  0  0
    7.3408   -0.2169   22.4344 C   0  0  0  0  0  0  0  0  0  0  0  0
    6.9376   -0.8570   23.2198 H   0  0  0  0  0  0  0  0  0  0  0  0
    6.8051    0.7369   22.4315 H   0  0  0  0  0  0  0  0  0  0  0  0
    8.8778   -0.0424   22.4144 C   0  0  0  0  0  0  0  0  0  0  0  0
    9.2120    1.0005   22.4354 H   0  0  0  0  0  0  0  0  0  0  0  0
    9.4017   -0.6024   23.1948 H   0  0  0  0  0  0  0  0  0  0  0  0
    8.9330   -0.6943   21.0144 C   0  0  0  0  0  0  0  0  0  0  0  0
    9.2897   -0.0251   20.2261 H   0  0  0  0  0  0  0  0  0  0  0  0
    9.4754   -1.6395   20.9625 H   0  0  0  0  0  0  0  0  0  0  0  0
    5.4266    0.5544   20.1777 C   0  0  0  0  0  0  0  0  0  0  0  0
    4.9573    0.5265   21.1650 H   0  0  0  0  0  0  0  0  0  0  0  0
    4.8388    1.2370   19.1108 C   0  0  0  0  0  0  0  0  0  0  0  0
    3.9231    1.8038   19.2399 H   0  0  0  0  0  0  0  0  0  0  0  0
  1  2  1  0
  2  3  2  0
  3  4  1  0
  4  5  1  0
  4  6  2  0
  6  7  1  0
  7  8  1  0
  8  9  1  0
  8 10  1  0
 10 11  2  0
 11 12  1  0
 12 13  1  0
 13 14  1  0
 14 15  1  0
 14 16  1  0
 14 17  1  0
 12 18  2  0
 18 19  1  0
 18 20  1  0
 20 21  1  0
 20 22  2  0
 22 23  1  0
  7 24  1  0
 24 25  1  0
 24 26  1  0
 24 27  1  0
 27 28  1  0
 27 29  1  0
 27 30  1  0
 30 31  1  0
 30 32  1  0
  6 33  1  0
 33 34  1  0
 33 35  2  0
 35 36  1  0
 35  2  1  0
 30  7  1  0
 22 10  1  0
M  END
>  <cnnaffinity>  (1) 
-5.10841

>  <filename>  (1) 
COc1cccc(NC2(c3cccnc3)CCC2)n1

$$$$
