
     RDKit          3D

 38 40  0  0  0  0  0  0  0  0999 V2000
    4.9009    1.8227   16.9710 H   0  0  0  0  0  0  0  0  0  0  0  0
    5.3869    1.3199   17.8039 C   0  0  0  0  0  0  0  0  0  0  0  0
    6.5464    0.7037   17.5209 N   0  0  0  0  0  0  0  0  0  0  0  0
    7.1779    0.0832   18.5261 C   0  0  0  0  0  0  0  0  0  0  0  0
    8.1242   -0.4002   18.2938 H   0  0  0  0  0  0  0  0  0  0  0  0
    6.6783    0.0242   19.8437 C   0  0  0  0  0  0  0  0  0  0  0  0
    7.3696   -0.6904   20.9065 N   0  0  0  0  0  0  0  0  0  0  0  0
    6.7623   -1.8343   21.4922 C   0  0  0  0  0  0  0  0  0  0  0  0
    5.6851   -2.2343   21.0994 O   0  0  0  0  0  0  0  0  0  0  0  0
    7.5161   -2.5054   22.5252 C   0  0  0  0  0  0  0  0  0  0  0  0
    7.0243   -3.3638   22.9494 H   0  0  0  0  0  0  0  0  0  0  0  0
    8.7295   -2.0856   22.9230 C   0  0  0  0  0  0  0  0  0  0  0  0
    9.5184   -2.7241   24.0311 C   0  0  0  0  0  0  0  0  0  0  0  0
    9.4491   -3.8145   23.9332 H   0  0  0  0  0  0  0  0  0  0  0  0
   10.5764   -2.4644   23.9334 H   0  0  0  0  0  0  0  0  0  0  0  0
    8.9449   -2.2865   25.3771 C   0  0  0  0  0  0  0  0  0  0  0  0
    7.9220   -3.0179   25.9888 C   0  0  0  0  0  0  0  0  0  0  0  0
    7.6983   -4.0110   25.6060 H   0  0  0  0  0  0  0  0  0  0  0  0
    7.1872   -2.5057   27.0643 C   0  0  0  0  0  0  0  0  0  0  0  0
    6.3920   -3.0997   27.5114 H   0  0  0  0  0  0  0  0  0  0  0  0
    7.5211   -1.2522   27.5740 C   0  0  0  0  0  0  0  0  0  0  0  0
    6.9297   -0.7998   28.3682 H   0  0  0  0  0  0  0  0  0  0  0  0
    8.6072   -0.5453   27.0521 C   0  0  0  0  0  0  0  0  0  0  0  0
    8.9386    0.3751   27.5188 H   0  0  0  0  0  0  0  0  0  0  0  0
    9.2980   -1.0410   25.9340 C   0  0  0  0  0  0  0  0  0  0  0  0
   10.2701   -0.3468   25.2637 O   0  0  0  0  0  0  0  0  0  0  0  0
   10.7469    0.8402   25.8596 C   0  0  0  0  0  0  0  0  0  0  0  0
   11.5666    1.2055   25.2392 H   0  0  0  0  0  0  0  0  0  0  0  0
   11.1083    0.6236   26.8695 H   0  0  0  0  0  0  0  0  0  0  0  0
    9.9578    1.6014   25.9161 H   0  0  0  0  0  0  0  0  0  0  0  0
    9.2020   -0.9316   22.3615 N   0  0  0  0  0  0  0  0  0  0  0  0
   10.0072   -0.4391   22.7066 H   0  0  0  0  0  0  0  0  0  0  0  0
    8.5945   -0.2072   21.3657 C   0  0  0  0  0  0  0  0  0  0  0  0
    9.1416    0.7808   20.9322 O   0  0  0  0  0  0  0  0  0  0  0  0
    5.4637    0.6550   20.1176 C   0  0  0  0  0  0  0  0  0  0  0  0
    5.0450    0.6057   21.1222 H   0  0  0  0  0  0  0  0  0  0  0  0
    4.8101    1.3273   19.0769 C   0  0  0  0  0  0  0  0  0  0  0  0
    3.8745    1.8492   19.2398 H   0  0  0  0  0  0  0  0  0  0  0  0
  1  2  1  0
  2  3  2  0
  3  4  1  0
  4  5  1  0
  4  6  2  0
  6  7  1  0
  7  8  1  0
  8  9  2  0
  8 10  1  0
 10 11  1  0
 10 12  2  0
 12 13  1  0
 13 14  1  0
 13 15  1  0
 13 16  1  0
 16 17  2  0
 17 18  1  0
 17 19  1  0
 19 20  1  0
 19 21  2  0
 21 22  1  0
 21 23  1  0
 23 24  1  0
 23 25  2  0
 25 26  1  0
 26 27  1  0
 27 28  1  0
 27 29  1  0
 27 30  1  0
 12 31  1  0
 31 32  1  0
 31 33  1  0
 33 34  2  0
  6 35  1  0
 35 36  1  0
 35 37  2  0
 37 38  1  0
 37  2  1  0
 33  7  1  0
 25 16  1  0
M  END
>  <cnnaffinity>  (1) 
-5.17095

>  <filename>  (1) 
COc1ccccc1Cc1cc(=O)n(-c2cccnc2)c(=O)[nH]1

$$$$
