
     RDKit          3D

 38 40  0  0  0  0  0  0  0  0999 V2000
    4.9356    1.8306   16.9900 H   0  0  0  0  0  0  0  0  0  0  0  0
    5.3986    1.2991   17.8161 C   0  0  0  0  0  0  0  0  0  0  0  0
    6.5441    0.6553   17.5415 N   0  0  0  0  0  0  0  0  0  0  0  0
    7.1578    0.0307   18.5507 C   0  0  0  0  0  0  0  0  0  0  0  0
    8.1042   -0.4649   18.3405 H   0  0  0  0  0  0  0  0  0  0  0  0
    6.6429   -0.0013   19.8538 C   0  0  0  0  0  0  0  0  0  0  0  0
    7.3383   -0.6787   20.8878 N   0  0  0  0  0  0  0  0  0  0  0  0
    6.5628   -1.5825   21.5713 N   0  0  0  0  0  0  0  0  0  0  0  0
    7.1208   -2.2171   22.5568 C   0  0  0  0  0  0  0  0  0  0  0  0
    6.4918   -2.9268   23.0843 H   0  0  0  0  0  0  0  0  0  0  0  0
    8.4999   -2.0290   22.9382 C   0  0  0  0  0  0  0  0  0  0  0  0
    9.1011   -2.8217   24.0244 C   0  0  0  0  0  0  0  0  0  0  0  0
   10.3253   -3.4761   23.7963 C   0  0  0  0  0  0  0  0  0  0  0  0
   10.8081   -3.3512   22.8281 H   0  0  0  0  0  0  0  0  0  0  0  0
   10.8939   -4.2922   24.7574 C   0  0  0  0  0  0  0  0  0  0  0  0
   11.8185   -4.8347   24.6110 H   0  0  0  0  0  0  0  0  0  0  0  0
   10.2655   -4.4148   25.9969 C   0  0  0  0  0  0  0  0  0  0  0  0
   10.8968   -5.2209   26.8774 O   0  0  0  0  0  0  0  0  0  0  0  0
   10.5965   -5.1004   28.2397 C   0  0  0  0  0  0  0  0  0  0  0  0
    9.6805   -5.6481   28.4955 H   0  0  0  0  0  0  0  0  0  0  0  0
   10.4810   -4.0635   28.5478 H   0  0  0  0  0  0  0  0  0  0  0  0
   11.4340   -5.5182   28.7826 H   0  0  0  0  0  0  0  0  0  0  0  0
    9.0758   -3.7380   26.2802 C   0  0  0  0  0  0  0  0  0  0  0  0
    8.6170   -3.8178   27.2549 H   0  0  0  0  0  0  0  0  0  0  0  0
    8.4826   -2.9510   25.2899 C   0  0  0  0  0  0  0  0  0  0  0  0
    7.3080   -2.2836   25.4912 O   0  0  0  0  0  0  0  0  0  0  0  0
    6.6778   -2.3244   26.7591 C   0  0  0  0  0  0  0  0  0  0  0  0
    6.3852   -3.3465   27.0325 H   0  0  0  0  0  0  0  0  0  0  0  0
    5.7773   -1.7124   26.6890 H   0  0  0  0  0  0  0  0  0  0  0  0
    7.3252   -1.9122   27.5440 H   0  0  0  0  0  0  0  0  0  0  0  0
    9.2589   -1.1280   22.2493 C   0  0  0  0  0  0  0  0  0  0  0  0
   10.2986   -0.9409   22.4800 H   0  0  0  0  0  0  0  0  0  0  0  0
    8.7195   -0.3542   21.1682 C   0  0  0  0  0  0  0  0  0  0  0  0
    9.3378    0.4763   20.5191 O   0  0  0  0  0  0  0  0  0  0  0  0
    5.4304    0.6363   20.1276 C   0  0  0  0  0  0  0  0  0  0  0  0
    5.0093    0.5756   21.1310 H   0  0  0  0  0  0  0  0  0  0  0  0
    4.8056    1.3171   19.0851 C   0  0  0  0  0  0  0  0  0  0  0  0
    3.8829    1.8619   19.2496 H   0  0  0  0  0  0  0  0  0  0  0  0
  1  2  1  0
  2  3  2  0
  3  4  1  0
  4  5  1  0
  4  6  2  0
  6  7  1  0
  7  8  1  0
  8  9  2  0
  9 10  1  0
  9 11  1  0
 11 12  1  0
 12 13  2  0
 13 14  1  0
 13 15  1  0
 15 16  1  0
 15 17  2  0
 17 18  1  0
 18 19  1  0
 19 20  1  0
 19 21  1  0
 19 22  1  0
 17 23  1  0
 23 24  1  0
 23 25  2  0
 25 26  1  0
 26 27  1  0
 27 28  1  0
 27 29  1  0
 27 30  1  0
 11 31  2  0
 31 32  1  0
 31 33  1  0
 33 34  2  0
  6 35  1  0
 35 36  1  0
 35 37  2  0
 37 38  1  0
 37  2  1  0
 33  7  1  0
 25 12  1  0
M  END
>  <cnnaffinity>  (1) 
-5.50572

>  <filename>  (1) 
COc1ccc(-c2cnn(-c3cccnc3)c(=O)c2)c(OC)c1

$$$$
