
     RDKit          3D

 35 36  0  0  0  0  0  0  0  0999 V2000
    5.9654   -4.1327   20.6067 C   0  0  0  0  0  0  0  0  0  0  0  0
    5.7259   -2.7767   20.9063 O   0  0  0  0  0  0  0  0  0  0  0  0
    6.9357   -2.0582   21.0209 C   0  0  0  0  0  0  0  0  0  0  0  0
    6.7024   -0.5353   20.9985 C   0  0  1  0  0  0  0  0  0  0  0  0
    7.9347    0.2006   21.2168 N   0  0  0  0  0  0  0  0  0  0  0  0
    8.8428    0.0911   22.2016 C   0  0  0  0  0  0  0  0  0  0  0  0
    8.5638   -0.4863   23.4477 C   0  0  0  0  0  0  0  0  0  0  0  0
    9.5664   -0.5872   24.4198 C   0  0  0  0  0  0  0  0  0  0  0  0
    9.2464   -1.3180   25.7372 C   0  0  0  0  0  0  0  0  0  0  0  0
    9.5914   -2.6165   25.6720 F   0  0  0  0  0  0  0  0  0  0  0  0
    9.8529   -0.7829   26.8018 F   0  0  0  0  0  0  0  0  0  0  0  0
    7.9204   -1.2997   25.9915 F   0  0  0  0  0  0  0  0  0  0  0  0
   10.8114   -0.0180   24.0638 C   0  0  0  0  0  0  0  0  0  0  0  0
   12.1795    0.0122   25.1257 Cl  0  0  0  0  0  0  0  0  0  0  0  0
   10.9613    0.6041   22.8120 C   0  0  0  0  0  0  0  0  0  0  0  0
   10.0134    0.6491   21.8760 N   0  0  0  0  0  0  0  0  0  0  0  0
   11.9069    1.0935   22.5831 H   0  0  0  0  0  0  0  0  0  0  0  0
    7.5420   -0.7909   23.6277 H   0  0  0  0  0  0  0  0  0  0  0  0
    8.3875    0.7282   20.4884 H   0  0  0  0  0  0  0  0  0  0  0  0
    6.1187    0.0243   19.7086 C   0  0  0  0  0  0  0  0  0  0  0  0
    4.9155    0.7365   19.7380 C   0  0  0  0  0  0  0  0  0  0  0  0
    4.5215    1.4487   18.6039 C   0  0  0  0  0  0  0  0  0  0  0  0
    5.3442    1.4078   17.4710 C   0  0  0  0  0  0  0  0  0  0  0  0
    6.4679    0.6772   17.3945 N   0  0  0  0  0  0  0  0  0  0  0  0
    6.8388    0.0086   18.4997 C   0  0  0  0  0  0  0  0  0  0  0  0
    7.7626   -0.5691   18.3955 H   0  0  0  0  0  0  0  0  0  0  0  0
    5.0881    1.9928   16.5896 H   0  0  0  0  0  0  0  0  0  0  0  0
    3.6080    2.0344   18.5973 H   0  0  0  0  0  0  0  0  0  0  0  0
    4.3246    0.7706   20.6600 H   0  0  0  0  0  0  0  0  0  0  0  0
    5.9875   -0.3317   21.8140 H   0  0  0  0  0  0  0  0  0  0  0  0
    7.6399   -2.2864   20.2149 H   0  0  0  0  0  0  0  0  0  0  0  0
    7.4508   -2.3403   21.9555 H   0  0  0  0  0  0  0  0  0  0  0  0
    6.8346   -4.5331   21.1516 H   0  0  0  0  0  0  0  0  0  0  0  0
    6.1317   -4.2738   19.5298 H   0  0  0  0  0  0  0  0  0  0  0  0
    5.1020   -4.7139   20.9297 H   0  0  0  0  0  0  0  0  0  0  0  0
  1  2  1  0
  2  3  1  0
  3  4  1  0
  4  5  1  0
  5  6  1  0
  6  7  2  0
  7  8  1  0
  8  9  1  0
  9 10  1  0
  9 11  1  0
  9 12  1  0
  8 13  2  0
 13 14  1  0
 13 15  1  0
 15 16  2  0
 15 17  1  0
  7 18  1  0
  5 19  1  0
  4 20  1  0
 20 21  2  0
 21 22  1  0
 22 23  2  0
 23 24  1  0
 24 25  2  0
 25 26  1  0
 23 27  1  0
 22 28  1  0
 21 29  1  0
  4 30  1  1
  3 31  1  0
  3 32  1  0
  1 33  1  0
  1 34  1  0
  1 35  1  0
 16  6  1  0
 25 20  1  0
M  END
>  <cnnaffinity>  (1) 
-5.32007

>  <filename>  (1) 
COC[C@@H](Nc1cc(C(F)(F)F)c(Cl)cn1)c1cccnc1

$$$$
