
     RDKit          3D

 48 51  0  0  0  0  0  0  0  0999 V2000
    7.1037    6.1794   24.4991 C   0  0  0  0  0  0  0  0  0  0  0  0
    7.8849    5.0427   24.7913 O   0  0  0  0  0  0  0  0  0  0  0  0
    7.6756    3.9760   23.8912 C   0  0  0  0  0  0  0  0  0  0  0  0
    8.6523    2.8431   24.2343 C   0  0  0  0  0  0  0  0  0  0  0  0
    8.3807    2.1498   25.5691 C   0  0  0  0  0  0  0  0  0  0  0  0
    9.1530    1.4008   25.7700 H   0  0  0  0  0  0  0  0  0  0  0  0
    8.4088    2.8950   26.3692 H   0  0  0  0  0  0  0  0  0  0  0  0
    7.4077    1.6482   25.5675 H   0  0  0  0  0  0  0  0  0  0  0  0
    8.7030    1.8882   23.1156 N   0  0  0  0  0  0  0  0  0  0  0  0
    7.6776    1.0361   22.8424 N   0  0  0  0  0  0  0  0  0  0  0  0
    8.0546    0.4682   21.7135 C   0  0  0  0  0  0  0  0  0  0  0  0
    7.2892   -0.6046   20.9865 C   0  0  0  0  0  0  0  0  0  0  0  0
    6.5320   -0.0351   19.7938 C   0  0  0  0  0  0  0  0  0  0  0  0
    5.3305    0.6563   19.9999 C   0  0  0  0  0  0  0  0  0  0  0  0
    4.7488    1.3369   18.9305 C   0  0  0  0  0  0  0  0  0  0  0  0
    5.3841    1.2962   17.6863 C   0  0  0  0  0  0  0  0  0  0  0  0
    6.5116    0.6088   17.4522 N   0  0  0  0  0  0  0  0  0  0  0  0
    7.0579   -0.0395   18.4890 C   0  0  0  0  0  0  0  0  0  0  0  0
    7.9792   -0.5842   18.2761 H   0  0  0  0  0  0  0  0  0  0  0  0
    4.9733    1.8425   16.8410 H   0  0  0  0  0  0  0  0  0  0  0  0
    3.8396    1.9142   19.0514 H   0  0  0  0  0  0  0  0  0  0  0  0
    4.8708    0.6734   20.9903 H   0  0  0  0  0  0  0  0  0  0  0  0
    8.0203   -1.3625   20.6741 H   0  0  0  0  0  0  0  0  0  0  0  0
    6.6058   -1.0781   21.6991 H   0  0  0  0  0  0  0  0  0  0  0  0
    9.2368    0.9200   21.2174 N   0  0  0  0  0  0  0  0  0  0  0  0
    9.6407    1.7762   22.1469 C   0  0  0  0  0  0  0  0  0  0  0  0
   11.0057    2.3372   22.3378 C   0  0  0  0  0  0  0  0  0  0  0  0
   11.2326    3.7047   22.4112 C   0  0  0  0  0  0  0  0  0  0  0  0
   12.5449    4.2024   22.5777 C   0  0  0  0  0  0  0  0  0  0  0  0
   12.7074    5.5313   22.6903 F   0  0  0  0  0  0  0  0  0  0  0  0
   13.6275    3.3747   22.6750 C   0  0  0  0  0  0  0  0  0  0  0  0
   13.4209    1.9691   22.6496 C   0  0  0  0  0  0  0  0  0  0  0  0
   14.5014    1.0546   22.6942 C   0  0  0  0  0  0  0  0  0  0  0  0
   14.2573   -0.2905   22.7547 C   0  0  0  0  0  0  0  0  0  0  0  0
   13.0146   -0.8203   22.7601 N   0  0  0  0  0  0  0  0  0  0  0  0
   11.9954    0.0064   22.6588 C   0  0  0  0  0  0  0  0  0  0  0  0
   12.1080    1.4293   22.5290 C   0  0  0  0  0  0  0  0  0  0  0  0
   11.0048   -0.4390   22.6418 H   0  0  0  0  0  0  0  0  0  0  0  0
   15.0545   -1.0210   22.8244 H   0  0  0  0  0  0  0  0  0  0  0  0
   15.4996    1.4449   22.5958 H   0  0  0  0  0  0  0  0  0  0  0  0
   14.6219    3.7913   22.7585 H   0  0  0  0  0  0  0  0  0  0  0  0
   10.4350    4.4298   22.3101 H   0  0  0  0  0  0  0  0  0  0  0  0
    9.6394    3.2980   24.3155 H   0  0  0  0  0  0  0  0  0  0  0  0
    7.8569    4.3103   22.8554 H   0  0  0  0  0  0  0  0  0  0  0  0
    6.6412    3.5908   23.9376 H   0  0  0  0  0  0  0  0  0  0  0  0
    7.3266    6.5939   23.5014 H   0  0  0  0  0  0  0  0  0  0  0  0
    6.0247    5.9609   24.5429 H   0  0  0  0  0  0  0  0  0  0  0  0
    7.3355    6.9387   25.2503 H   0  0  0  0  0  0  0  0  0  0  0  0
  1  2  1  0
  2  3  1  0
  3  4  1  0
  4  5  1  0
  5  6  1  0
  5  7  1  0
  5  8  1  0
  4  9  1  0
  9 10  1  0
 10 11  2  0
 11 12  1  0
 12 13  1  0
 13 14  2  0
 14 15  1  0
 15 16  2  0
 16 17  1  0
 17 18  2  0
 18 19  1  0
 16 20  1  0
 15 21  1  0
 14 22  1  0
 12 23  1  0
 12 24  1  0
 11 25  1  0
 25 26  2  0
 26 27  1  0
 27 28  2  0
 28 29  1  0
 29 30  1  0
 29 31  2  0
 31 32  1  0
 32 33  2  0
 33 34  1  0
 34 35  2  0
 35 36  1  0
 36 37  2  0
 36 38  1  0
 34 39  1  0
 33 40  1  0
 31 41  1  0
 28 42  1  0
  4 43  1  0
  3 44  1  0
  3 45  1  0
  1 46  1  0
  1 47  1  0
  1 48  1  0
 26  9  1  0
 37 27  1  0
 18 13  1  0
 37 32  1  0
M  END
>  <cnnaffinity>  (1) 
-6.50401

>  <filename>  (1) 
COCC(C)n1nc(Cc2cccnc2)nc1-c1cc(F)cc2ccncc12

$$$$
