
     RDKit          3D

 48 51  0  0  0  0  0  0  0  0999 V2000
    9.0508    6.0377   24.1498 C   0  0  0  0  0  0  0  0  0  0  0  0
    7.9971    5.2130   24.5988 O   0  0  0  0  0  0  0  0  0  0  0  0
    7.7470    4.0578   23.8187 C   0  0  0  0  0  0  0  0  0  0  0  0
    8.6737    2.8813   24.2146 C   0  0  0  0  0  0  0  0  0  0  0  0
    8.3573    2.1946   25.5541 C   0  0  0  0  0  0  0  0  0  0  0  0
    7.3930    1.6741   25.5556 H   0  0  0  0  0  0  0  0  0  0  0  0
    9.1346    1.4570   25.7854 H   0  0  0  0  0  0  0  0  0  0  0  0
    8.3613    2.9404   26.3553 H   0  0  0  0  0  0  0  0  0  0  0  0
    8.7464    1.9247   23.0985 N   0  0  0  0  0  0  0  0  0  0  0  0
    7.6683    1.1823   22.7330 N   0  0  0  0  0  0  0  0  0  0  0  0
    8.1487    0.4136   21.7729 C   0  0  0  0  0  0  0  0  0  0  0  0
    7.3542   -0.5989   20.9985 C   0  0  0  0  0  0  0  0  0  0  0  0
    6.6018   -0.0095   19.8086 C   0  0  0  0  0  0  0  0  0  0  0  0
    5.3896    0.6595   20.0228 C   0  0  0  0  0  0  0  0  0  0  0  0
    4.7848    1.3305   18.9574 C   0  0  0  0  0  0  0  0  0  0  0  0
    5.4070    1.2988   17.7064 C   0  0  0  0  0  0  0  0  0  0  0  0
    6.5356    0.6157   17.4616 N   0  0  0  0  0  0  0  0  0  0  0  0
    7.1034   -0.0235   18.4930 C   0  0  0  0  0  0  0  0  0  0  0  0
    8.0101   -0.5826   18.2566 H   0  0  0  0  0  0  0  0  0  0  0  0
    4.9855    1.8404   16.8605 H   0  0  0  0  0  0  0  0  0  0  0  0
    3.8629    1.8865   19.0841 H   0  0  0  0  0  0  0  0  0  0  0  0
    4.9398    0.6522   21.0180 H   0  0  0  0  0  0  0  0  0  0  0  0
    6.6533   -1.0862   21.6836 H   0  0  0  0  0  0  0  0  0  0  0  0
    8.0697   -1.3633   20.6791 H   0  0  0  0  0  0  0  0  0  0  0  0
    9.4593    0.6067   21.4953 N   0  0  0  0  0  0  0  0  0  0  0  0
    9.8051    1.5857   22.3178 C   0  0  0  0  0  0  0  0  0  0  0  0
   11.1264    2.2304   22.4305 C   0  0  0  0  0  0  0  0  0  0  0  0
   11.2477    3.6166   22.4587 C   0  0  0  0  0  0  0  0  0  0  0  0
   12.5020    4.2157   22.6807 C   0  0  0  0  0  0  0  0  0  0  0  0
   12.5640    5.5561   22.7942 F   0  0  0  0  0  0  0  0  0  0  0  0
   13.6509    3.4800   22.7845 C   0  0  0  0  0  0  0  0  0  0  0  0
   13.5630    2.0531   22.6756 C   0  0  0  0  0  0  0  0  0  0  0  0
   14.7100    1.2036   22.6263 C   0  0  0  0  0  0  0  0  0  0  0  0
   14.6841   -0.1066   22.5405 N   0  0  0  0  0  0  0  0  0  0  0  0
   13.4735   -0.7100   22.4486 C   0  0  0  0  0  0  0  0  0  0  0  0
   12.2873   -0.0269   22.4607 C   0  0  0  0  0  0  0  0  0  0  0  0
   12.2957    1.4041   22.5369 C   0  0  0  0  0  0  0  0  0  0  0  0
   11.3535   -0.5641   22.3747 H   0  0  0  0  0  0  0  0  0  0  0  0
   13.5021   -1.7945   22.3629 H   0  0  0  0  0  0  0  0  0  0  0  0
   15.6866    1.6828   22.5937 H   0  0  0  0  0  0  0  0  0  0  0  0
   14.5929    4.0059   22.9093 H   0  0  0  0  0  0  0  0  0  0  0  0
   10.3991    4.2722   22.2963 H   0  0  0  0  0  0  0  0  0  0  0  0
    9.6686    3.3151   24.3379 H   0  0  0  0  0  0  0  0  0  0  0  0
    7.8757    4.2702   22.7448 H   0  0  0  0  0  0  0  0  0  0  0  0
    6.6929    3.7903   23.9686 H   0  0  0  0  0  0  0  0  0  0  0  0
    8.8218    6.5226   23.1855 H   0  0  0  0  0  0  0  0  0  0  0  0
    9.1781    6.8128   24.9099 H   0  0  0  0  0  0  0  0  0  0  0  0
   10.0088    5.5047   24.0427 H   0  0  0  0  0  0  0  0  0  0  0  0
  1  2  1  0
  2  3  1  0
  3  4  1  0
  4  5  1  0
  5  6  1  0
  5  7  1  0
  5  8  1  0
  4  9  1  0
  9 10  1  0
 10 11  2  0
 11 12  1  0
 12 13  1  0
 13 14  2  0
 14 15  1  0
 15 16  2  0
 16 17  1  0
 17 18  2  0
 18 19  1  0
 16 20  1  0
 15 21  1  0
 14 22  1  0
 12 23  1  0
 12 24  1  0
 11 25  1  0
 25 26  2  0
 26 27  1  0
 27 28  2  0
 28 29  1  0
 29 30  1  0
 29 31  2  0
 31 32  1  0
 32 33  2  0
 33 34  1  0
 34 35  2  0
 35 36  1  0
 36 37  2  0
 36 38  1  0
 35 39  1  0
 33 40  1  0
 31 41  1  0
 28 42  1  0
  4 43  1  0
  3 44  1  0
  3 45  1  0
  1 46  1  0
  1 47  1  0
  1 48  1  0
 26  9  1  0
 37 27  1  0
 18 13  1  0
 37 32  1  0
M  END
>  <cnnaffinity>  (1) 
-6.66322

>  <filename>  (1) 
COCC(C)n1nc(Cc2cccnc2)nc1-c1cc(F)cc2cnccc12

$$$$
