
     RDKit          3D

 38 40  0  0  0  0  0  0  0  0999 V2000
    8.4101   -5.6751   23.0609 C   0  0  0  0  0  0  0  0  0  0  0  0
    7.7985   -4.4404   22.7625 O   0  0  0  0  0  0  0  0  0  0  0  0
    8.6822   -3.5364   22.1195 C   0  0  0  0  0  0  0  0  0  0  0  0
    8.1179   -2.1564   21.9471 C   0  0  0  0  0  0  0  0  0  0  0  0
    7.6723   -1.7762   20.7639 N   0  0  0  0  0  0  0  0  0  0  0  0
    7.2243   -0.5258   20.9860 N   0  0  0  0  0  0  0  0  0  0  0  0
    6.5579    0.1541   19.9380 C   0  0  0  0  0  0  0  0  0  0  0  0
    5.3472    0.8296   20.1114 C   0  0  0  0  0  0  0  0  0  0  0  0
    4.7703    1.4252   18.9849 C   0  0  0  0  0  0  0  0  0  0  0  0
    5.4303    1.3459   17.7553 C   0  0  0  0  0  0  0  0  0  0  0  0
    6.5880    0.6818   17.5863 N   0  0  0  0  0  0  0  0  0  0  0  0
    7.1175    0.0801   18.6517 C   0  0  0  0  0  0  0  0  0  0  0  0
    8.0288   -0.4943   18.4979 H   0  0  0  0  0  0  0  0  0  0  0  0
    4.9983    1.7914   16.8617 H   0  0  0  0  0  0  0  0  0  0  0  0
    3.8167    1.9344   19.0499 H   0  0  0  0  0  0  0  0  0  0  0  0
    4.8625    0.8759   21.0885 H   0  0  0  0  0  0  0  0  0  0  0  0
    7.5207   -0.1746   22.2777 C   0  0  0  0  0  0  0  0  0  0  0  0
    7.1854    1.1781   22.8272 C   0  0  0  0  0  0  0  0  0  0  0  0
    8.1617    1.5766   23.7703 O   0  0  0  0  0  0  0  0  0  0  0  0
    7.9962    2.7243   24.4750 C   0  0  0  0  0  0  0  0  0  0  0  0
    6.9354    3.6243   24.2783 C   0  0  0  0  0  0  0  0  0  0  0  0
    6.8499    4.7928   25.0372 C   0  0  0  0  0  0  0  0  0  0  0  0
    7.8225    5.0815   25.9922 C   0  0  0  0  0  0  0  0  0  0  0  0
    8.8815    4.1908   26.2023 C   0  0  0  0  0  0  0  0  0  0  0  0
    8.9659    3.0082   25.4660 C   0  0  0  0  0  0  0  0  0  0  0  0
   10.2437    1.8675   25.7816 Cl  0  0  0  0  0  0  0  0  0  0  0  0
    9.6395    4.4304   26.9414 H   0  0  0  0  0  0  0  0  0  0  0  0
    7.7566    5.9933   26.5732 H   0  0  0  0  0  0  0  0  0  0  0  0
    6.0144    5.4698   24.8747 H   0  0  0  0  0  0  0  0  0  0  0  0
    6.1731    3.4048   23.5378 H   0  0  0  0  0  0  0  0  0  0  0  0
    6.1990    1.1259   23.3090 H   0  0  0  0  0  0  0  0  0  0  0  0
    7.1408    1.8993   22.0014 H   0  0  0  0  0  0  0  0  0  0  0  0
    8.0771   -1.1903   22.8973 N   0  0  0  0  0  0  0  0  0  0  0  0
    8.8731   -3.8799   21.0929 H   0  0  0  0  0  0  0  0  0  0  0  0
    9.6381   -3.4483   22.6688 H   0  0  0  0  0  0  0  0  0  0  0  0
    8.9010   -6.1082   22.1780 H   0  0  0  0  0  0  0  0  0  0  0  0
    9.1568   -5.5846   23.8648 H   0  0  0  0  0  0  0  0  0  0  0  0
    7.6220   -6.3539   23.3864 H   0  0  0  0  0  0  0  0  0  0  0  0
  1  2  1  0
  2  3  1  0
  3  4  1  0
  4  5  2  0
  5  6  1  0
  6  7  1  0
  7  8  2  0
  8  9  1  0
  9 10  2  0
 10 11  1  0
 11 12  2  0
 12 13  1  0
 10 14  1  0
  9 15  1  0
  8 16  1  0
  6 17  1  0
 17 18  1  0
 18 19  1  0
 19 20  1  0
 20 21  2  0
 21 22  1  0
 22 23  2  0
 23 24  1  0
 24 25  2  0
 25 26  1  0
 24 27  1  0
 23 28  1  0
 22 29  1  0
 21 30  1  0
 18 31  1  0
 18 32  1  0
 17 33  2  0
  3 34  1  0
  3 35  1  0
  1 36  1  0
  1 37  1  0
  1 38  1  0
 33  4  1  0
 12  7  1  0
 25 20  1  0
M  END
>  <cnnaffinity>  (1) 
-5.22243

>  <filename>  (1) 
COCc1nc(COc2ccccc2Cl)n(-c2cccnc2)n1

$$$$
