
     RDKit          3D

 32 33  0  0  0  0  0  0  0  0999 V2000
    4.9342    1.8129   17.0000 H   0  0  0  0  0  0  0  0  0  0  0  0
    5.4148    1.2912   17.8250 C   0  0  0  0  0  0  0  0  0  0  0  0
    6.5598    0.6484   17.5450 N   0  0  0  0  0  0  0  0  0  0  0  0
    7.1812    0.0159   18.5459 C   0  0  0  0  0  0  0  0  0  0  0  0
    8.0978   -0.5119   18.2881 H   0  0  0  0  0  0  0  0  0  0  0  0
    6.7075   -0.0077   19.8716 C   0  0  0  0  0  0  0  0  0  0  0  0
    7.4187   -0.6877   20.9044 N   0  0  0  0  0  0  0  0  0  0  0  0
    8.7833   -0.8275   21.0836 C   0  0  0  0  0  0  0  0  0  0  0  0
    9.5080   -0.4194   20.3917 H   0  0  0  0  0  0  0  0  0  0  0  0
    9.0827   -1.4881   22.1646 N   0  0  0  0  0  0  0  0  0  0  0  0
    7.8654   -1.8047   22.7550 C   0  0  0  0  0  0  0  0  0  0  0  0
    7.6404   -2.5491   24.0549 C   0  0  0  0  0  0  0  0  0  0  0  0
    6.4978   -2.7769   24.4400 O   0  0  0  0  0  0  0  0  0  0  0  0
    8.7418   -2.9279   24.7684 N   0  0  0  0  0  0  0  0  0  0  0  0
    9.6101   -2.8672   24.2544 H   0  0  0  0  0  0  0  0  0  0  0  0
    8.6797   -3.7767   25.9553 C   0  0  0  0  0  0  0  0  0  0  0  0
    9.6985   -3.8750   26.3434 H   0  0  0  0  0  0  0  0  0  0  0  0
    8.0864   -3.2732   26.7326 H   0  0  0  0  0  0  0  0  0  0  0  0
    8.0288   -5.1571   25.7380 C   0  0  0  0  0  0  0  0  0  0  0  0
    7.9884   -5.6723   26.7159 H   0  0  0  0  0  0  0  0  0  0  0  0
    7.0133   -4.9598   25.3951 H   0  0  0  0  0  0  0  0  0  0  0  0
    8.6013   -5.9617   24.7305 O   0  0  0  0  0  0  0  0  0  0  0  0
    9.7566   -6.6785   25.0855 C   0  0  0  0  0  0  0  0  0  0  0  0
   10.5845   -6.0342   25.4128 H   0  0  0  0  0  0  0  0  0  0  0  0
    9.5785   -7.4244   25.8777 H   0  0  0  0  0  0  0  0  0  0  0  0
   10.0618   -7.2147   24.1823 H   0  0  0  0  0  0  0  0  0  0  0  0
    6.8455   -1.3299   21.9781 C   0  0  0  0  0  0  0  0  0  0  0  0
    5.7803   -1.4547   22.0948 H   0  0  0  0  0  0  0  0  0  0  0  0
    5.5011    0.6527   20.1484 C   0  0  0  0  0  0  0  0  0  0  0  0
    5.0981    0.6741   21.1614 H   0  0  0  0  0  0  0  0  0  0  0  0
    4.8455    1.3060   19.1022 C   0  0  0  0  0  0  0  0  0  0  0  0
    3.9081    1.8250   19.2691 H   0  0  0  0  0  0  0  0  0  0  0  0
  1  2  1  0
  2  3  2  0
  3  4  1  0
  4  5  1  0
  4  6  2  0
  6  7  1  0
  7  8  1  0
  8  9  1  0
  8 10  2  0
 10 11  1  0
 11 12  1  0
 12 13  2  0
 12 14  1  0
 14 15  1  0
 14 16  1  0
 16 17  1  0
 16 18  1  0
 16 19  1  0
 19 20  1  0
 19 21  1  0
 19 22  1  0
 22 23  1  0
 23 24  1  0
 23 25  1  0
 23 26  1  0
 11 27  2  0
 27 28  1  0
  6 29  1  0
 29 30  1  0
 29 31  2  0
 31 32  1  0
 31  2  1  0
 27  7  1  0
M  END
>  <cnnaffinity>  (1) 
-4.32273

>  <filename>  (1) 
COCCNC(=O)c1cn(-c2cccnc2)cn1

$$$$
