
     RDKit          3D

 45 48  0  0  0  0  0  0  0  0999 V2000
    6.3823   -7.2012   22.5287 C   0  0  0  0  0  0  0  0  0  0  0  0
    6.0956   -5.8553   22.8166 O   0  0  0  0  0  0  0  0  0  0  0  0
    6.8970   -4.8969   22.1674 C   0  0  0  0  0  0  0  0  0  0  0  0
    8.1401   -4.4802   22.9631 C   0  0  0  0  0  0  0  0  0  0  0  0
    8.9475   -3.4772   22.1296 C   0  0  0  0  0  0  0  0  0  0  0  0
    8.3064   -2.1567   21.9189 C   0  0  0  0  0  0  0  0  0  0  0  0
    7.8937   -1.7941   20.7236 N   0  0  0  0  0  0  0  0  0  0  0  0
    7.3684   -0.5652   20.9355 N   0  0  0  0  0  0  0  0  0  0  0  0
    6.6400    0.0609   19.8975 C   0  0  0  0  0  0  0  0  0  0  0  0
    5.4132    0.6887   20.1405 C   0  0  0  0  0  0  0  0  0  0  0  0
    4.7908    1.3113   19.0572 C   0  0  0  0  0  0  0  0  0  0  0  0
    5.4126    1.2787   17.8041 C   0  0  0  0  0  0  0  0  0  0  0  0
    6.5592    0.6164   17.5595 N   0  0  0  0  0  0  0  0  0  0  0  0
    7.1498    0.0063   18.5881 C   0  0  0  0  0  0  0  0  0  0  0  0
    8.0693   -0.5477   18.3938 H   0  0  0  0  0  0  0  0  0  0  0  0
    4.9863    1.8176   16.9632 H   0  0  0  0  0  0  0  0  0  0  0  0
    3.8539    1.8419   19.1846 H   0  0  0  0  0  0  0  0  0  0  0  0
    4.9827    0.6857   21.1463 H   0  0  0  0  0  0  0  0  0  0  0  0
    7.5296   -0.2388   22.2504 C   0  0  0  0  0  0  0  0  0  0  0  0
    7.1688    1.0785   22.8259 C   0  0  0  0  0  0  0  0  0  0  0  0
    7.5618    2.2781   22.2422 C   0  0  0  0  0  0  0  0  0  0  0  0
    7.2083    3.5079   22.8583 C   0  0  0  0  0  0  0  0  0  0  0  0
    6.5168    3.6070   23.9723 N   0  0  0  0  0  0  0  0  0  0  0  0
    6.1065    2.4392   24.5605 C   0  0  0  0  0  0  0  0  0  0  0  0
    5.3588    2.5508   25.7639 C   0  0  0  0  0  0  0  0  0  0  0  0
    4.8825    1.4385   26.4139 C   0  0  0  0  0  0  0  0  0  0  0  0
    5.1347    0.1429   25.8863 C   0  0  0  0  0  0  0  0  0  0  0  0
    5.8721   -0.0137   24.7338 C   0  0  0  0  0  0  0  0  0  0  0  0
    6.3924    1.1326   24.0365 C   0  0  0  0  0  0  0  0  0  0  0  0
    6.0785   -1.0108   24.3437 H   0  0  0  0  0  0  0  0  0  0  0  0
    4.7479   -0.7307   26.4053 H   0  0  0  0  0  0  0  0  0  0  0  0
    4.3176    1.5370   27.3397 H   0  0  0  0  0  0  0  0  0  0  0  0
    5.2077    3.5653   26.1154 H   0  0  0  0  0  0  0  0  0  0  0  0
    7.5237    4.4462   22.4088 H   0  0  0  0  0  0  0  0  0  0  0  0
    8.1360    2.3068   21.3224 H   0  0  0  0  0  0  0  0  0  0  0  0
    8.1029   -1.2458   22.8932 N   0  0  0  0  0  0  0  0  0  0  0  0
    9.0119   -3.8732   21.1176 H   0  0  0  0  0  0  0  0  0  0  0  0
    9.9525   -3.2938   22.5231 H   0  0  0  0  0  0  0  0  0  0  0  0
    7.8500   -4.0650   23.9386 H   0  0  0  0  0  0  0  0  0  0  0  0
    8.7599   -5.3637   23.1598 H   0  0  0  0  0  0  0  0  0  0  0  0
    7.2091   -5.2356   21.1587 H   0  0  0  0  0  0  0  0  0  0  0  0
    6.2516   -4.0249   22.0149 H   0  0  0  0  0  0  0  0  0  0  0  0
    6.1285   -7.4550   21.4930 H   0  0  0  0  0  0  0  0  0  0  0  0
    5.7518   -7.8103   23.1816 H   0  0  0  0  0  0  0  0  0  0  0  0
    7.4377   -7.4638   22.7092 H   0  0  0  0  0  0  0  0  0  0  0  0
  1  2  1  0
  2  3  1  0
  3  4  1  0
  4  5  1  0
  5  6  1  0
  6  7  2  0
  7  8  1  0
  8  9  1  0
  9 10  2  0
 10 11  1  0
 11 12  2  0
 12 13  1  0
 13 14  2  0
 14 15  1  0
 12 16  1  0
 11 17  1  0
 10 18  1  0
  8 19  1  0
 19 20  1  0
 20 21  2  0
 21 22  1  0
 22 23  2  0
 23 24  1  0
 24 25  2  0
 25 26  1  0
 26 27  2  0
 27 28  1  0
 28 29  2  0
 28 30  1  0
 27 31  1  0
 26 32  1  0
 25 33  1  0
 22 34  1  0
 21 35  1  0
 19 36  2  0
  5 37  1  0
  5 38  1  0
  4 39  1  0
  4 40  1  0
  3 41  1  0
  3 42  1  0
  1 43  1  0
  1 44  1  0
  1 45  1  0
 36  6  1  0
 14  9  1  0
 29 20  1  0
 29 24  1  0
M  END
>  <cnnaffinity>  (1) 
-5.56128

>  <filename>  (1) 
COCCCc1nc(-c2ccnc3ccccc23)n(-c2cccnc2)n1

$$$$
