
     RDKit          3D

 30 31  0  0  0  0  0  0  0  0999 V2000
    4.9733    1.8352   16.9448 H   0  0  0  0  0  0  0  0  0  0  0  0
    5.4263    1.3050   17.7805 C   0  0  0  0  0  0  0  0  0  0  0  0
    6.5802    0.6677   17.5330 N   0  0  0  0  0  0  0  0  0  0  0  0
    7.1455    0.0019   18.5462 C   0  0  0  0  0  0  0  0  0  0  0  0
    8.0860   -0.5024   18.3333 H   0  0  0  0  0  0  0  0  0  0  0  0
    6.6068   -0.0496   19.8379 C   0  0  0  0  0  0  0  0  0  0  0  0
    7.3722   -0.7524   20.8741 C   0  0  0  0  0  0  0  0  0  0  0  0
    8.0492   -1.8436   20.6781 N   0  0  0  0  0  0  0  0  0  0  0  0
    8.5575   -2.1360   21.9165 N   0  0  0  0  0  0  0  0  0  0  0  0
    9.0566   -2.9784   22.1467 H   0  0  0  0  0  0  0  0  0  0  0  0
    8.2414   -1.2508   22.8925 C   0  0  0  0  0  0  0  0  0  0  0  0
    8.5746   -1.3152   24.0691 O   0  0  0  0  0  0  0  0  0  0  0  0
    7.4683   -0.2961   22.1808 N   0  0  0  0  0  0  0  0  0  0  0  0
    6.7901    0.8640   22.6553 N   0  0  0  0  0  0  0  0  0  0  0  0
    7.1965    1.6983   22.2112 H   0  0  0  0  0  0  0  0  0  0  0  0
    6.7837    1.0346   24.0999 C   0  0  0  0  0  0  0  0  0  0  0  0
    5.9089    1.6353   24.3728 H   0  0  0  0  0  0  0  0  0  0  0  0
    6.7059    0.0634   24.6018 H   0  0  0  0  0  0  0  0  0  0  0  0
    8.0212    1.7575   24.5987 C   0  0  0  0  0  0  0  0  0  0  0  0
    8.2189    2.6766   24.0062 H   0  0  0  0  0  0  0  0  0  0  0  0
    8.9013    1.1014   24.4886 H   0  0  0  0  0  0  0  0  0  0  0  0
    7.7289    2.0523   25.9376 O   0  0  0  0  0  0  0  0  0  0  0  0
    8.7701    2.6448   26.6496 C   0  0  0  0  0  0  0  0  0  0  0  0
    9.7051    2.0806   26.5239 H   0  0  0  0  0  0  0  0  0  0  0  0
    8.9611    3.6823   26.3426 H   0  0  0  0  0  0  0  0  0  0  0  0
    8.4473    2.6289   27.6912 H   0  0  0  0  0  0  0  0  0  0  0  0
    5.3925    0.6197   20.0865 C   0  0  0  0  0  0  0  0  0  0  0  0
    4.9459    0.6301   21.0835 H   0  0  0  0  0  0  0  0  0  0  0  0
    4.7984    1.3009   19.0309 C   0  0  0  0  0  0  0  0  0  0  0  0
    3.8700    1.8414   19.1736 H   0  0  0  0  0  0  0  0  0  0  0  0
  1  2  1  0
  2  3  2  0
  3  4  1  0
  4  5  1  0
  4  6  2  0
  6  7  1  0
  7  8  2  0
  8  9  1  0
  9 10  1  0
  9 11  1  0
 11 12  2  0
 11 13  1  0
 13 14  1  0
 14 15  1  0
 14 16  1  0
 16 17  1  0
 16 18  1  0
 16 19  1  0
 19 20  1  0
 19 21  1  0
 19 22  1  0
 22 23  1  0
 23 24  1  0
 23 25  1  0
 23 26  1  0
  6 27  1  0
 27 28  1  0
 27 29  2  0
 29 30  1  0
 29  2  1  0
 13  7  1  0
M  END
>  <cnnaffinity>  (1) 
-4.30755

>  <filename>  (1) 
COCCNn1c(-c2cccnc2)n[nH]c1=O

$$$$
