
     RDKit          3D

 45 46  0  0  0  0  0  0  0  0999 V2000
    5.6378   -5.3298   21.6760 C   0  0  0  0  0  0  0  0  0  0  0  0
    5.5329   -4.3005   20.7209 O   0  0  0  0  0  0  0  0  0  0  0  0
    6.4950   -3.2723   20.8646 C   0  0  0  0  0  0  0  0  0  0  0  0
    6.0712   -2.2277   21.9134 C   0  0  0  0  0  0  0  0  0  0  0  0
    7.1221   -1.2572   22.2208 N   0  0  0  0  0  0  0  0  0  0  0  0
    7.5721   -0.3382   21.2908 C   0  0  0  0  0  0  0  0  0  0  0  0
    8.6723    0.1911   21.3767 O   0  0  0  0  0  0  0  0  0  0  0  0
    6.6999    0.0060   20.1266 C   0  0  0  0  0  0  0  0  0  0  0  0
    5.4139    0.5549   20.2226 C   0  0  0  0  0  0  0  0  0  0  0  0
    4.8294    1.0552   19.0614 C   0  0  0  0  0  0  0  0  0  0  0  0
    5.5329    0.9532   17.8560 C   0  0  0  0  0  0  0  0  0  0  0  0
    6.7458    0.3878   17.7481 N   0  0  0  0  0  0  0  0  0  0  0  0
    7.3125   -0.0513   18.8719 C   0  0  0  0  0  0  0  0  0  0  0  0
    8.3206   -0.4487   18.7729 H   0  0  0  0  0  0  0  0  0  0  0  0
    5.1014    1.3274   16.9335 H   0  0  0  0  0  0  0  0  0  0  0  0
    3.8617    1.5440   19.0751 H   0  0  0  0  0  0  0  0  0  0  0  0
    4.9085    0.6392   21.1882 H   0  0  0  0  0  0  0  0  0  0  0  0
    7.6544   -1.0930   23.5870 C   0  0  0  0  0  0  0  0  0  0  0  0
    6.7887   -0.1000   24.3906 C   0  0  0  0  0  0  0  0  0  0  0  0
    7.1506   -0.1759   25.8723 C   0  0  0  0  0  0  0  0  0  0  0  0
    6.7902   -1.4965   26.4025 N   0  0  0  0  0  0  0  0  0  0  0  0
    6.0440   -1.6976   27.5414 C   0  0  0  0  0  0  0  0  0  0  0  0
    5.5738   -2.7954   27.8039 O   0  0  0  0  0  0  0  0  0  0  0  0
    5.8194   -0.5173   28.4679 C   0  0  0  0  0  0  0  0  0  0  0  0
    6.7529    0.0265   28.6478 H   0  0  0  0  0  0  0  0  0  0  0  0
    5.4163   -0.9025   29.4092 H   0  0  0  0  0  0  0  0  0  0  0  0
    5.0885    0.1679   28.0220 H   0  0  0  0  0  0  0  0  0  0  0  0
    7.0053   -2.6827   25.5456 C   0  0  0  0  0  0  0  0  0  0  0  0
    7.9479   -2.3930   24.3758 C   0  0  0  0  0  0  0  0  0  0  0  0
    7.9760   -3.2652   23.7119 H   0  0  0  0  0  0  0  0  0  0  0  0
    8.9554   -2.2947   24.8031 H   0  0  0  0  0  0  0  0  0  0  0  0
    7.4388   -3.4716   26.1699 H   0  0  0  0  0  0  0  0  0  0  0  0
    6.0337   -3.0644   25.1998 H   0  0  0  0  0  0  0  0  0  0  0  0
    8.2292    0.0241   25.9939 H   0  0  0  0  0  0  0  0  0  0  0  0
    6.6241    0.6095   26.4183 H   0  0  0  0  0  0  0  0  0  0  0  0
    5.7242   -0.3298   24.2521 H   0  0  0  0  0  0  0  0  0  0  0  0
    6.9650    0.9140   24.0190 H   0  0  0  0  0  0  0  0  0  0  0  0
    8.6267   -0.6155   23.4457 H   0  0  0  0  0  0  0  0  0  0  0  0
    5.7483   -2.7136   22.8422 H   0  0  0  0  0  0  0  0  0  0  0  0
    5.1954   -1.7176   21.4996 H   0  0  0  0  0  0  0  0  0  0  0  0
    7.4915   -3.6811   21.1017 H   0  0  0  0  0  0  0  0  0  0  0  0
    6.5658   -2.7765   19.8915 H   0  0  0  0  0  0  0  0  0  0  0  0
    6.6020   -5.8605   21.6126 H   0  0  0  0  0  0  0  0  0  0  0  0
    5.5191   -4.9688   22.7098 H   0  0  0  0  0  0  0  0  0  0  0  0
    4.8362   -6.0393   21.4657 H   0  0  0  0  0  0  0  0  0  0  0  0
  1  2  1  0
  2  3  1  0
  3  4  1  0
  4  5  1  0
  5  6  1  0
  6  7  2  0
  6  8  1  0
  8  9  2  0
  9 10  1  0
 10 11  2  0
 11 12  1  0
 12 13  2  0
 13 14  1  0
 11 15  1  0
 10 16  1  0
  9 17  1  0
  5 18  1  0
 18 19  1  0
 19 20  1  0
 20 21  1  0
 21 22  1  0
 22 23  2  0
 22 24  1  0
 24 25  1  0
 24 26  1  0
 24 27  1  0
 21 28  1  0
 28 29  1  0
 29 30  1  0
 29 31  1  0
 28 32  1  0
 28 33  1  0
 20 34  1  0
 20 35  1  0
 19 36  1  0
 19 37  1  0
 18 38  1  0
  4 39  1  0
  4 40  1  0
  3 41  1  0
  3 42  1  0
  1 43  1  0
  1 44  1  0
  1 45  1  0
 13  8  1  0
 29 18  1  0
M  END
>  <cnnaffinity>  (1) 
-4.41885

>  <filename>  (1) 
COCCN(C(=O)c1cccnc1)C1CCN(C(C)=O)CC1

$$$$
