
     RDKit          3D

 39 40  0  0  0  0  0  0  0  0999 V2000
    5.9240   -4.7800   21.9028 C   0  0  0  0  0  0  0  0  0  0  0  0
    5.9285   -4.0072   20.7257 O   0  0  0  0  0  0  0  0  0  0  0  0
    5.8733   -2.6110   20.9516 C   0  0  0  0  0  0  0  0  0  0  0  0
    7.2460   -1.9790   21.2138 C   0  0  0  0  0  0  0  0  0  0  0  0
    7.2476   -0.4400   21.1994 C   0  0  0  0  0  0  0  0  0  0  0  0
    8.6406    0.0096   21.2129 N   0  0  0  0  0  0  0  0  0  0  0  0
    8.9266    1.2096   21.8266 C   0  0  0  0  0  0  0  0  0  0  0  0
    8.1041    1.9398   22.3359 O   0  0  0  0  0  0  0  0  0  0  0  0
   10.2904    1.4366   21.7589 N   0  0  0  0  0  0  0  0  0  0  0  0
   10.9047    2.5737   22.2610 C   0  0  0  0  0  0  0  0  0  0  0  0
   11.9979    3.1268   21.6000 C   0  0  0  0  0  0  0  0  0  0  0  0
   12.5924    4.2541   22.1580 C   0  0  0  0  0  0  0  0  0  0  0  0
   12.1878    4.8349   23.2944 N   0  0  0  0  0  0  0  0  0  0  0  0
   11.1347    4.2756   23.9114 C   0  0  0  0  0  0  0  0  0  0  0  0
   10.4621    3.1541   23.4482 C   0  0  0  0  0  0  0  0  0  0  0  0
    9.6146    2.7365   23.9697 H   0  0  0  0  0  0  0  0  0  0  0  0
   10.8017    4.7500   24.8342 H   0  0  0  0  0  0  0  0  0  0  0  0
   13.4509    4.7120   21.6666 H   0  0  0  0  0  0  0  0  0  0  0  0
   12.3630    2.6998   20.6775 H   0  0  0  0  0  0  0  0  0  0  0  0
   10.7038    1.0291   20.9378 H   0  0  0  0  0  0  0  0  0  0  0  0
    9.3581   -0.6791   21.3830 H   0  0  0  0  0  0  0  0  0  0  0  0
    6.5430    0.2155   20.0150 C   0  0  0  0  0  0  0  0  0  0  0  0
    5.3070    0.8769   20.1303 C   0  0  0  0  0  0  0  0  0  0  0  0
    4.7224    1.4231   18.9842 C   0  0  0  0  0  0  0  0  0  0  0  0
    5.3907    1.2923   17.7626 C   0  0  0  0  0  0  0  0  0  0  0  0
    6.5745    0.6786   17.6250 N   0  0  0  0  0  0  0  0  0  0  0  0
    7.1322    0.1826   18.7384 C   0  0  0  0  0  0  0  0  0  0  0  0
    8.1274   -0.2442   18.6175 H   0  0  0  0  0  0  0  0  0  0  0  0
    4.9594    1.7101   16.8563 H   0  0  0  0  0  0  0  0  0  0  0  0
    3.7838    1.9652   19.0304 H   0  0  0  0  0  0  0  0  0  0  0  0
    4.8162    0.9834   21.1024 H   0  0  0  0  0  0  0  0  0  0  0  0
    6.7283   -0.0906   22.1107 H   0  0  0  0  0  0  0  0  0  0  0  0
    7.9469   -2.3436   20.4628 H   0  0  0  0  0  0  0  0  0  0  0  0
    7.6362   -2.3109   22.1883 H   0  0  0  0  0  0  0  0  0  0  0  0
    5.1886   -2.3888   21.7878 H   0  0  0  0  0  0  0  0  0  0  0  0
    5.4470   -2.1696   20.0447 H   0  0  0  0  0  0  0  0  0  0  0  0
    6.7944   -4.5604   22.5407 H   0  0  0  0  0  0  0  0  0  0  0  0
    5.0069   -4.5984   22.4878 H   0  0  0  0  0  0  0  0  0  0  0  0
    5.9571   -5.8348   21.6109 H   0  0  0  0  0  0  0  0  0  0  0  0
  1  2  1  0
  2  3  1  0
  3  4  1  0
  4  5  1  0
  5  6  1  0
  6  7  1  0
  7  8  2  0
  7  9  1  0
  9 10  1  0
 10 11  2  0
 11 12  1  0
 12 13  2  0
 13 14  1  0
 14 15  2  0
 15 16  1  0
 14 17  1  0
 12 18  1  0
 11 19  1  0
  9 20  1  0
  6 21  1  0
  5 22  1  0
 22 23  2  0
 23 24  1  0
 24 25  2  0
 25 26  1  0
 26 27  2  0
 27 28  1  0
 25 29  1  0
 24 30  1  0
 23 31  1  0
  5 32  1  0
  4 33  1  0
  4 34  1  0
  3 35  1  0
  3 36  1  0
  1 37  1  0
  1 38  1  0
  1 39  1  0
 15 10  1  0
 27 22  1  0
M  END
>  <cnnaffinity>  (1) 
-5.19491

>  <filename>  (1) 
COCCC(NC(=O)Nc1ccncc1)c1cccnc1

$$$$
