
     RDKit          3D

 33 34  0  0  0  0  0  0  0  0999 V2000
    4.9233    1.7997   16.9830 H   0  0  0  0  0  0  0  0  0  0  0  0
    5.3856    1.2975   17.8305 C   0  0  0  0  0  0  0  0  0  0  0  0
    6.5438    0.6690   17.5707 N   0  0  0  0  0  0  0  0  0  0  0  0
    7.1511    0.0494   18.5867 C   0  0  0  0  0  0  0  0  0  0  0  0
    8.1147   -0.4131   18.3861 H   0  0  0  0  0  0  0  0  0  0  0  0
    6.6318   -0.0076   19.8950 C   0  0  0  0  0  0  0  0  0  0  0  0
    7.3699   -0.6809   20.9045 N   0  0  0  0  0  0  0  0  0  0  0  0
    8.7755   -0.6502   21.1249 C   0  0  0  0  0  0  0  0  0  0  0  0
    9.5847   -0.0384   20.4466 O   0  0  0  0  0  0  0  0  0  0  0  0
    8.9482   -1.4875   22.2978 C   0  0  0  0  0  0  0  0  0  0  0  0
    9.9422   -1.6319   22.6922 H   0  0  0  0  0  0  0  0  0  0  0  0
    7.7257   -1.9436   22.7204 C   0  0  0  0  0  0  0  0  0  0  0  0
    7.3185   -2.8414   23.8895 C   0  0  0  0  0  0  0  0  0  0  0  0
    6.1569   -3.0887   24.1913 O   0  0  0  0  0  0  0  0  0  0  0  0
    8.3624   -3.3556   24.5885 N   0  0  0  0  0  0  0  0  0  0  0  0
    9.2900   -3.1326   24.2785 H   0  0  0  0  0  0  0  0  0  0  0  0
    8.1526   -4.1135   25.8066 C   0  0  0  0  0  0  0  0  0  0  0  0
    7.3665   -4.8659   25.6521 H   0  0  0  0  0  0  0  0  0  0  0  0
    9.0688   -4.6364   26.0962 H   0  0  0  0  0  0  0  0  0  0  0  0
    7.7060   -3.2621   26.9946 C   0  0  0  0  0  0  0  0  0  0  0  0
    8.4794   -2.5299   27.2671 H   0  0  0  0  0  0  0  0  0  0  0  0
    6.7990   -2.6880   26.7374 H   0  0  0  0  0  0  0  0  0  0  0  0
    7.5017   -4.1555   28.0714 O   0  0  0  0  0  0  0  0  0  0  0  0
    6.1460   -4.4434   28.3300 C   0  0  0  0  0  0  0  0  0  0  0  0
    5.5771   -3.5219   28.5223 H   0  0  0  0  0  0  0  0  0  0  0  0
    6.1309   -5.0610   29.2275 H   0  0  0  0  0  0  0  0  0  0  0  0
    5.6600   -4.9750   27.4958 H   0  0  0  0  0  0  0  0  0  0  0  0
    6.7745   -1.4267   21.8879 N   0  0  0  0  0  0  0  0  0  0  0  0
    5.7706   -1.5521   21.9236 H   0  0  0  0  0  0  0  0  0  0  0  0
    5.4195    0.6469   20.1560 C   0  0  0  0  0  0  0  0  0  0  0  0
    5.0106    0.6486   21.1644 H   0  0  0  0  0  0  0  0  0  0  0  0
    4.7948    1.3144   19.0999 C   0  0  0  0  0  0  0  0  0  0  0  0
    3.8671    1.8519   19.2479 H   0  0  0  0  0  0  0  0  0  0  0  0
  1  2  1  0
  2  3  2  0
  3  4  1  0
  4  5  1  0
  4  6  2  0
  6  7  1  0
  7  8  1  0
  8  9  2  0
  8 10  1  0
 10 11  1  0
 10 12  2  0
 12 13  1  0
 13 14  2  0
 13 15  1  0
 15 16  1  0
 15 17  1  0
 17 18  1  0
 17 19  1  0
 17 20  1  0
 20 21  1  0
 20 22  1  0
 20 23  1  0
 23 24  1  0
 24 25  1  0
 24 26  1  0
 24 27  1  0
 12 28  1  0
 28 29  1  0
  6 30  1  0
 30 31  1  0
 30 32  2  0
 32 33  1  0
 32  2  1  0
 28  7  1  0
M  END
>  <cnnaffinity>  (1) 
-4.67887

>  <filename>  (1) 
COCCNC(=O)c1cc(=O)n(-c2cccnc2)[nH]1

$$$$
