
     RDKit          3D

 42 45  0  0  0  0  0  0  0  0999 V2000
   13.4778   -1.7129   21.6051 C   0  0  0  0  0  0  0  0  0  0  0  0
   12.2295   -2.0937   22.1277 O   0  0  0  0  0  0  0  0  0  0  0  0
   11.1620   -1.1782   22.0079 C   0  0  0  0  0  0  0  0  0  0  0  0
    9.9241   -2.0417   22.2223 C   0  0  0  0  0  0  0  0  0  0  0  0
    8.6693   -1.3430   21.9734 N   0  0  0  0  0  0  0  0  0  0  0  0
    8.4116   -0.8683   20.7387 N   0  0  0  0  0  0  0  0  0  0  0  0
    7.1519   -0.4621   20.8292 C   0  0  0  0  0  0  0  0  0  0  0  0
    6.4546    0.1393   19.7009 C   0  0  0  0  0  0  0  0  0  0  0  0
    5.2237    0.8110   19.7877 C   0  0  0  0  0  0  0  0  0  0  0  0
    4.7564    1.4411   18.6345 C   0  0  0  0  0  0  0  0  0  0  0  0
    5.5010    1.3450   17.4525 C   0  0  0  0  0  0  0  0  0  0  0  0
    6.6452    0.6553   17.3510 N   0  0  0  0  0  0  0  0  0  0  0  0
    7.1027    0.0716   18.4601 C   0  0  0  0  0  0  0  0  0  0  0  0
    8.0366   -0.4775   18.3756 H   0  0  0  0  0  0  0  0  0  0  0  0
    5.1539    1.8302   16.5432 H   0  0  0  0  0  0  0  0  0  0  0  0
    3.8317    2.0068   18.6310 H   0  0  0  0  0  0  0  0  0  0  0  0
    4.6567    0.8393   20.7227 H   0  0  0  0  0  0  0  0  0  0  0  0
    6.5814   -0.6670   22.0359 N   0  0  0  0  0  0  0  0  0  0  0  0
    7.5616   -1.1951   22.7455 C   0  0  0  0  0  0  0  0  0  0  0  0
    7.5588   -1.6043   24.1607 C   0  0  0  0  0  0  0  0  0  0  0  0
    6.6913   -2.5933   24.5868 C   0  0  0  0  0  0  0  0  0  0  0  0
    6.7886   -3.1237   25.8926 C   0  0  0  0  0  0  0  0  0  0  0  0
    7.7595   -2.6654   26.7587 C   0  0  0  0  0  0  0  0  0  0  0  0
    8.6283   -1.6046   26.3842 C   0  0  0  0  0  0  0  0  0  0  0  0
    9.6340   -1.0655   27.2345 C   0  0  0  0  0  0  0  0  0  0  0  0
   10.4589   -0.0730   26.7721 C   0  0  0  0  0  0  0  0  0  0  0  0
   10.3725    0.4891   25.5465 N   0  0  0  0  0  0  0  0  0  0  0  0
    9.4070    0.0412   24.7622 C   0  0  0  0  0  0  0  0  0  0  0  0
    8.5190   -1.0421   25.0745 C   0  0  0  0  0  0  0  0  0  0  0  0
    9.3053    0.5449   23.8073 H   0  0  0  0  0  0  0  0  0  0  0  0
   11.2530    0.3151   27.3992 H   0  0  0  0  0  0  0  0  0  0  0  0
    9.7731   -1.4242   28.2448 H   0  0  0  0  0  0  0  0  0  0  0  0
    7.8942   -3.1270   27.7299 H   0  0  0  0  0  0  0  0  0  0  0  0
    6.0859   -3.8908   26.2055 H   0  0  0  0  0  0  0  0  0  0  0  0
    5.9704   -3.0009   23.8827 H   0  0  0  0  0  0  0  0  0  0  0  0
    9.9820   -2.8871   21.5370 H   0  0  0  0  0  0  0  0  0  0  0  0
    9.9328   -2.4265   23.2421 H   0  0  0  0  0  0  0  0  0  0  0  0
   11.1042   -0.7054   21.0151 H   0  0  0  0  0  0  0  0  0  0  0  0
   11.2539   -0.3815   22.7662 H   0  0  0  0  0  0  0  0  0  0  0  0
   14.1722   -2.5130   21.8778 H   0  0  0  0  0  0  0  0  0  0  0  0
   13.8451   -0.7651   22.0288 H   0  0  0  0  0  0  0  0  0  0  0  0
   13.4602   -1.6280   20.5072 H   0  0  0  0  0  0  0  0  0  0  0  0
  1  2  1  0
  2  3  1  0
  3  4  1  0
  4  5  1  0
  5  6  1  0
  6  7  2  0
  7  8  1  0
  8  9  2  0
  9 10  1  0
 10 11  2  0
 11 12  1  0
 12 13  2  0
 13 14  1  0
 11 15  1  0
 10 16  1  0
  9 17  1  0
  7 18  1  0
 18 19  2  0
 19 20  1  0
 20 21  2  0
 21 22  1  0
 22 23  2  0
 23 24  1  0
 24 25  2  0
 25 26  1  0
 26 27  2  0
 27 28  1  0
 28 29  2  0
 28 30  1  0
 26 31  1  0
 25 32  1  0
 23 33  1  0
 22 34  1  0
 21 35  1  0
  4 36  1  0
  4 37  1  0
  3 38  1  0
  3 39  1  0
  1 40  1  0
  1 41  1  0
  1 42  1  0
 19  5  1  0
 29 20  1  0
 13  8  1  0
 29 24  1  0
M  END
>  <cnnaffinity>  (1) 
-5.94746

>  <filename>  (1) 
COCCn1nc(-c2cccnc2)nc1-c1cccc2ccncc12

$$$$
