
     RDKit          3D

 42 43  0  0  0  0  0  0  0  0999 V2000
    1.2860   -0.1604   28.7980 C   0  0  0  0  0  0  0  0  0  0  0  0
    2.3528    0.1313   27.9293 O   0  0  0  0  0  0  0  0  0  0  0  0
    3.6019   -0.3683   28.3451 C   0  0  0  0  0  0  0  0  0  0  0  0
    4.6443    0.0160   27.2998 C   0  0  0  0  0  0  0  0  0  0  0  0
    6.0333   -0.5192   27.6816 C   0  0  0  0  0  0  0  0  0  0  0  0
    7.2245    0.0333   26.9032 C   0  0  0  0  0  0  0  0  0  0  0  0
    7.2981   -0.5106   25.5298 N   0  0  0  0  0  4  0  0  0  0  0  0
    8.4706   -0.0951   24.7101 C   0  0  0  0  0  0  0  0  0  0  0  0
    8.2196   -0.6492   23.3362 C   0  0  0  0  0  0  0  0  0  0  0  0
    8.5926   -1.9720   23.0653 C   0  0  0  0  0  0  0  0  0  0  0  0
    8.2902   -2.6082   21.9267 N   0  0  0  0  0  0  0  0  0  0  0  0
    7.6327   -1.9136   20.9896 C   0  0  0  0  0  0  0  0  0  0  0  0
    7.2690   -0.5589   21.1004 C   0  0  0  0  0  0  0  0  0  0  0  0
    6.5906    0.1385   19.9556 C   0  0  0  0  0  0  0  0  0  0  0  0
    5.3619    0.7900   20.1286 C   0  0  0  0  0  0  0  0  0  0  0  0
    4.7479    1.3911   19.0266 C   0  0  0  0  0  0  0  0  0  0  0  0
    5.3866    1.3540   17.7864 C   0  0  0  0  0  0  0  0  0  0  0  0
    6.5671    0.7439   17.5919 N   0  0  0  0  0  0  0  0  0  0  0  0
    7.1349    0.1560   18.6518 C   0  0  0  0  0  0  0  0  0  0  0  0
    8.0888   -0.3378   18.4569 H   0  0  0  0  0  0  0  0  0  0  0  0
    4.9287    1.8163   16.9110 H   0  0  0  0  0  0  0  0  0  0  0  0
    3.7906    1.8858   19.1168 H   0  0  0  0  0  0  0  0  0  0  0  0
    4.8945    0.8067   21.1125 H   0  0  0  0  0  0  0  0  0  0  0  0
    7.5324    0.0582   22.3347 C   0  0  0  0  0  0  0  0  0  0  0  0
    7.1690    1.0684   22.5220 H   0  0  0  0  0  0  0  0  0  0  0  0
    7.3289   -2.4545   20.1003 H   0  0  0  0  0  0  0  0  0  0  0  0
    9.1595   -2.5521   23.7954 H   0  0  0  0  0  0  0  0  0  0  0  0
    9.3977   -0.5010   25.1364 H   0  0  0  0  0  0  0  0  0  0  0  0
    8.5673    0.9982   24.7146 H   0  0  0  0  0  0  0  0  0  0  0  0
    7.2928   -1.5609   25.5612 H   0  0  0  0  0  0  0  0  0  0  0  0
    6.4417   -0.2336   24.9806 H   0  0  0  0  0  0  0  0  0  0  0  0
    7.1648    1.1339   26.8702 H   0  0  0  0  0  0  0  0  0  0  0  0
    8.1459   -0.2022   27.4568 H   0  0  0  0  0  0  0  0  0  0  0  0
    6.0396   -1.6200   27.6278 H   0  0  0  0  0  0  0  0  0  0  0  0
    6.2102   -0.2641   28.7368 H   0  0  0  0  0  0  0  0  0  0  0  0
    4.3103   -0.3695   26.3247 H   0  0  0  0  0  0  0  0  0  0  0  0
    4.6655    1.1139   27.2214 H   0  0  0  0  0  0  0  0  0  0  0  0
    3.5701   -1.4683   28.4630 H   0  0  0  0  0  0  0  0  0  0  0  0
    3.8870    0.0488   29.3300 H   0  0  0  0  0  0  0  0  0  0  0  0
    1.4351    0.2733   29.7994 H   0  0  0  0  0  0  0  0  0  0  0  0
    1.1319   -1.2447   28.9146 H   0  0  0  0  0  0  0  0  0  0  0  0
    0.3842    0.2760   28.3591 H   0  0  0  0  0  0  0  0  0  0  0  0
  1  2  1  0
  2  3  1  0
  3  4  1  0
  4  5  1  0
  5  6  1  0
  6  7  1  0
  7  8  1  0
  8  9  1  0
  9 10  2  0
 10 11  1  0
 11 12  2  0
 12 13  1  0
 13 14  1  0
 14 15  2  0
 15 16  1  0
 16 17  2  0
 17 18  1  0
 18 19  2  0
 19 20  1  0
 17 21  1  0
 16 22  1  0
 15 23  1  0
 13 24  2  0
 24 25  1  0
 12 26  1  0
 10 27  1  0
  8 28  1  0
  8 29  1  0
  7 30  1  0
  7 31  1  0
  6 32  1  0
  6 33  1  0
  5 34  1  0
  5 35  1  0
  4 36  1  0
  4 37  1  0
  3 38  1  0
  3 39  1  0
  1 40  1  0
  1 41  1  0
  1 42  1  0
 24  9  1  0
 19 14  1  0
M  CHG  1   7   1
M  END
>  <cnnaffinity>  (1) 
-4.72059

>  <filename>  (1) 
COCCCC[NH2+]Cc1cncc(-c2cccnc2)c1

$$$$
