
     RDKit          3D

 37 39  0  0  0  0  0  0  0  0999 V2000
    7.4996   -5.4217   23.8894 C   0  0  0  0  0  0  0  0  0  0  0  0
    7.7024   -4.3889   22.9555 O   0  0  0  0  0  0  0  0  0  0  0  0
    7.4423   -3.1109   23.5085 C   0  0  0  0  0  0  0  0  0  0  0  0
    7.6481   -2.0349   22.4951 C   0  0  0  0  0  0  0  0  0  0  0  0
    6.6834   -1.6003   21.7078 N   0  0  0  0  0  0  0  0  0  0  0  0
    7.3148   -0.6926   20.9276 N   0  0  0  0  0  0  0  0  0  0  0  0
    6.6382   -0.0012   19.8939 C   0  0  0  0  0  0  0  0  0  0  0  0
    5.4299    0.6437   20.1634 C   0  0  0  0  0  0  0  0  0  0  0  0
    4.8105    1.3146   19.1074 C   0  0  0  0  0  0  0  0  0  0  0  0
    5.3966    1.2977   17.8357 C   0  0  0  0  0  0  0  0  0  0  0  0
    6.5523    0.6690   17.5711 N   0  0  0  0  0  0  0  0  0  0  0  0
    7.1587    0.0462   18.5865 C   0  0  0  0  0  0  0  0  0  0  0  0
    8.1092   -0.4316   18.3585 H   0  0  0  0  0  0  0  0  0  0  0  0
    4.9234    1.7894   16.9913 H   0  0  0  0  0  0  0  0  0  0  0  0
    3.8805    1.8420   19.2578 H   0  0  0  0  0  0  0  0  0  0  0  0
    5.0161    0.6011   21.1748 H   0  0  0  0  0  0  0  0  0  0  0  0
    8.6064   -0.5733   21.3538 C   0  0  0  0  0  0  0  0  0  0  0  0
    9.6290    0.3360   20.7842 C   0  0  0  0  0  0  0  0  0  0  0  0
   10.3353    1.1387   21.8561 C   0  0  0  0  0  0  0  0  0  0  0  0
    9.7253    2.2335   22.4854 C   0  0  0  0  0  0  0  0  0  0  0  0
    8.1521    2.7554   21.9611 Cl  0  0  0  0  0  0  0  0  0  0  0  0
   10.3198    2.9101   23.5516 C   0  0  0  0  0  0  0  0  0  0  0  0
   11.5619    2.4753   24.0130 C   0  0  0  0  0  0  0  0  0  0  0  0
   12.2016    1.3761   23.4377 C   0  0  0  0  0  0  0  0  0  0  0  0
   11.5698    0.7361   22.3778 C   0  0  0  0  0  0  0  0  0  0  0  0
   12.1679   -0.3408   21.8397 F   0  0  0  0  0  0  0  0  0  0  0  0
   13.1641    1.0012   23.7698 H   0  0  0  0  0  0  0  0  0  0  0  0
   12.0277    3.0045   24.8295 H   0  0  0  0  0  0  0  0  0  0  0  0
    9.8078    3.7579   23.9925 H   0  0  0  0  0  0  0  0  0  0  0  0
   10.3226   -0.3413   20.2830 H   0  0  0  0  0  0  0  0  0  0  0  0
    9.1645    1.0197   20.0730 H   0  0  0  0  0  0  0  0  0  0  0  0
    8.8470   -1.4297   22.3199 N   0  0  0  0  0  0  0  0  0  0  0  0
    6.4045   -3.0344   23.8675 H   0  0  0  0  0  0  0  0  0  0  0  0
    8.1151   -2.9002   24.3566 H   0  0  0  0  0  0  0  0  0  0  0  0
    6.4577   -5.4388   24.2497 H   0  0  0  0  0  0  0  0  0  0  0  0
    8.1669   -5.3211   24.7617 H   0  0  0  0  0  0  0  0  0  0  0  0
    7.7202   -6.3546   23.3705 H   0  0  0  0  0  0  0  0  0  0  0  0
  1  2  1  0
  2  3  1  0
  3  4  1  0
  4  5  2  0
  5  6  1  0
  6  7  1  0
  7  8  2  0
  8  9  1  0
  9 10  2  0
 10 11  1  0
 11 12  2  0
 12 13  1  0
 10 14  1  0
  9 15  1  0
  8 16  1  0
  6 17  1  0
 17 18  1  0
 18 19  1  0
 19 20  2  0
 20 21  1  0
 20 22  1  0
 22 23  2  0
 23 24  1  0
 24 25  2  0
 25 26  1  0
 24 27  1  0
 23 28  1  0
 22 29  1  0
 18 30  1  0
 18 31  1  0
 17 32  2  0
  3 33  1  0
  3 34  1  0
  1 35  1  0
  1 36  1  0
  1 37  1  0
 32  4  1  0
 12  7  1  0
 25 19  1  0
M  END
>  <cnnaffinity>  (1) 
-6.13867

>  <filename>  (1) 
COCc1nc(Cc2c(F)cccc2Cl)n(-c2cccnc2)n1

$$$$
