
     RDKit          3D

 42 45  0  0  0  0  0  0  0  0999 V2000
   12.1986    0.4289   22.5286 C   0  0  0  0  0  0  0  0  0  0  0  0
   11.2074   -0.4226   22.0083 O   0  0  0  0  0  0  0  0  0  0  0  0
   11.0364   -1.6489   22.6775 C   0  0  0  0  0  0  0  0  0  0  0  0
    9.9570   -2.4096   21.9111 C   0  0  0  0  0  0  0  0  0  0  0  0
    8.6866   -1.6558   21.7195 C   0  0  0  0  0  0  0  0  0  0  0  0
    8.3022   -1.1800   20.5632 N   0  0  0  0  0  0  0  0  0  0  0  0
    7.1129   -0.5795   20.8327 C   0  0  0  0  0  0  0  0  0  0  0  0
    6.3934    0.1143   19.7615 C   0  0  0  0  0  0  0  0  0  0  0  0
    5.1907    0.8233   19.9135 C   0  0  0  0  0  0  0  0  0  0  0  0
    4.6806    1.4766   18.7912 C   0  0  0  0  0  0  0  0  0  0  0  0
    5.3750    1.3997   17.5759 C   0  0  0  0  0  0  0  0  0  0  0  0
    6.5090    0.7032   17.4176 N   0  0  0  0  0  0  0  0  0  0  0  0
    6.9962    0.0840   18.4936 C   0  0  0  0  0  0  0  0  0  0  0  0
    7.9157   -0.4745   18.3568 H   0  0  0  0  0  0  0  0  0  0  0  0
    5.0057    1.9112   16.6893 H   0  0  0  0  0  0  0  0  0  0  0  0
    3.7660    2.0556   18.8344 H   0  0  0  0  0  0  0  0  0  0  0  0
    4.6760    0.8575   20.8782 H   0  0  0  0  0  0  0  0  0  0  0  0
    6.7414   -0.6518   22.0907 N   0  0  0  0  0  0  0  0  0  0  0  0
    7.7416   -1.3814   22.6663 N   0  0  0  0  0  0  0  0  0  0  0  0
    7.7708   -1.6338   24.0812 C   0  0  0  0  0  0  0  0  0  0  0  0
    7.9809   -0.5741   24.9386 C   0  0  0  0  0  0  0  0  0  0  0  0
    8.1770   -0.7906   26.3261 C   0  0  0  0  0  0  0  0  0  0  0  0
    8.0819   -2.0580   26.8496 C   0  0  0  0  0  0  0  0  0  0  0  0
    7.7404   -3.1614   26.0185 C   0  0  0  0  0  0  0  0  0  0  0  0
    7.4904   -4.4685   26.5287 C   0  0  0  0  0  0  0  0  0  0  0  0
    7.1340   -5.4754   25.6690 C   0  0  0  0  0  0  0  0  0  0  0  0
    7.0029   -5.3113   24.3274 N   0  0  0  0  0  0  0  0  0  0  0  0
    7.2204   -4.1071   23.8319 C   0  0  0  0  0  0  0  0  0  0  0  0
    7.5972   -2.9640   24.6071 C   0  0  0  0  0  0  0  0  0  0  0  0
    7.0817   -4.0063   22.7562 H   0  0  0  0  0  0  0  0  0  0  0  0
    6.9282   -6.4805   26.0407 H   0  0  0  0  0  0  0  0  0  0  0  0
    7.5513   -4.6632   27.5938 H   0  0  0  0  0  0  0  0  0  0  0  0
    8.2429   -2.2253   27.9075 H   0  0  0  0  0  0  0  0  0  0  0  0
    8.3962    0.0561   26.9759 H   0  0  0  0  0  0  0  0  0  0  0  0
    7.9627    0.4341   24.5402 H   0  0  0  0  0  0  0  0  0  0  0  0
   10.3237   -2.5980   20.8983 H   0  0  0  0  0  0  0  0  0  0  0  0
    9.7619   -3.3625   22.4117 H   0  0  0  0  0  0  0  0  0  0  0  0
   10.7465   -1.5169   23.7389 H   0  0  0  0  0  0  0  0  0  0  0  0
   11.9747   -2.2343   22.6404 H   0  0  0  0  0  0  0  0  0  0  0  0
   12.3398    1.2290   21.7944 H   0  0  0  0  0  0  0  0  0  0  0  0
   11.9120    0.8718   23.4978 H   0  0  0  0  0  0  0  0  0  0  0  0
   13.1569   -0.0958   22.6579 H   0  0  0  0  0  0  0  0  0  0  0  0
  1  2  1  0
  2  3  1  0
  3  4  1  0
  4  5  1  0
  5  6  2  0
  6  7  1  0
  7  8  1  0
  8  9  2  0
  9 10  1  0
 10 11  2  0
 11 12  1  0
 12 13  2  0
 13 14  1  0
 11 15  1  0
 10 16  1  0
  9 17  1  0
  7 18  2  0
 18 19  1  0
 19 20  1  0
 20 21  2  0
 21 22  1  0
 22 23  2  0
 23 24  1  0
 24 25  2  0
 25 26  1  0
 26 27  2  0
 27 28  1  0
 28 29  2  0
 28 30  1  0
 26 31  1  0
 25 32  1  0
 23 33  1  0
 22 34  1  0
 21 35  1  0
  4 36  1  0
  4 37  1  0
  3 38  1  0
  3 39  1  0
  1 40  1  0
  1 41  1  0
  1 42  1  0
 19  5  1  0
 29 20  1  0
 13  8  1  0
 29 24  1  0
M  END
>  <cnnaffinity>  (1) 
-6.05094

>  <filename>  (1) 
COCCc1nc(-c2cccnc2)nn1-c1cccc2ccncc12

$$$$
