
     RDKit          3D

 41 43  0  0  0  0  0  0  0  0999 V2000
    8.2839   -5.6198   23.4202 C   0  0  0  0  0  0  0  0  0  0  0  0
    7.8165   -4.3250   23.1076 O   0  0  0  0  0  0  0  0  0  0  0  0
    8.7103   -3.5894   22.2868 C   0  0  0  0  0  0  0  0  0  0  0  0
    8.2561   -2.1931   21.9771 C   0  0  0  0  0  0  0  0  0  0  0  0
    7.6875   -1.9059   20.8220 N   0  0  0  0  0  0  0  0  0  0  0  0
    7.4208   -0.5896   20.9269 N   0  0  0  0  0  0  0  0  0  0  0  0
    6.6746    0.0588   19.9052 C   0  0  0  0  0  0  0  0  0  0  0  0
    5.4451    0.6799   20.1551 C   0  0  0  0  0  0  0  0  0  0  0  0
    4.7990    1.3171   19.0876 C   0  0  0  0  0  0  0  0  0  0  0  0
    5.4035    1.2935   17.8274 C   0  0  0  0  0  0  0  0  0  0  0  0
    6.5564    0.6528   17.5758 N   0  0  0  0  0  0  0  0  0  0  0  0
    7.1678    0.0370   18.5910 C   0  0  0  0  0  0  0  0  0  0  0  0
    8.0963   -0.4834   18.3703 H   0  0  0  0  0  0  0  0  0  0  0  0
    4.9510    1.8092   16.9826 H   0  0  0  0  0  0  0  0  0  0  0  0
    3.8609    1.8457   19.2297 H   0  0  0  0  0  0  0  0  0  0  0  0
    5.0041    0.6507   21.1514 H   0  0  0  0  0  0  0  0  0  0  0  0
    7.8882   -0.1364   22.1293 C   0  0  0  0  0  0  0  0  0  0  0  0
    7.8512    1.3099   22.4951 C   0  0  0  0  0  0  0  0  0  0  0  0
    8.8706    2.0860   21.6279 C   0  0  0  0  0  0  0  0  0  0  0  0
   10.1651    1.5263   21.6315 O   0  0  0  0  0  0  0  0  0  0  0  0
   10.1478    0.6547   21.2057 H   0  0  0  0  0  0  0  0  0  0  0  0
    8.4649    2.1606   20.6063 H   0  0  0  0  0  0  0  0  0  0  0  0
    8.9731    3.0999   22.0345 H   0  0  0  0  0  0  0  0  0  0  0  0
    8.0010    1.4954   23.9950 C   0  0  0  0  0  0  0  0  0  0  0  0
    9.1898    1.1302   24.6354 C   0  0  0  0  0  0  0  0  0  0  0  0
    9.3218    1.2821   26.0166 C   0  0  0  0  0  0  0  0  0  0  0  0
    8.2582    1.7976   26.7678 C   0  0  0  0  0  0  0  0  0  0  0  0
    7.0645    2.1562   26.1337 C   0  0  0  0  0  0  0  0  0  0  0  0
    6.9365    1.9962   24.7490 C   0  0  0  0  0  0  0  0  0  0  0  0
    6.0069    2.2525   24.2463 H   0  0  0  0  0  0  0  0  0  0  0  0
    6.2366    2.5559   26.7125 H   0  0  0  0  0  0  0  0  0  0  0  0
    8.3535    1.9150   27.8443 H   0  0  0  0  0  0  0  0  0  0  0  0
   10.2480    0.9752   26.4922 H   0  0  0  0  0  0  0  0  0  0  0  0
    9.9938    0.7028   24.0439 H   0  0  0  0  0  0  0  0  0  0  0  0
    6.8557    1.6723   22.2147 H   0  0  0  0  0  0  0  0  0  0  0  0
    8.4486   -1.1264   22.7934 N   0  0  0  0  0  0  0  0  0  0  0  0
    8.8103   -4.0788   21.3056 H   0  0  0  0  0  0  0  0  0  0  0  0
    9.6942   -3.5057   22.7740 H   0  0  0  0  0  0  0  0  0  0  0  0
    9.1897   -5.6013   24.0461 H   0  0  0  0  0  0  0  0  0  0  0  0
    8.4967   -6.2090   22.5163 H   0  0  0  0  0  0  0  0  0  0  0  0
    7.4885   -6.1202   23.9766 H   0  0  0  0  0  0  0  0  0  0  0  0
  1  2  1  0
  2  3  1  0
  3  4  1  0
  4  5  2  0
  5  6  1  0
  6  7  1  0
  7  8  2  0
  8  9  1  0
  9 10  2  0
 10 11  1  0
 11 12  2  0
 12 13  1  0
 10 14  1  0
  9 15  1  0
  8 16  1  0
  6 17  1  0
 17 18  1  0
 18 19  1  0
 19 20  1  0
 20 21  1  0
 19 22  1  0
 19 23  1  0
 18 24  1  0
 24 25  2  0
 25 26  1  0
 26 27  2  0
 27 28  1  0
 28 29  2  0
 29 30  1  0
 28 31  1  0
 27 32  1  0
 26 33  1  0
 25 34  1  0
 18 35  1  0
 17 36  2  0
  3 37  1  0
  3 38  1  0
  1 39  1  0
  1 40  1  0
  1 41  1  0
 36  4  1  0
 12  7  1  0
 29 24  1  0
M  END
>  <cnnaffinity>  (1) 
-5.13912

>  <filename>  (1) 
COCc1nc(C(CO)c2ccccc2)n(-c2cccnc2)n1

$$$$
