
     RDKit          3D

 45 48  0  0  0  0  0  0  0  0999 V2000
   11.6199    0.9565   24.4142 C   0  0  0  0  0  0  0  0  0  0  0  0
   12.1743    0.0101   23.5332 O   0  0  0  0  0  0  0  0  0  0  0  0
   11.2780   -0.5011   22.5671 C   0  0  0  0  0  0  0  0  0  0  0  0
   10.8867   -1.9421   22.8990 C   0  0  0  0  0  0  0  0  0  0  0  0
    9.8684   -2.5661   21.9261 C   0  0  0  0  0  0  0  0  0  0  0  0
    8.6246   -1.7844   21.6789 C   0  0  0  0  0  0  0  0  0  0  0  0
    8.2130   -1.3516   20.5107 N   0  0  0  0  0  0  0  0  0  0  0  0
    7.1379   -0.5761   20.8182 C   0  0  0  0  0  0  0  0  0  0  0  0
    6.4089    0.1386   19.7707 C   0  0  0  0  0  0  0  0  0  0  0  0
    5.1965    0.8308   19.9465 C   0  0  0  0  0  0  0  0  0  0  0  0
    4.6535    1.4842   18.8386 C   0  0  0  0  0  0  0  0  0  0  0  0
    5.3290    1.4250   17.6132 C   0  0  0  0  0  0  0  0  0  0  0  0
    6.4759    0.7540   17.4350 N   0  0  0  0  0  0  0  0  0  0  0  0
    6.9905    0.1305   18.4948 C   0  0  0  0  0  0  0  0  0  0  0  0
    7.9231   -0.4010   18.3262 H   0  0  0  0  0  0  0  0  0  0  0  0
    4.9404    1.9340   16.7338 H   0  0  0  0  0  0  0  0  0  0  0  0
    3.7310    2.0556   18.9010 H   0  0  0  0  0  0  0  0  0  0  0  0
    4.7013    0.8660   20.9199 H   0  0  0  0  0  0  0  0  0  0  0  0
    6.8513   -0.5275   22.1048 N   0  0  0  0  0  0  0  0  0  0  0  0
    7.7948   -1.3455   22.6553 N   0  0  0  0  0  0  0  0  0  0  0  0
    7.8074   -1.6862   24.0407 C   0  0  0  0  0  0  0  0  0  0  0  0
    7.6511   -3.0059   24.4399 C   0  0  0  0  0  0  0  0  0  0  0  0
    7.7007   -3.3487   25.8125 C   0  0  0  0  0  0  0  0  0  0  0  0
    7.8368   -2.3633   26.7638 C   0  0  0  0  0  0  0  0  0  0  0  0
    7.9267   -0.9966   26.3955 C   0  0  0  0  0  0  0  0  0  0  0  0
    7.9719    0.0715   27.3403 C   0  0  0  0  0  0  0  0  0  0  0  0
    8.1167    1.3620   26.9066 C   0  0  0  0  0  0  0  0  0  0  0  0
    8.2199    1.7136   25.6021 N   0  0  0  0  0  0  0  0  0  0  0  0
    8.1385    0.7471   24.7025 C   0  0  0  0  0  0  0  0  0  0  0  0
    7.9637   -0.6414   25.0085 C   0  0  0  0  0  0  0  0  0  0  0  0
    8.2006    1.0482   23.6601 H   0  0  0  0  0  0  0  0  0  0  0  0
    8.1580    2.1890   27.6120 H   0  0  0  0  0  0  0  0  0  0  0  0
    7.8854   -0.1040   28.4054 H   0  0  0  0  0  0  0  0  0  0  0  0
    7.8559   -2.5987   27.8169 H   0  0  0  0  0  0  0  0  0  0  0  0
    7.6259   -4.3868   26.1279 H   0  0  0  0  0  0  0  0  0  0  0  0
    7.4398   -3.7774   23.7066 H   0  0  0  0  0  0  0  0  0  0  0  0
    9.5788   -3.5539   22.3030 H   0  0  0  0  0  0  0  0  0  0  0  0
   10.3074   -2.6947   20.9343 H   0  0  0  0  0  0  0  0  0  0  0  0
   10.4852   -1.9773   23.9217 H   0  0  0  0  0  0  0  0  0  0  0  0
   11.7926   -2.5609   22.8793 H   0  0  0  0  0  0  0  0  0  0  0  0
   11.7924   -0.4724   21.5952 H   0  0  0  0  0  0  0  0  0  0  0  0
   10.3677    0.1230   22.4804 H   0  0  0  0  0  0  0  0  0  0  0  0
   12.4416    1.3086   25.0392 H   0  0  0  0  0  0  0  0  0  0  0  0
   10.8260    0.5396   25.0542 H   0  0  0  0  0  0  0  0  0  0  0  0
   11.1950    1.8138   23.8668 H   0  0  0  0  0  0  0  0  0  0  0  0
  1  2  1  0
  2  3  1  0
  3  4  1  0
  4  5  1  0
  5  6  1  0
  6  7  2  0
  7  8  1  0
  8  9  1  0
  9 10  2  0
 10 11  1  0
 11 12  2  0
 12 13  1  0
 13 14  2  0
 14 15  1  0
 12 16  1  0
 11 17  1  0
 10 18  1  0
  8 19  2  0
 19 20  1  0
 20 21  1  0
 21 22  2  0
 22 23  1  0
 23 24  2  0
 24 25  1  0
 25 26  2  0
 26 27  1  0
 27 28  2  0
 28 29  1  0
 29 30  2  0
 29 31  1  0
 27 32  1  0
 26 33  1  0
 24 34  1  0
 23 35  1  0
 22 36  1  0
  5 37  1  0
  5 38  1  0
  4 39  1  0
  4 40  1  0
  3 41  1  0
  3 42  1  0
  1 43  1  0
  1 44  1  0
  1 45  1  0
 20  6  1  0
 30 21  1  0
 14  9  1  0
 30 25  1  0
M  END
>  <cnnaffinity>  (1) 
-5.83867

>  <filename>  (1) 
COCCCc1nc(-c2cccnc2)nn1-c1cccc2ccncc12

$$$$
