
     RDKit          3D

 40 42  0  0  0  0  0  0  0  0999 V2000
    8.3033   -5.6048   23.3992 C   0  0  0  0  0  0  0  0  0  0  0  0
    7.8311   -4.3148   23.0875 O   0  0  0  0  0  0  0  0  0  0  0  0
    8.7620   -3.5788   22.3162 C   0  0  0  0  0  0  0  0  0  0  0  0
    8.2912   -2.2126   21.9629 C   0  0  0  0  0  0  0  0  0  0  0  0
    7.6979   -1.9659   20.8090 N   0  0  0  0  0  0  0  0  0  0  0  0
    7.3622   -0.6632   20.9226 N   0  0  0  0  0  0  0  0  0  0  0  0
    6.6462    0.0075   19.8998 C   0  0  0  0  0  0  0  0  0  0  0  0
    5.4349    0.6538   20.1655 C   0  0  0  0  0  0  0  0  0  0  0  0
    4.8048    1.3077   19.1019 C   0  0  0  0  0  0  0  0  0  0  0  0
    5.4019    1.2934   17.8372 C   0  0  0  0  0  0  0  0  0  0  0  0
    6.5666    0.6691   17.5827 N   0  0  0  0  0  0  0  0  0  0  0  0
    7.1669    0.0357   18.5951 C   0  0  0  0  0  0  0  0  0  0  0  0
    8.1169   -0.4464   18.3763 H   0  0  0  0  0  0  0  0  0  0  0  0
    4.9280    1.7864   16.9924 H   0  0  0  0  0  0  0  0  0  0  0  0
    3.8765    1.8408   19.2562 H   0  0  0  0  0  0  0  0  0  0  0  0
    5.0083    0.6339   21.1739 H   0  0  0  0  0  0  0  0  0  0  0  0
    7.8398   -0.1850   22.1142 C   0  0  0  0  0  0  0  0  0  0  0  0
    7.8578    1.2673   22.4818 C   0  0  0  0  0  0  0  0  0  0  0  0
    9.0370    1.9872   21.7874 C   0  0  0  0  0  0  0  0  0  0  0  0
    9.9887    1.4710   21.9694 H   0  0  0  0  0  0  0  0  0  0  0  0
    9.1263    3.0148   22.1516 H   0  0  0  0  0  0  0  0  0  0  0  0
    8.8692    2.0120   20.7059 H   0  0  0  0  0  0  0  0  0  0  0  0
    7.8590    1.4140   23.9952 C   0  0  0  0  0  0  0  0  0  0  0  0
    9.0465    1.2133   24.7105 C   0  0  0  0  0  0  0  0  0  0  0  0
    9.0849    1.3124   26.0974 C   0  0  0  0  0  0  0  0  0  0  0  0
    7.9202    1.5999   26.8160 C   0  0  0  0  0  0  0  0  0  0  0  0
    6.7144    1.7715   26.1339 C   0  0  0  0  0  0  0  0  0  0  0  0
    6.6963    1.6663   24.7382 C   0  0  0  0  0  0  0  0  0  0  0  0
    5.1434    1.8516   23.9541 Cl  0  0  0  0  0  0  0  0  0  0  0  0
    5.7858    1.9829   26.6558 H   0  0  0  0  0  0  0  0  0  0  0  0
    7.9455    1.6771   27.8995 H   0  0  0  0  0  0  0  0  0  0  0  0
   10.0316    1.1319   26.5886 H   0  0  0  0  0  0  0  0  0  0  0  0
    9.9526    0.9417   24.1748 H   0  0  0  0  0  0  0  0  0  0  0  0
    6.9390    1.7143   22.1036 H   0  0  0  0  0  0  0  0  0  0  0  0
    8.4639   -1.1438   22.7647 N   0  0  0  0  0  0  0  0  0  0  0  0
    9.7281   -3.4748   22.8443 H   0  0  0  0  0  0  0  0  0  0  0  0
    8.8803   -4.0428   21.3350 H   0  0  0  0  0  0  0  0  0  0  0  0
    9.2141   -5.5626   24.0180 H   0  0  0  0  0  0  0  0  0  0  0  0
    7.5041   -6.0832   23.9632 H   0  0  0  0  0  0  0  0  0  0  0  0
    8.5246   -6.2036   22.4984 H   0  0  0  0  0  0  0  0  0  0  0  0
  1  2  1  0
  2  3  1  0
  3  4  1  0
  4  5  2  0
  5  6  1  0
  6  7  1  0
  7  8  2  0
  8  9  1  0
  9 10  2  0
 10 11  1  0
 11 12  2  0
 12 13  1  0
 10 14  1  0
  9 15  1  0
  8 16  1  0
  6 17  1  0
 17 18  1  0
 18 19  1  0
 19 20  1  0
 19 21  1  0
 19 22  1  0
 18 23  1  0
 23 24  2  0
 24 25  1  0
 25 26  2  0
 26 27  1  0
 27 28  2  0
 28 29  1  0
 27 30  1  0
 26 31  1  0
 25 32  1  0
 24 33  1  0
 18 34  1  0
 17 35  2  0
  3 36  1  0
  3 37  1  0
  1 38  1  0
  1 39  1  0
  1 40  1  0
 35  4  1  0
 12  7  1  0
 28 23  1  0
M  END
>  <cnnaffinity>  (1) 
-5.67944

>  <filename>  (1) 
COCc1nc(C(C)c2ccccc2Cl)n(-c2cccnc2)n1

$$$$
