
     RDKit          3D

 50 53  0  0  0  0  0  0  0  0999 V2000
   14.5143   -0.9027   22.2885 C   0  0  0  0  0  0  0  0  0  0  0  0
   13.1507   -0.6970   22.5021 O   0  0  0  0  0  0  0  0  0  0  0  0
   12.3397   -1.7524   22.0528 C   0  0  0  0  0  0  0  0  0  0  0  0
   10.9190   -1.3014   22.3196 C   0  0  0  0  0  0  0  0  0  0  0  0
    9.8944   -2.3858   22.0146 C   0  0  0  0  0  0  0  0  0  0  0  0
    8.5479   -1.8556   21.8722 N   0  0  0  0  0  0  0  0  0  0  0  0
    8.2123   -1.3502   20.6694 N   0  0  0  0  0  0  0  0  0  0  0  0
    7.1080   -0.6734   20.9203 C   0  0  0  0  0  0  0  0  0  0  0  0
    6.4405    0.0645   19.8558 C   0  0  0  0  0  0  0  0  0  0  0  0
    5.2403    0.7671   20.0270 C   0  0  0  0  0  0  0  0  0  0  0  0
    4.7085    1.4231   18.9185 C   0  0  0  0  0  0  0  0  0  0  0  0
    5.3897    1.3599   17.6963 C   0  0  0  0  0  0  0  0  0  0  0  0
    6.5413    0.6912   17.5288 N   0  0  0  0  0  0  0  0  0  0  0  0
    7.0507    0.0676   18.5922 C   0  0  0  0  0  0  0  0  0  0  0  0
    7.9928   -0.4579   18.4381 H   0  0  0  0  0  0  0  0  0  0  0  0
    4.9934    1.8587   16.8140 H   0  0  0  0  0  0  0  0  0  0  0  0
    3.7872    1.9900   18.9866 H   0  0  0  0  0  0  0  0  0  0  0  0
    4.7512    0.7991   21.0023 H   0  0  0  0  0  0  0  0  0  0  0  0
    6.7233   -0.7000   22.2183 N   0  0  0  0  0  0  0  0  0  0  0  0
    7.6553   -1.4395   22.8001 C   0  0  0  0  0  0  0  0  0  0  0  0
    7.7629   -1.8673   24.2534 C   0  0  0  0  0  0  0  0  0  0  0  0
    7.1326   -3.2628   24.5112 C   0  0  0  0  0  0  0  0  0  0  0  0
    5.6087   -3.1511   24.4091 C   0  0  0  0  0  0  0  0  0  0  0  0
    5.0658   -2.1892   25.4782 C   0  0  0  0  0  0  0  0  0  0  0  0
    5.8607   -0.9009   25.6416 C   0  0  0  0  0  0  0  0  0  0  0  0
    5.3007    0.1817   26.3414 C   0  0  0  0  0  0  0  0  0  0  0  0
    6.0331    1.3450   26.5795 C   0  0  0  0  0  0  0  0  0  0  0  0
    7.3540    1.4419   26.1252 C   0  0  0  0  0  0  0  0  0  0  0  0
    7.9145    0.3772   25.4182 C   0  0  0  0  0  0  0  0  0  0  0  0
    7.1758   -0.7922   25.1601 C   0  0  0  0  0  0  0  0  0  0  0  0
    8.9367    0.4586   25.0520 H   0  0  0  0  0  0  0  0  0  0  0  0
    7.9322    2.3421   26.3163 H   0  0  0  0  0  0  0  0  0  0  0  0
    5.5784    2.1670   27.1261 H   0  0  0  0  0  0  0  0  0  0  0  0
    4.2812    0.0940   26.7109 H   0  0  0  0  0  0  0  0  0  0  0  0
    5.0704   -2.6995   26.4526 H   0  0  0  0  0  0  0  0  0  0  0  0
    4.0164   -1.9456   25.2748 H   0  0  0  0  0  0  0  0  0  0  0  0
    5.1279   -4.1305   24.5152 H   0  0  0  0  0  0  0  0  0  0  0  0
    5.3588   -2.7817   23.4047 H   0  0  0  0  0  0  0  0  0  0  0  0
    7.4283   -3.6059   25.5135 H   0  0  0  0  0  0  0  0  0  0  0  0
    7.5288   -4.0008   23.8008 H   0  0  0  0  0  0  0  0  0  0  0  0
    8.8379   -1.9170   24.4650 H   0  0  0  0  0  0  0  0  0  0  0  0
    9.9071   -3.1965   22.7494 H   0  0  0  0  0  0  0  0  0  0  0  0
   10.1066   -2.8110   21.0374 H   0  0  0  0  0  0  0  0  0  0  0  0
   10.8447   -0.9528   23.3585 H   0  0  0  0  0  0  0  0  0  0  0  0
   10.7163   -0.4384   21.6760 H   0  0  0  0  0  0  0  0  0  0  0  0
   12.5684   -2.7018   22.5753 H   0  0  0  0  0  0  0  0  0  0  0  0
   12.5038   -1.9344   20.9705 H   0  0  0  0  0  0  0  0  0  0  0  0
   14.7200   -1.1181   21.2274 H   0  0  0  0  0  0  0  0  0  0  0  0
   14.9162   -1.7233   22.8997 H   0  0  0  0  0  0  0  0  0  0  0  0
   15.0257    0.0195   22.5680 H   0  0  0  0  0  0  0  0  0  0  0  0
  1  2  1  0
  2  3  1  0
  3  4  1  0
  4  5  1  0
  5  6  1  0
  6  7  1  0
  7  8  2  0
  8  9  1  0
  9 10  2  0
 10 11  1  0
 11 12  2  0
 12 13  1  0
 13 14  2  0
 14 15  1  0
 12 16  1  0
 11 17  1  0
 10 18  1  0
  8 19  1  0
 19 20  2  0
 20 21  1  0
 21 22  1  0
 22 23  1  0
 23 24  1  0
 24 25  1  0
 25 26  2  0
 26 27  1  0
 27 28  2  0
 28 29  1  0
 29 30  2  0
 29 31  1  0
 28 32  1  0
 27 33  1  0
 26 34  1  0
 24 35  1  0
 24 36  1  0
 23 37  1  0
 23 38  1  0
 22 39  1  0
 22 40  1  0
 21 41  1  0
  5 42  1  0
  5 43  1  0
  4 44  1  0
  4 45  1  0
  3 46  1  0
  3 47  1  0
  1 48  1  0
  1 49  1  0
  1 50  1  0
 20  6  1  0
 30 21  1  0
 14  9  1  0
 30 25  1  0
M  END
>  <cnnaffinity>  (1) 
-6.15895

>  <filename>  (1) 
COCCCn1nc(-c2cccnc2)nc1C1CCCc2ccccc21

$$$$
