
     RDKit          3D

 52 56  0  0  0  0  0  0  0  0999 V2000
    6.1714    5.9368   26.5227 C   0  0  0  0  0  0  0  0  0  0  0  0
    6.5180    4.7859   27.2690 O   0  0  0  0  0  0  0  0  0  0  0  0
    7.9028    4.4867   27.2490 C   0  0  0  0  0  0  0  0  0  0  0  0
    8.4296    4.1896   25.8720 C   0  0  0  0  0  0  0  0  0  0  0  0
    9.1291    5.0066   25.0056 C   0  0  0  0  0  0  0  0  0  0  0  0
    9.1525    4.3846   23.7444 C   0  0  0  0  0  0  0  0  0  0  0  0
    8.5373    3.1505   23.8812 C   0  0  0  0  0  0  0  0  0  0  0  0
    8.5239    2.0106   22.9769 C   0  0  0  0  0  0  0  0  0  0  0  0
    7.5315    1.1744   22.7129 N   0  0  0  0  0  0  0  0  0  0  0  0
    8.0539    0.3939   21.7379 C   0  0  0  0  0  0  0  0  0  0  0  0
    7.2623   -0.6594   21.0228 C   0  0  0  0  0  0  0  0  0  0  0  0
    6.5260   -0.0724   19.8257 C   0  0  0  0  0  0  0  0  0  0  0  0
    5.3524    0.6661   20.0361 C   0  0  0  0  0  0  0  0  0  0  0  0
    4.7776    1.3405   18.9588 C   0  0  0  0  0  0  0  0  0  0  0  0
    5.4037    1.2682   17.7112 C   0  0  0  0  0  0  0  0  0  0  0  0
    6.5189    0.5560   17.4818 N   0  0  0  0  0  0  0  0  0  0  0  0
    7.0559   -0.0897   18.5245 C   0  0  0  0  0  0  0  0  0  0  0  0
    7.9709   -0.6494   18.3191 H   0  0  0  0  0  0  0  0  0  0  0  0
    5.0043    1.8169   16.8609 H   0  0  0  0  0  0  0  0  0  0  0  0
    3.8840    1.9441   19.0785 H   0  0  0  0  0  0  0  0  0  0  0  0
    4.9267    0.7291   21.0403 H   0  0  0  0  0  0  0  0  0  0  0  0
    7.9476   -1.4590   20.7238 H   0  0  0  0  0  0  0  0  0  0  0  0
    6.5556   -1.0703   21.7525 H   0  0  0  0  0  0  0  0  0  0  0  0
    9.3079    0.6564   21.4136 N   0  0  0  0  0  0  0  0  0  0  0  0
    9.6195    1.6828   22.2486 N   0  0  0  0  0  0  0  0  0  0  0  0
   10.9907    2.1482   22.5068 C   0  0  0  0  0  0  0  0  0  0  0  0
   11.3946    2.1774   24.0202 C   0  0  0  0  0  0  0  0  0  0  0  0
   12.7881    1.5507   23.9888 C   0  0  0  0  0  0  0  0  0  0  0  0
   12.6369    0.0363   23.8366 C   0  0  0  0  0  0  0  0  0  0  0  0
   12.1058   -0.1392   22.3813 C   0  0  0  0  0  0  0  0  0  0  0  0
   12.1222    1.3214   21.8630 C   0  0  0  0  0  0  0  0  0  0  0  0
   13.3418    1.8952   22.6074 C   0  0  0  0  0  0  0  0  0  0  0  0
   14.2725    1.3466   22.4039 H   0  0  0  0  0  0  0  0  0  0  0  0
   13.5269    2.9621   22.4323 H   0  0  0  0  0  0  0  0  0  0  0  0
   12.1011    1.4346   20.7777 H   0  0  0  0  0  0  0  0  0  0  0  0
   11.1084   -0.5869   22.3272 H   0  0  0  0  0  0  0  0  0  0  0  0
   12.7762   -0.7711   21.7844 H   0  0  0  0  0  0  0  0  0  0  0  0
   12.0090   -0.3791   24.6330 H   0  0  0  0  0  0  0  0  0  0  0  0
   13.6438   -0.3678   23.9023 H   0  0  0  0  0  0  0  0  0  0  0  0
   13.4277    1.8228   24.8162 H   0  0  0  0  0  0  0  0  0  0  0  0
   10.6995    1.5880   24.6290 H   0  0  0  0  0  0  0  0  0  0  0  0
   11.3691    3.2038   24.4067 H   0  0  0  0  0  0  0  0  0  0  0  0
   11.0696    3.1641   22.1039 H   0  0  0  0  0  0  0  0  0  0  0  0
    8.0756    3.0590   25.1701 N   0  0  0  0  0  0  0  0  0  0  0  0
    7.4150    2.3562   25.4754 H   0  0  0  0  0  0  0  0  0  0  0  0
    9.5594    4.8139   22.8352 H   0  0  0  0  0  0  0  0  0  0  0  0
    9.5654    5.9715   25.2460 H   0  0  0  0  0  0  0  0  0  0  0  0
    8.0172    3.6219   27.9134 H   0  0  0  0  0  0  0  0  0  0  0  0
    8.4886    5.3237   27.6637 H   0  0  0  0  0  0  0  0  0  0  0  0
    6.6007    5.9109   25.5099 H   0  0  0  0  0  0  0  0  0  0  0  0
    6.5095    6.8622   27.0157 H   0  0  0  0  0  0  0  0  0  0  0  0
    5.0832    5.9411   26.4364 H   0  0  0  0  0  0  0  0  0  0  0  0
  1  2  1  0
  2  3  1  0
  3  4  1  0
  4  5  2  0
  5  6  1  0
  6  7  2  0
  7  8  1  0
  8  9  2  0
  9 10  1  0
 10 11  1  0
 11 12  1  0
 12 13  2  0
 13 14  1  0
 14 15  2  0
 15 16  1  0
 16 17  2  0
 17 18  1  0
 15 19  1  0
 14 20  1  0
 13 21  1  0
 11 22  1  0
 11 23  1  0
 10 24  2  0
 24 25  1  0
 25 26  1  0
 26 27  1  0
 27 28  1  0
 28 29  1  0
 29 30  1  0
 30 31  1  0
 31 32  1  0
 32 33  1  0
 32 34  1  0
 31 35  1  0
 30 36  1  0
 30 37  1  0
 29 38  1  0
 29 39  1  0
 28 40  1  0
 27 41  1  0
 27 42  1  0
 26 43  1  0
  7 44  1  0
 44 45  1  0
  6 46  1  0
  5 47  1  0
  3 48  1  0
  3 49  1  0
  1 50  1  0
  1 51  1  0
  1 52  1  0
 44  4  1  0
 25  8  1  0
 31 26  1  0
 17 12  1  0
 32 28  1  0
M  END
>  <cnnaffinity>  (1) 
-5.93914

>  <filename>  (1) 
COCc1ccc(-c2nc(Cc3cccnc3)nn2C2CC3CCC2C3)[nH]1

$$$$
