
     RDKit          3D

 45 48  0  0  0  0  0  0  0  0999 V2000
    7.6610   -6.5099   22.9427 C   0  0  0  0  0  0  0  0  0  0  0  0
    8.3966   -5.4920   22.3113 O   0  0  0  0  0  0  0  0  0  0  0  0
    7.9207   -4.1828   22.5292 C   0  0  0  0  0  0  0  0  0  0  0  0
    8.9520   -3.2396   21.9001 C   0  0  0  0  0  0  0  0  0  0  0  0
    8.3935   -1.8705   21.7838 C   0  0  0  0  0  0  0  0  0  0  0  0
    7.9458   -1.4654   20.6227 N   0  0  0  0  0  0  0  0  0  0  0  0
    7.2923   -0.3180   20.9115 N   0  0  0  0  0  0  0  0  0  0  0  0
    6.5244    0.2472   19.8602 C   0  0  0  0  0  0  0  0  0  0  0  0
    5.2892    0.8795   20.0390 C   0  0  0  0  0  0  0  0  0  0  0  0
    4.6931    1.4545   18.9093 C   0  0  0  0  0  0  0  0  0  0  0  0
    5.3353    1.3685   17.6709 C   0  0  0  0  0  0  0  0  0  0  0  0
    6.4861    0.6973   17.4859 N   0  0  0  0  0  0  0  0  0  0  0  0
    7.0407    0.1270   18.5540 C   0  0  0  0  0  0  0  0  0  0  0  0
    7.9456   -0.4578   18.3965 H   0  0  0  0  0  0  0  0  0  0  0  0
    4.9127    1.8366   16.7858 H   0  0  0  0  0  0  0  0  0  0  0  0
    3.7450    1.9755   18.9791 H   0  0  0  0  0  0  0  0  0  0  0  0
    4.8133    0.9295   21.0193 H   0  0  0  0  0  0  0  0  0  0  0  0
    7.4331   -0.0663   22.2641 C   0  0  0  0  0  0  0  0  0  0  0  0
    7.1157    1.2257   22.8676 C   0  0  0  0  0  0  0  0  0  0  0  0
    7.4053    2.4247   22.2213 C   0  0  0  0  0  0  0  0  0  0  0  0
    7.1248    3.6654   22.8265 C   0  0  0  0  0  0  0  0  0  0  0  0
    6.5455    3.7282   24.0780 C   0  0  0  0  0  0  0  0  0  0  0  0
    6.2326    2.5295   24.7730 C   0  0  0  0  0  0  0  0  0  0  0  0
    5.6271    2.5095   26.0665 C   0  0  0  0  0  0  0  0  0  0  0  0
    5.3621    1.3040   26.6623 C   0  0  0  0  0  0  0  0  0  0  0  0
    5.6995    0.0907   25.9765 C   0  0  0  0  0  0  0  0  0  0  0  0
    5.4378   -1.2521   26.6101 C   0  0  0  0  0  0  0  0  0  0  0  0
    5.8289   -2.0383   25.9601 H   0  0  0  0  0  0  0  0  0  0  0  0
    5.9166   -1.3353   27.5912 H   0  0  0  0  0  0  0  0  0  0  0  0
    4.3647   -1.4135   26.7498 H   0  0  0  0  0  0  0  0  0  0  0  0
    6.2422    0.0722   24.7866 N   0  0  0  0  0  0  0  0  0  0  0  0
    6.5321    1.2516   24.1682 C   0  0  0  0  0  0  0  0  0  0  0  0
    4.9061    1.2373   27.6446 H   0  0  0  0  0  0  0  0  0  0  0  0
    5.3911    3.4572   26.5547 H   0  0  0  0  0  0  0  0  0  0  0  0
    6.3211    4.6882   24.5421 H   0  0  0  0  0  0  0  0  0  0  0  0
    7.3718    4.5758   22.2855 H   0  0  0  0  0  0  0  0  0  0  0  0
    7.8642    2.4135   21.2321 H   0  0  0  0  0  0  0  0  0  0  0  0
    8.0986   -1.0637   22.8265 N   0  0  0  0  0  0  0  0  0  0  0  0
    9.1602   -3.5628   20.8781 H   0  0  0  0  0  0  0  0  0  0  0  0
    9.8831   -3.2316   22.4745 H   0  0  0  0  0  0  0  0  0  0  0  0
    7.8319   -3.9442   23.6091 H   0  0  0  0  0  0  0  0  0  0  0  0
    6.9191   -4.0397   22.0718 H   0  0  0  0  0  0  0  0  0  0  0  0
    6.6546   -6.6226   22.5047 H   0  0  0  0  0  0  0  0  0  0  0  0
    8.2009   -7.4511   22.7889 H   0  0  0  0  0  0  0  0  0  0  0  0
    7.5771   -6.3197   24.0259 H   0  0  0  0  0  0  0  0  0  0  0  0
  1  2  1  0
  2  3  1  0
  3  4  1  0
  4  5  1  0
  5  6  2  0
  6  7  1  0
  7  8  1  0
  8  9  2  0
  9 10  1  0
 10 11  2  0
 11 12  1  0
 12 13  2  0
 13 14  1  0
 11 15  1  0
 10 16  1  0
  9 17  1  0
  7 18  1  0
 18 19  1  0
 19 20  2  0
 20 21  1  0
 21 22  2  0
 22 23  1  0
 23 24  2  0
 24 25  1  0
 25 26  2  0
 26 27  1  0
 27 28  1  0
 27 29  1  0
 27 30  1  0
 26 31  1  0
 31 32  2  0
 25 33  1  0
 24 34  1  0
 22 35  1  0
 21 36  1  0
 20 37  1  0
 18 38  2  0
  4 39  1  0
  4 40  1  0
  3 41  1  0
  3 42  1  0
  1 43  1  0
  1 44  1  0
  1 45  1  0
 38  5  1  0
 13  8  1  0
 32 19  1  0
 32 23  1  0
M  END
>  <cnnaffinity>  (1) 
-5.89511

>  <filename>  (1) 
COCCc1nc(-c2cccc3ccc(C)nc23)n(-c2cccnc2)n1

$$$$
