
     RDKit          3D

 46 49  0  0  0  0  0  0  0  0999 V2000
    4.9970    1.9002   17.0140 H   0  0  0  0  0  0  0  0  0  0  0  0
    5.4728    1.3500   17.8225 C   0  0  0  0  0  0  0  0  0  0  0  0
    6.6373    0.7465   17.5338 N   0  0  0  0  0  0  0  0  0  0  0  0
    7.2443    0.0585   18.5092 C   0  0  0  0  0  0  0  0  0  0  0  0
    8.1929   -0.4126   18.2464 H   0  0  0  0  0  0  0  0  0  0  0  0
    6.7286   -0.1020   19.8241 C   0  0  0  0  0  0  0  0  0  0  0  0
    7.3844   -0.9143   20.7637 N   0  0  0  0  0  0  0  0  0  0  0  0
    6.8277   -1.1549   22.1045 C   0  0  1  0  0  0  0  0  0  0  0  0
    5.7944   -1.4980   22.0149 H   0  0  0  0  0  0  0  0  0  0  0  0
    7.7419   -2.2978   22.5934 C   0  0  0  0  0  0  0  0  0  0  0  0
    7.7963   -2.3393   23.6858 H   0  0  0  0  0  0  0  0  0  0  0  0
    7.3403   -3.2565   22.2561 H   0  0  0  0  0  0  0  0  0  0  0  0
    9.0953   -2.0014   21.9155 C   0  0  0  0  0  0  0  0  0  0  0  0
    9.9046   -1.8255   22.6299 H   0  0  0  0  0  0  0  0  0  0  0  0
    9.3993   -2.8378   21.2825 H   0  0  0  0  0  0  0  0  0  0  0  0
    8.8240   -0.7590   21.0311 C   0  0  2  0  0  0  0  0  0  0  0  0
    9.4035   -0.8175   20.1036 H   0  0  0  0  0  0  0  0  0  0  0  0
    9.1145    0.5935   21.7377 C   0  0  0  0  0  0  0  0  0  0  0  0
    9.4803    1.3247   21.0092 H   0  0  0  0  0  0  0  0  0  0  0  0
    9.9403    0.4319   22.4404 H   0  0  0  0  0  0  0  0  0  0  0  0
    7.8889    1.2100   22.4901 C   0  0  2  0  0  0  0  0  0  0  0  0
    7.3268    1.8119   21.7621 H   0  0  0  0  0  0  0  0  0  0  0  0
    8.3517    2.1125   23.6238 C   0  0  0  0  0  0  0  0  0  0  0  0
    9.1515    1.5276   24.6164 C   0  0  0  0  0  0  0  0  0  0  0  0
    9.4765    0.4910   24.5174 H   0  0  0  0  0  0  0  0  0  0  0  0
    9.5129    2.2322   25.7542 C   0  0  0  0  0  0  0  0  0  0  0  0
   10.1501    1.7294   26.4683 H   0  0  0  0  0  0  0  0  0  0  0  0
    9.1057    3.5538   25.9183 C   0  0  0  0  0  0  0  0  0  0  0  0
    9.3305    4.0900   26.8355 H   0  0  0  0  0  0  0  0  0  0  0  0
    8.4312    4.1994   24.8734 C   0  0  0  0  0  0  0  0  0  0  0  0
    8.1926    5.9694   25.0224 S   0  0  0  0  0  0  0  0  0  0  0  0
    8.4057    6.3354   26.4191 O   0  0  0  0  0  0  0  0  0  0  0  0
    6.9814    6.3479   24.3056 O   0  0  0  0  0  0  0  0  0  0  0  0
    9.5608    6.6494   24.1299 C   0  0  0  0  0  0  0  0  0  0  0  0
    9.5265    6.2803   23.1074 H   0  0  0  0  0  0  0  0  0  0  0  0
   10.4821    6.3643   24.6343 H   0  0  0  0  0  0  0  0  0  0  0  0
    9.4271    7.7286   24.1547 H   0  0  0  0  0  0  0  0  0  0  0  0
    8.0155    3.4762   23.7373 C   0  0  0  0  0  0  0  0  0  0  0  0
    7.4368    3.9492   22.9412 H   0  0  0  0  0  0  0  0  0  0  0  0
    6.9205    0.1025   23.0206 C   0  0  0  0  0  0  0  0  0  0  0  0
    7.2543   -0.2241   24.0159 H   0  0  0  0  0  0  0  0  0  0  0  0
    5.9279    0.5389   23.1854 H   0  0  0  0  0  0  0  0  0  0  0  0
    5.5041    0.5456   20.0950 C   0  0  0  0  0  0  0  0  0  0  0  0
    5.0836    0.4937   21.0972 H   0  0  0  0  0  0  0  0  0  0  0  0
    4.8755    1.2769   19.0843 C   0  0  0  0  0  0  0  0  0  0  0  0
    3.9412    1.7948   19.2711 H   0  0  0  0  0  0  0  0  0  0  0  0
  1  2  1  0
  2  3  2  0
  3  4  1  0
  4  5  1  0
  4  6  2  0
  6  7  1  0
  7  8  1  0
  8  9  1  6
  8 10  1  0
 10 11  1  0
 10 12  1  0
 10 13  1  0
 13 14  1  0
 13 15  1  0
 13 16  1  0
 16 17  1  6
 16 18  1  0
 18 19  1  0
 18 20  1  0
 18 21  1  0
 21 22  1  6
 21 23  1  0
 23 24  2  0
 24 25  1  0
 24 26  1  0
 26 27  1  0
 26 28  2  0
 28 29  1  0
 28 30  1  0
 30 31  1  0
 31 32  2  0
 31 33  2  0
 31 34  1  0
 34 35  1  0
 34 36  1  0
 34 37  1  0
 30 38  2  0
 38 39  1  0
 21 40  1  0
 40 41  1  0
 40 42  1  0
  6 43  1  0
 43 44  1  0
 43 45  2  0
 45 46  1  0
 45  2  1  0
 16  7  1  0
 38 23  1  0
 40  8  1  0
M  END
>  <cnnaffinity>  (1) 
-5.59185

>  <filename>  (1) 
CS(=O)(=O)c1cccc([C@H]2C[C@H]3CC[C@@H](C2)N3c2cccnc2)c1

$$$$
