
     RDKit          3D

 25 26  0  0  0  0  0  0  0  0999 V2000
    4.9729    1.8417   17.0272 H   0  0  0  0  0  0  0  0  0  0  0  0
    5.4556    1.2943   17.8322 C   0  0  0  0  0  0  0  0  0  0  0  0
    6.6126    0.6842   17.5286 N   0  0  0  0  0  0  0  0  0  0  0  0
    7.2356    0.0163   18.5062 C   0  0  0  0  0  0  0  0  0  0  0  0
    8.1713   -0.4785   18.2504 H   0  0  0  0  0  0  0  0  0  0  0  0
    6.7271   -0.0903   19.8138 C   0  0  0  0  0  0  0  0  0  0  0  0
    7.4452   -0.7994   20.8337 N   0  0  0  0  0  0  0  0  0  0  0  0
    8.6706   -0.3861   21.3305 C   0  0  0  0  0  0  0  0  0  0  0  0
    9.2311    0.4054   20.8451 H   0  0  0  0  0  0  0  0  0  0  0  0
    8.9676   -1.1579   22.3987 C   0  0  0  0  0  0  0  0  0  0  0  0
   10.5432   -1.1270   23.2586 S   0  0  0  0  0  0  0  0  0  0  0  0
   10.3347   -1.5908   24.6223 O   0  0  0  0  0  0  0  0  0  0  0  0
   11.1984    0.1373   22.9669 O   0  0  0  0  0  0  0  0  0  0  0  0
   11.4050   -2.3699   22.3594 C   0  0  0  0  0  0  0  0  0  0  0  0
   11.3877   -2.0649   21.3168 H   0  0  0  0  0  0  0  0  0  0  0  0
   12.4217   -2.4153   22.7279 H   0  0  0  0  0  0  0  0  0  0  0  0
   10.8682   -3.2952   22.5299 H   0  0  0  0  0  0  0  0  0  0  0  0
    7.8854   -2.0482   22.5431 N   0  0  0  0  0  0  0  0  0  0  0  0
    7.6893   -2.7327   23.2660 H   0  0  0  0  0  0  0  0  0  0  0  0
    6.9485   -1.8599   21.5698 C   0  0  0  0  0  0  0  0  0  0  0  0
    5.5879   -2.7842   21.3333 S   0  0  0  0  0  0  0  0  0  0  0  0
    5.5179    0.5431   20.1229 C   0  0  0  0  0  0  0  0  0  0  0  0
    5.1159    0.4867   21.1371 H   0  0  0  0  0  0  0  0  0  0  0  0
    4.8755    1.2560   19.1063 C   0  0  0  0  0  0  0  0  0  0  0  0
    3.9506    1.7901   19.2958 H   0  0  0  0  0  0  0  0  0  0  0  0
  1  2  1  0
  2  3  2  0
  3  4  1  0
  4  5  1  0
  4  6  2  0
  6  7  1  0
  7  8  1  0
  8  9  1  0
  8 10  2  0
 10 11  1  0
 11 12  2  0
 11 13  2  0
 11 14  1  0
 14 15  1  0
 14 16  1  0
 14 17  1  0
 10 18  1  0
 18 19  1  0
 18 20  1  0
 20 21  2  0
  6 22  1  0
 22 23  1  0
 22 24  2  0
 24 25  1  0
 24  2  1  0
 20  7  1  0
M  END
>  <cnnaffinity>  (1) 
-4.70213

>  <filename>  (1) 
CS(=O)(=O)c1cn(-c2cccnc2)c(=S)[nH]1

$$$$
