
     RDKit          3D

 35 37  0  0  0  0  0  0  0  0999 V2000
    8.6210   -3.6901   21.4348 H   0  0  0  0  0  0  0  0  0  0  0  0
    8.3449   -2.6580   21.6513 C   0  0  0  0  0  0  0  0  0  0  0  0
    8.6094   -2.2117   22.8794 N   0  0  0  0  0  0  0  0  0  0  0  0
    8.2679   -0.9515   23.1346 C   0  0  0  0  0  0  0  0  0  0  0  0
    8.5148   -0.5829   24.1334 H   0  0  0  0  0  0  0  0  0  0  0  0
    7.6612   -0.1105   22.2049 C   0  0  0  0  0  0  0  0  0  0  0  0
    7.3756    1.3133   22.5324 C   0  0  0  0  0  0  0  0  0  0  0  0
    7.8407    2.3431   21.7004 C   0  0  0  0  0  0  0  0  0  0  0  0
    8.3977    2.0663   20.8127 H   0  0  0  0  0  0  0  0  0  0  0  0
    7.5729    3.6749   21.9963 C   0  0  0  0  0  0  0  0  0  0  0  0
    7.9736    4.4640   21.3629 H   0  0  0  0  0  0  0  0  0  0  0  0
    6.8037    3.9844   23.1276 C   0  0  0  0  0  0  0  0  0  0  0  0
    6.4710    5.6984   23.5127 S   0  0  0  0  0  0  0  0  0  0  0  0
    6.1699    5.7908   24.9367 O   0  0  0  0  0  0  0  0  0  0  0  0
    7.4960    6.5263   22.8869 O   0  0  0  0  0  0  0  0  0  0  0  0
    4.9668    6.0916   22.6865 C   0  0  0  0  0  0  0  0  0  0  0  0
    4.1860    5.4492   23.0837 H   0  0  0  0  0  0  0  0  0  0  0  0
    4.7818    7.1362   22.9369 H   0  0  0  0  0  0  0  0  0  0  0  0
    5.1212    5.9666   21.6171 H   0  0  0  0  0  0  0  0  0  0  0  0
    6.3410    2.9687   23.9808 C   0  0  0  0  0  0  0  0  0  0  0  0
    5.7832    3.1930   24.8887 H   0  0  0  0  0  0  0  0  0  0  0  0
    6.6373    1.6440   23.6747 C   0  0  0  0  0  0  0  0  0  0  0  0
    6.2857    0.8449   24.3203 H   0  0  0  0  0  0  0  0  0  0  0  0
    7.3932   -0.7137   20.9586 C   0  0  0  0  0  0  0  0  0  0  0  0
    6.6410   -0.0138   19.9061 C   0  0  0  0  0  0  0  0  0  0  0  0
    7.1678    0.0280   18.6107 C   0  0  0  0  0  0  0  0  0  0  0  0
    8.1185   -0.4521   18.3753 H   0  0  0  0  0  0  0  0  0  0  0  0
    6.5774    0.6651   17.5962 N   0  0  0  0  0  0  0  0  0  0  0  0
    5.4127    1.2827   17.8487 C   0  0  0  0  0  0  0  0  0  0  0  0
    4.9453    1.7832   17.0044 H   0  0  0  0  0  0  0  0  0  0  0  0
    4.8044    1.2954   19.1080 C   0  0  0  0  0  0  0  0  0  0  0  0
    3.8779    1.8369   19.2486 H   0  0  0  0  0  0  0  0  0  0  0  0
    5.4276    0.6385   20.1643 C   0  0  0  0  0  0  0  0  0  0  0  0
    5.0077    0.6519   21.1740 H   0  0  0  0  0  0  0  0  0  0  0  0
    7.7766   -1.9620   20.6740 N   0  0  0  0  0  0  0  0  0  0  0  0
  1  2  1  0
  2  3  2  0
  3  4  1  0
  4  5  1  0
  4  6  2  0
  6  7  1  0
  7  8  2  0
  8  9  1  0
  8 10  1  0
 10 11  1  0
 10 12  2  0
 12 13  1  0
 13 14  2  0
 13 15  2  0
 13 16  1  0
 16 17  1  0
 16 18  1  0
 16 19  1  0
 12 20  1  0
 20 21  1  0
 20 22  2  0
 22 23  1  0
  6 24  1  0
 24 25  1  0
 25 26  2  0
 26 27  1  0
 26 28  1  0
 28 29  2  0
 29 30  1  0
 29 31  1  0
 31 32  1  0
 31 33  2  0
 33 34  1  0
 24 35  2  0
 35  2  1  0
 22  7  1  0
 33 25  1  0
M  END
>  <cnnaffinity>  (1) 
-4.98332

>  <filename>  (1) 
CS(=O)(=O)c1ccc(-c2cncnc2-c2cccnc2)cc1

$$$$
