
     RDKit          3D

 33 35  0  0  0  0  0  0  0  0999 V2000
    4.9211    1.7798   16.9966 H   0  0  0  0  0  0  0  0  0  0  0  0
    5.4015    1.2916   17.8430 C   0  0  0  0  0  0  0  0  0  0  0  0
    6.5641    0.6718   17.5905 N   0  0  0  0  0  0  0  0  0  0  0  0
    7.1720    0.0554   18.6053 C   0  0  0  0  0  0  0  0  0  0  0  0
    8.1117   -0.4309   18.3584 H   0  0  0  0  0  0  0  0  0  0  0  0
    6.6626    0.0024   19.9151 C   0  0  0  0  0  0  0  0  0  0  0  0
    7.3627   -0.6851   20.9509 N   0  0  0  0  0  0  0  0  0  0  0  0
    6.7425   -1.0511   22.1010 N   0  0  0  0  0  0  0  0  0  0  0  0
    7.7037   -1.6363   22.7993 C   0  0  0  0  0  0  0  0  0  0  0  0
    7.5053   -2.2011   24.1551 C   0  0  0  0  0  0  0  0  0  0  0  0
    8.5683   -2.8107   24.8448 C   0  0  0  0  0  0  0  0  0  0  0  0
    9.5559   -2.8719   24.3846 H   0  0  0  0  0  0  0  0  0  0  0  0
    8.3498   -3.3297   26.1210 C   0  0  0  0  0  0  0  0  0  0  0  0
    9.1713   -3.8003   26.6485 H   0  0  0  0  0  0  0  0  0  0  0  0
    7.0956   -3.2634   26.7355 C   0  0  0  0  0  0  0  0  0  0  0  0
    6.9529   -3.7023   27.7211 H   0  0  0  0  0  0  0  0  0  0  0  0
    6.0373   -2.6524   26.0500 C   0  0  0  0  0  0  0  0  0  0  0  0
    4.3932   -2.5983   26.7798 S   0  0  0  0  0  0  0  0  0  0  0  0
    4.3459   -3.6004   27.8381 O   0  0  0  0  0  0  0  0  0  0  0  0
    3.4070   -2.5521   25.7066 O   0  0  0  0  0  0  0  0  0  0  0  0
    4.3051   -1.0261   27.5950 C   0  0  0  0  0  0  0  0  0  0  0  0
    4.4119   -0.2298   26.8634 H   0  0  0  0  0  0  0  0  0  0  0  0
    5.0711   -0.9674   28.3637 H   0  0  0  0  0  0  0  0  0  0  0  0
    3.3183   -0.9784   28.0530 H   0  0  0  0  0  0  0  0  0  0  0  0
    6.2464   -2.1275   24.7737 C   0  0  0  0  0  0  0  0  0  0  0  0
    5.4489   -1.6569   24.2338 H   0  0  0  0  0  0  0  0  0  0  0  0
    8.9122   -1.6633   22.1576 N   0  0  0  0  0  0  0  0  0  0  0  0
    8.6649   -1.0613   21.0220 C   0  0  0  0  0  0  0  0  0  0  0  0
    9.3663   -0.8574   20.2225 H   0  0  0  0  0  0  0  0  0  0  0  0
    5.4427    0.6482   20.1735 C   0  0  0  0  0  0  0  0  0  0  0  0
    5.0191    0.6170   21.1792 H   0  0  0  0  0  0  0  0  0  0  0  0
    4.8134    1.3066   19.1136 C   0  0  0  0  0  0  0  0  0  0  0  0
    3.8809    1.8382   19.2629 H   0  0  0  0  0  0  0  0  0  0  0  0
  1  2  1  0
  2  3  2  0
  3  4  1  0
  4  5  1  0
  4  6  2  0
  6  7  1  0
  7  8  1  0
  8  9  2  0
  9 10  1  0
 10 11  2  0
 11 12  1  0
 11 13  1  0
 13 14  1  0
 13 15  2  0
 15 16  1  0
 15 17  1  0
 17 18  1  0
 18 19  2  0
 18 20  2  0
 18 21  1  0
 21 22  1  0
 21 23  1  0
 21 24  1  0
 17 25  2  0
 25 26  1  0
  9 27  1  0
 27 28  2  0
 28 29  1  0
  6 30  1  0
 30 31  1  0
 30 32  2  0
 32 33  1  0
 32  2  1  0
 28  7  1  0
 25 10  1  0
M  END
>  <cnnaffinity>  (1) 
-5.10076

>  <filename>  (1) 
CS(=O)(=O)c1cccc(-c2ncn(-c3cccnc3)n2)c1

$$$$
