
     RDKit          3D

 46 49  0  0  0  0  0  0  0  0999 V2000
   12.2126    5.3420   23.5548 C   0  0  0  0  0  0  0  0  0  0  0  0
   12.9530    4.2385   22.3332 S   0  0  0  0  0  0  0  0  0  0  0  0
   13.9099    3.3806   23.1034 O   0  0  0  0  0  0  0  0  0  0  0  0
   11.4557    3.2425   21.9884 C   0  0  0  0  0  0  0  0  0  0  0  0
   11.2807    1.9829   22.8619 C   0  0  0  0  0  0  0  0  0  0  0  0
    9.9478    1.3551   22.6289 C   0  0  0  0  0  0  0  0  0  0  0  0
    9.6927    0.2915   21.8903 N   0  0  0  0  0  0  0  0  0  0  0  0
    8.3396    0.3208   21.7685 C   0  0  0  0  0  0  0  0  0  0  0  0
    7.5311   -0.6594   20.9644 C   0  0  0  0  0  0  0  0  0  0  0  0
    6.7451   -0.0334   19.8053 C   0  0  0  0  0  0  0  0  0  0  0  0
    5.5694    0.6911   20.0556 C   0  0  0  0  0  0  0  0  0  0  0  0
    4.9161    1.3231   18.9944 C   0  0  0  0  0  0  0  0  0  0  0  0
    5.4616    1.2224   17.7136 C   0  0  0  0  0  0  0  0  0  0  0  0
    6.5794    0.5306   17.4450 N   0  0  0  0  0  0  0  0  0  0  0  0
    7.1940   -0.0741   18.4708 C   0  0  0  0  0  0  0  0  0  0  0  0
    8.1135   -0.6059   18.2191 H   0  0  0  0  0  0  0  0  0  0  0  0
    4.9891    1.7261   16.8703 H   0  0  0  0  0  0  0  0  0  0  0  0
    4.0086    1.8967   19.1459 H   0  0  0  0  0  0  0  0  0  0  0  0
    5.1921    0.7851   21.0754 H   0  0  0  0  0  0  0  0  0  0  0  0
    6.8332   -1.1232   21.6744 H   0  0  0  0  0  0  0  0  0  0  0  0
    8.2220   -1.4356   20.6241 H   0  0  0  0  0  0  0  0  0  0  0  0
    7.7466    1.2985   22.4228 N   0  0  0  0  0  0  0  0  0  0  0  0
    8.7845    1.9782   22.9635 N   0  0  0  0  0  0  0  0  0  0  0  0
    8.5601    3.0958   23.8069 C   0  0  0  0  0  0  0  0  0  0  0  0
    9.0869    3.0964   25.0825 C   0  0  0  0  0  0  0  0  0  0  0  0
    8.8705    4.1957   25.9381 C   0  0  0  0  0  0  0  0  0  0  0  0
    8.1308    5.2822   25.5226 C   0  0  0  0  0  0  0  0  0  0  0  0
    7.5790    5.3135   24.2069 C   0  0  0  0  0  0  0  0  0  0  0  0
    6.8134    6.4109   23.7105 C   0  0  0  0  0  0  0  0  0  0  0  0
    6.2986    6.3651   22.4381 C   0  0  0  0  0  0  0  0  0  0  0  0
    6.4679    5.3151   21.5993 N   0  0  0  0  0  0  0  0  0  0  0  0
    7.1640    4.2808   22.0308 C   0  0  0  0  0  0  0  0  0  0  0  0
    7.7755    4.1978   23.3301 C   0  0  0  0  0  0  0  0  0  0  0  0
    7.2572    3.4332   21.3582 H   0  0  0  0  0  0  0  0  0  0  0  0
    5.7082    7.1905   22.0366 H   0  0  0  0  0  0  0  0  0  0  0  0
    6.6318    7.2775   24.3332 H   0  0  0  0  0  0  0  0  0  0  0  0
    7.9500    6.1191   26.1881 H   0  0  0  0  0  0  0  0  0  0  0  0
    9.2868    4.1621   26.9381 H   0  0  0  0  0  0  0  0  0  0  0  0
    9.6420    2.2313   25.4334 H   0  0  0  0  0  0  0  0  0  0  0  0
   12.0584    1.2605   22.6154 H   0  0  0  0  0  0  0  0  0  0  0  0
   11.4057    2.2437   23.9165 H   0  0  0  0  0  0  0  0  0  0  0  0
   10.5956    3.9155   22.0900 H   0  0  0  0  0  0  0  0  0  0  0  0
   11.5522    2.9635   20.9309 H   0  0  0  0  0  0  0  0  0  0  0  0
   12.8971    6.1812   23.6992 H   0  0  0  0  0  0  0  0  0  0  0  0
   11.2405    5.7047   23.2051 H   0  0  0  0  0  0  0  0  0  0  0  0
   12.1198    4.7842   24.4895 H   0  0  0  0  0  0  0  0  0  0  0  0
  1  2  1  0
  2  3  2  0
  2  4  1  0
  4  5  1  0
  5  6  1  0
  6  7  2  0
  7  8  1  0
  8  9  1  0
  9 10  1  0
 10 11  2  0
 11 12  1  0
 12 13  2  0
 13 14  1  0
 14 15  2  0
 15 16  1  0
 13 17  1  0
 12 18  1  0
 11 19  1  0
  9 20  1  0
  9 21  1  0
  8 22  2  0
 22 23  1  0
 23 24  1  0
 24 25  2  0
 25 26  1  0
 26 27  2  0
 27 28  1  0
 28 29  2  0
 29 30  1  0
 30 31  2  0
 31 32  1  0
 32 33  2  0
 32 34  1  0
 30 35  1  0
 29 36  1  0
 27 37  1  0
 26 38  1  0
 25 39  1  0
  5 40  1  0
  5 41  1  0
  4 42  1  0
  4 43  1  0
  1 44  1  0
  1 45  1  0
  1 46  1  0
 23  6  1  0
 33 24  1  0
 15 10  1  0
 33 28  1  0
M  END
>  <cnnaffinity>  (1) 
-5.98677

>  <filename>  (1) 
CS(=O)CCc1nc(Cc2cccnc2)nn1-c1cccc2ccncc12

$$$$
