
     RDKit          3D

 31 32  0  0  0  0  0  0  0  0999 V2000
    5.7457   -1.4611   21.8990 H   0  0  0  0  0  0  0  0  0  0  0  0
    6.8263   -1.3729   21.9465 C   0  0  0  0  0  0  0  0  0  0  0  0
    7.3865   -0.7005   20.9416 C   0  0  0  0  0  0  0  0  0  0  0  0
    8.7310   -0.7121   20.7539 F   0  0  0  0  0  0  0  0  0  0  0  0
    6.6682    0.0319   19.8928 C   0  0  0  0  0  0  0  0  0  0  0  0
    7.1835    0.0792   18.5871 C   0  0  0  0  0  0  0  0  0  0  0  0
    8.1280   -0.4107   18.3580 H   0  0  0  0  0  0  0  0  0  0  0  0
    6.5663    0.6801   17.5699 N   0  0  0  0  0  0  0  0  0  0  0  0
    5.3987    1.2932   17.8290 C   0  0  0  0  0  0  0  0  0  0  0  0
    4.9246    1.7888   16.9848 H   0  0  0  0  0  0  0  0  0  0  0  0
    4.8039    1.3150   19.0952 C   0  0  0  0  0  0  0  0  0  0  0  0
    3.8679    1.8425   19.2420 H   0  0  0  0  0  0  0  0  0  0  0  0
    5.4385    0.6628   20.1483 C   0  0  0  0  0  0  0  0  0  0  0  0
    5.0145    0.6518   21.1532 H   0  0  0  0  0  0  0  0  0  0  0  0
    7.4843   -2.0659   23.0637 C   0  0  0  0  0  0  0  0  0  0  0  0
    8.6804   -1.5884   23.6105 C   0  0  0  0  0  0  0  0  0  0  0  0
    9.1047   -0.6751   23.2092 H   0  0  0  0  0  0  0  0  0  0  0  0
    9.3046   -2.2840   24.6453 C   0  0  0  0  0  0  0  0  0  0  0  0
   10.2365   -1.9036   25.0446 H   0  0  0  0  0  0  0  0  0  0  0  0
    8.7564   -3.4641   25.1480 C   0  0  0  0  0  0  0  0  0  0  0  0
    9.2806   -4.0065   25.9359 H   0  0  0  0  0  0  0  0  0  0  0  0
    7.5442   -3.9343   24.6095 C   0  0  0  0  0  0  0  0  0  0  0  0
    6.8328   -5.4642   25.2123 S   0  0  0  0  0  0  0  0  0  0  0  0
    7.8834   -6.2277   25.8718 O   0  0  0  0  0  0  0  0  0  0  0  0
    6.0022   -6.0345   24.1562 O   0  0  0  0  0  0  0  0  0  0  0  0
    5.7104   -4.9813   26.4767 C   0  0  0  0  0  0  0  0  0  0  0  0
    4.9452   -4.3579   26.0206 H   0  0  0  0  0  0  0  0  0  0  0  0
    6.2775   -4.4763   27.2543 H   0  0  0  0  0  0  0  0  0  0  0  0
    5.2931   -5.9229   26.8334 H   0  0  0  0  0  0  0  0  0  0  0  0
    6.9073   -3.2377   23.5739 C   0  0  0  0  0  0  0  0  0  0  0  0
    5.9927   -3.5961   23.1055 H   0  0  0  0  0  0  0  0  0  0  0  0
  1  2  1  0
  2  3  2  3
  3  4  1  0
  3  5  1  0
  5  6  2  0
  6  7  1  0
  6  8  1  0
  8  9  2  0
  9 10  1  0
  9 11  1  0
 11 12  1  0
 11 13  2  0
 13 14  1  0
  2 15  1  0
 15 16  2  0
 16 17  1  0
 16 18  1  0
 18 19  1  0
 18 20  2  0
 20 21  1  0
 20 22  1  0
 22 23  1  0
 23 24  2  0
 23 25  2  0
 23 26  1  0
 26 27  1  0
 26 28  1  0
 26 29  1  0
 22 30  2  0
 30 31  1  0
 13  5  1  0
 30 15  1  0
M  END
>  <cnnaffinity>  (1) 
-5.16225

>  <filename>  (1) 
CS(=O)(=O)c1cccc(C=C(F)c2cccnc2)c1

$$$$
