
     RDKit          3D

 34 35  0  0  0  0  0  0  0  0999 V2000
    9.2133   -0.8123   20.3399 H   0  0  0  0  0  0  0  0  0  0  0  0
    8.6392   -0.3775   21.0008 O   0  0  0  0  0  0  0  0  0  0  0  0
    7.3127   -0.7145   20.6933 N   0  0  0  0  0  0  0  0  0  0  0  0
    6.6301   -1.7984   21.3443 C   0  0  0  0  0  0  0  0  0  0  0  0
    5.5775   -2.2146   20.9088 O   0  0  0  0  0  0  0  0  0  0  0  0
    7.2892   -2.3491   22.4221 N   0  0  0  0  0  0  0  0  0  0  0  0
    7.9882   -1.7562   22.8400 H   0  0  0  0  0  0  0  0  0  0  0  0
    6.7273   -3.3322   23.2753 C   0  0  0  0  0  0  0  0  0  0  0  0
    6.0436   -4.4513   22.7841 C   0  0  0  0  0  0  0  0  0  0  0  0
    5.8826   -4.5385   21.7160 H   0  0  0  0  0  0  0  0  0  0  0  0
    5.5835   -5.4254   23.6797 C   0  0  0  0  0  0  0  0  0  0  0  0
    5.0470   -6.2909   23.3052 H   0  0  0  0  0  0  0  0  0  0  0  0
    5.7904   -5.3002   25.0561 C   0  0  0  0  0  0  0  0  0  0  0  0
    5.4511   -6.0923   25.7238 H   0  0  0  0  0  0  0  0  0  0  0  0
    6.4603   -4.1663   25.5379 C   0  0  0  0  0  0  0  0  0  0  0  0
    6.7200   -3.9134   27.2894 S   0  0  0  0  0  0  0  0  0  0  0  0
    7.8419   -2.9877   27.4428 O   0  0  0  0  0  0  0  0  0  0  0  0
    6.6824   -5.2063   27.9602 O   0  0  0  0  0  0  0  0  0  0  0  0
    5.2760   -3.0418   27.8104 C   0  0  0  0  0  0  0  0  0  0  0  0
    5.3608   -2.0243   27.4321 H   0  0  0  0  0  0  0  0  0  0  0  0
    4.3972   -3.5738   27.4387 H   0  0  0  0  0  0  0  0  0  0  0  0
    5.3324   -3.0562   28.8989 H   0  0  0  0  0  0  0  0  0  0  0  0
    6.9363   -3.1887   24.6493 C   0  0  0  0  0  0  0  0  0  0  0  0
    7.4614   -2.3124   25.0202 H   0  0  0  0  0  0  0  0  0  0  0  0
    6.7204    0.0988   19.6777 C   0  0  0  0  0  0  0  0  0  0  0  0
    7.3216    0.2778   18.4100 C   0  0  0  0  0  0  0  0  0  0  0  0
    8.3099   -0.1289   18.1972 H   0  0  0  0  0  0  0  0  0  0  0  0
    6.7288    0.9136   17.3919 N   0  0  0  0  0  0  0  0  0  0  0  0
    5.5205    1.4574   17.6152 C   0  0  0  0  0  0  0  0  0  0  0  0
    5.0511    1.9598   16.7718 H   0  0  0  0  0  0  0  0  0  0  0  0
    4.8695    1.3958   18.8509 C   0  0  0  0  0  0  0  0  0  0  0  0
    3.9063    1.8768   18.9747 H   0  0  0  0  0  0  0  0  0  0  0  0
    5.4755    0.7105   19.9065 C   0  0  0  0  0  0  0  0  0  0  0  0
    5.0083    0.6536   20.8888 H   0  0  0  0  0  0  0  0  0  0  0  0
  1  2  1  0
  2  3  1  0
  3  4  1  0
  4  5  2  0
  4  6  1  0
  6  7  1  0
  6  8  1  0
  8  9  2  0
  9 10  1  0
  9 11  1  0
 11 12  1  0
 11 13  2  0
 13 14  1  0
 13 15  1  0
 15 16  1  0
 16 17  2  0
 16 18  2  0
 16 19  1  0
 19 20  1  0
 19 21  1  0
 19 22  1  0
 15 23  2  0
 23 24  1  0
  3 25  1  0
 25 26  2  0
 26 27  1  0
 26 28  1  0
 28 29  2  0
 29 30  1  0
 29 31  1  0
 31 32  1  0
 31 33  2  0
 33 34  1  0
 23  8  1  0
 33 25  1  0
M  END
>  <cnnaffinity>  (1) 
-5.01515

>  <filename>  (1) 
CS(=O)(=O)c1cccc(NC(=O)N(O)c2cccnc2)c1

$$$$
