
     RDKit          3D

 49 50  0  0  0  0  0  0  0  0999 V2000
    8.3433   -5.7400   24.9008 C   0  0  0  0  0  0  0  0  0  0  0  0
    6.9413   -5.0899   23.9549 S   0  0  0  0  0  0  0  0  0  0  0  0
    7.8086   -4.3091   22.5685 C   0  0  0  0  0  0  0  0  0  0  0  0
    8.4939   -2.9909   22.9368 C   0  0  0  0  0  0  0  0  0  0  0  0
    7.4922   -1.8338   23.1079 C   0  0  0  0  0  0  0  0  0  0  0  0
    8.2014   -0.6917   23.7600 N   0  0  0  0  0  0  0  0  0  0  0  0
    8.4372   -0.6446   25.4290 S   0  0  0  0  0  0  0  0  0  0  0  0
    9.1698    0.5992   25.5529 O   0  0  0  0  0  0  0  0  0  0  0  0
    9.0580   -1.8961   25.8381 O   0  0  0  0  0  0  0  0  0  0  0  0
    6.8182   -0.5644   26.0983 C   0  0  0  0  0  0  0  0  0  0  0  0
    6.4329   -1.5104   27.0605 C   0  0  0  0  0  0  0  0  0  0  0  0
    5.1465   -1.4554   27.5881 C   0  0  0  0  0  0  0  0  0  0  0  0
    4.2299   -0.4781   27.1809 C   0  0  0  0  0  0  0  0  0  0  0  0
    2.8305   -0.4377   27.7428 C   0  0  0  0  0  0  0  0  0  0  0  0
    2.7963   -0.8276   28.7649 H   0  0  0  0  0  0  0  0  0  0  0  0
    2.4348    0.5827   27.7649 H   0  0  0  0  0  0  0  0  0  0  0  0
    2.1387   -1.0421   27.1447 H   0  0  0  0  0  0  0  0  0  0  0  0
    4.6534    0.4589   26.2335 C   0  0  0  0  0  0  0  0  0  0  0  0
    5.9382    0.4494   25.6723 C   0  0  0  0  0  0  0  0  0  0  0  0
    6.2958    1.4847   24.6474 C   0  0  0  0  0  0  0  0  0  0  0  0
    7.2788    1.9184   24.8470 H   0  0  0  0  0  0  0  0  0  0  0  0
    5.5507    2.2860   24.6196 H   0  0  0  0  0  0  0  0  0  0  0  0
    6.3278    1.0266   23.6561 H   0  0  0  0  0  0  0  0  0  0  0  0
    3.9551    1.2292   25.9147 H   0  0  0  0  0  0  0  0  0  0  0  0
    4.8364   -2.1786   28.3350 H   0  0  0  0  0  0  0  0  0  0  0  0
    7.1171   -2.2841   27.4108 H   0  0  0  0  0  0  0  0  0  0  0  0
    9.1975   -0.5894   23.5736 H   0  0  0  0  0  0  0  0  0  0  0  0
    6.7583   -1.5576   21.7007 C   0  0  0  0  0  0  0  0  0  0  0  0
    5.7427   -2.1597   21.4050 O   0  0  0  0  0  0  0  0  0  0  0  0
    7.3998   -0.7127   20.8099 N   0  0  0  0  0  0  0  0  0  0  0  0
    6.6795   -0.0433   19.7549 C   0  0  0  0  0  0  0  0  0  0  0  0
    5.4546    0.5782   20.0190 C   0  0  0  0  0  0  0  0  0  0  0  0
    4.8294    1.2964   18.9951 C   0  0  0  0  0  0  0  0  0  0  0  0
    5.4300    1.3453   17.7347 C   0  0  0  0  0  0  0  0  0  0  0  0
    6.5955    0.7352   17.4602 N   0  0  0  0  0  0  0  0  0  0  0  0
    7.2029    0.0680   18.4498 C   0  0  0  0  0  0  0  0  0  0  0  0
    8.1532   -0.4029   18.2043 H   0  0  0  0  0  0  0  0  0  0  0  0
    4.9670    1.8965   16.9180 H   0  0  0  0  0  0  0  0  0  0  0  0
    3.8976    1.8191   19.1680 H   0  0  0  0  0  0  0  0  0  0  0  0
    5.0122    0.4994   21.0102 H   0  0  0  0  0  0  0  0  0  0  0  0
    8.1046   -0.1536   21.2593 H   0  0  0  0  0  0  0  0  0  0  0  0
    6.6595   -2.1294   23.7578 H   0  0  0  0  0  0  0  0  0  0  0  0
    9.2131   -2.6992   22.1584 H   0  0  0  0  0  0  0  0  0  0  0  0
    9.0722   -3.1025   23.8642 H   0  0  0  0  0  0  0  0  0  0  0  0
    8.5174   -5.0247   22.1388 H   0  0  0  0  0  0  0  0  0  0  0  0
    7.0320   -4.1294   21.8188 H   0  0  0  0  0  0  0  0  0  0  0  0
    7.9225   -6.2361   25.7809 H   0  0  0  0  0  0  0  0  0  0  0  0
    9.0241   -4.9494   25.2429 H   0  0  0  0  0  0  0  0  0  0  0  0
    8.8988   -6.4784   24.3114 H   0  0  0  0  0  0  0  0  0  0  0  0
  1  2  1  0
  2  3  1  0
  3  4  1  0
  4  5  1  0
  5  6  1  0
  6  7  1  0
  7  8  2  0
  7  9  2  0
  7 10  1  0
 10 11  2  0
 11 12  1  0
 12 13  2  0
 13 14  1  0
 14 15  1  0
 14 16  1  0
 14 17  1  0
 13 18  1  0
 18 19  2  0
 19 20  1  0
 20 21  1  0
 20 22  1  0
 20 23  1  0
 18 24  1  0
 12 25  1  0
 11 26  1  0
  6 27  1  0
  5 28  1  0
 28 29  2  0
 28 30  1  0
 30 31  1  0
 31 32  2  0
 32 33  1  0
 33 34  2  0
 34 35  1  0
 35 36  2  0
 36 37  1  0
 34 38  1  0
 33 39  1  0
 32 40  1  0
 30 41  1  0
  5 42  1  0
  4 43  1  0
  4 44  1  0
  3 45  1  0
  3 46  1  0
  1 47  1  0
  1 48  1  0
  1 49  1  0
 19 10  1  0
 36 31  1  0
M  END
>  <cnnaffinity>  (1) 
-5.80574

>  <filename>  (1) 
CSCCC(NS(=O)(=O)c1ccc(C)cc1C)C(=O)Nc1cccnc1

$$$$
