
     RDKit          3D

 37 39  0  0  0  0  0  0  0  0999 V2000
    8.4796   -4.9894   22.6720 C   0  0  0  0  0  0  0  0  0  0  0  0
    6.8119   -4.6426   23.2813 S   0  0  0  0  0  0  0  0  0  0  0  0
    7.0550   -2.8961   23.7392 C   0  0  0  0  0  0  0  0  0  0  0  0
    7.3829   -1.9838   22.5950 C   0  0  0  0  0  0  0  0  0  0  0  0
    6.5078   -1.5952   21.6980 N   0  0  0  0  0  0  0  0  0  0  0  0
    7.2337   -0.7739   20.8918 N   0  0  0  0  0  0  0  0  0  0  0  0
    6.5704   -0.0611   19.8529 C   0  0  0  0  0  0  0  0  0  0  0  0
    5.3751    0.6229   20.1140 C   0  0  0  0  0  0  0  0  0  0  0  0
    4.7903    1.3353   19.0657 C   0  0  0  0  0  0  0  0  0  0  0  0
    5.3943    1.3261   17.8025 C   0  0  0  0  0  0  0  0  0  0  0  0
    6.5270    0.6548   17.5421 N   0  0  0  0  0  0  0  0  0  0  0  0
    7.0893   -0.0206   18.5497 C   0  0  0  0  0  0  0  0  0  0  0  0
    8.0060   -0.5612   18.3289 H   0  0  0  0  0  0  0  0  0  0  0  0
    4.9532    1.8606   16.9633 H   0  0  0  0  0  0  0  0  0  0  0  0
    3.8688    1.8844   19.2085 H   0  0  0  0  0  0  0  0  0  0  0  0
    4.9306    0.5802   21.1110 H   0  0  0  0  0  0  0  0  0  0  0  0
    8.5007   -0.6603   21.4028 C   0  0  0  0  0  0  0  0  0  0  0  0
    9.6225    0.1611   20.8462 C   0  0  0  0  0  0  0  0  0  0  0  0
   10.3527    0.9954   21.8896 C   0  0  0  0  0  0  0  0  0  0  0  0
   11.6492    0.6448   22.3022 C   0  0  0  0  0  0  0  0  0  0  0  0
   12.2864    1.3192   23.3506 C   0  0  0  0  0  0  0  0  0  0  0  0
   11.6327    2.3738   23.9932 C   0  0  0  0  0  0  0  0  0  0  0  0
   10.3792    2.8012   23.5469 C   0  0  0  0  0  0  0  0  0  0  0  0
    9.7543    2.1152   22.4981 C   0  0  0  0  0  0  0  0  0  0  0  0
    8.1933    2.6911   21.9605 Cl  0  0  0  0  0  0  0  0  0  0  0  0
    9.8862    3.6565   23.9993 H   0  0  0  0  0  0  0  0  0  0  0  0
   12.0875    2.8730   24.8419 H   0  0  0  0  0  0  0  0  0  0  0  0
   13.2799    1.0152   23.6715 H   0  0  0  0  0  0  0  0  0  0  0  0
   12.1636   -0.1728   21.7933 H   0  0  0  0  0  0  0  0  0  0  0  0
    9.2319    0.8151   20.0644 H   0  0  0  0  0  0  0  0  0  0  0  0
   10.3314   -0.5464   20.3990 H   0  0  0  0  0  0  0  0  0  0  0  0
    8.6219   -1.4431   22.4573 N   0  0  0  0  0  0  0  0  0  0  0  0
    6.1381   -2.5680   24.2434 H   0  0  0  0  0  0  0  0  0  0  0  0
    7.8879   -2.8218   24.4385 H   0  0  0  0  0  0  0  0  0  0  0  0
    8.8021   -4.1652   22.0292 H   0  0  0  0  0  0  0  0  0  0  0  0
    9.2046   -5.0989   23.4836 H   0  0  0  0  0  0  0  0  0  0  0  0
    8.4485   -5.9143   22.0865 H   0  0  0  0  0  0  0  0  0  0  0  0
  1  2  1  0
  2  3  1  0
  3  4  1  0
  4  5  2  0
  5  6  1  0
  6  7  1  0
  7  8  2  0
  8  9  1  0
  9 10  2  0
 10 11  1  0
 11 12  2  0
 12 13  1  0
 10 14  1  0
  9 15  1  0
  8 16  1  0
  6 17  1  0
 17 18  1  0
 18 19  1  0
 19 20  2  0
 20 21  1  0
 21 22  2  0
 22 23  1  0
 23 24  2  0
 24 25  1  0
 23 26  1  0
 22 27  1  0
 21 28  1  0
 20 29  1  0
 18 30  1  0
 18 31  1  0
 17 32  2  0
  3 33  1  0
  3 34  1  0
  1 35  1  0
  1 36  1  0
  1 37  1  0
 32  4  1  0
 12  7  1  0
 24 19  1  0
M  END
>  <cnnaffinity>  (1) 
-6.01458

>  <filename>  (1) 
CSCc1nc(Cc2ccccc2Cl)n(-c2cccnc2)n1

$$$$
