
     RDKit          3D

 43 44  0  0  0  0  0  0  0  0999 V2000
    6.9873   -5.1265   25.5865 C   0  0  0  0  0  0  0  0  0  0  0  0
    5.9686   -4.7960   24.0913 S   0  0  0  0  0  0  0  0  0  0  0  0
    6.5844   -3.1635   23.5120 C   0  0  0  0  0  0  0  0  0  0  0  0
    7.9016   -3.3453   22.7525 C   0  0  0  0  0  0  0  0  0  0  0  0
    8.3624   -2.0241   22.1308 C   0  0  0  0  0  0  0  0  0  0  0  0
    9.7963   -2.2600   21.7451 N   0  0  0  0  0  0  0  0  0  0  0  0
   10.9976   -1.7307   22.8424 S   0  0  0  0  0  0  0  0  0  0  0  0
   10.8600   -0.2793   23.0349 O   0  0  0  0  0  0  0  0  0  0  0  0
   12.2893   -2.1763   22.3034 O   0  0  0  0  0  0  0  0  0  0  0  0
   10.4720   -2.6744   24.3026 C   0  0  0  0  0  0  0  0  0  0  0  0
   11.0201   -3.9345   24.5820 C   0  0  0  0  0  0  0  0  0  0  0  0
   10.5585   -4.6796   25.6654 C   0  0  0  0  0  0  0  0  0  0  0  0
    9.5742   -4.1523   26.5039 C   0  0  0  0  0  0  0  0  0  0  0  0
    8.9027   -5.1845   27.9533 Br  0  0  0  0  0  0  0  0  0  0  0  0
    9.0672   -2.8719   26.2664 C   0  0  0  0  0  0  0  0  0  0  0  0
    9.4959   -2.1426   25.1587 C   0  0  0  0  0  0  0  0  0  0  0  0
    9.0597   -1.1637   24.9781 H   0  0  0  0  0  0  0  0  0  0  0  0
    8.3124   -2.4574   26.9277 H   0  0  0  0  0  0  0  0  0  0  0  0
   10.9540   -5.6755   25.8468 H   0  0  0  0  0  0  0  0  0  0  0  0
   11.8003   -4.3599   23.9642 H   0  0  0  0  0  0  0  0  0  0  0  0
    9.9980   -3.2459   21.6177 H   0  0  0  0  0  0  0  0  0  0  0  0
    7.3467   -1.5574   21.0166 C   0  0  0  0  0  0  0  0  0  0  0  0
    6.7151   -2.3668   20.3307 O   0  0  0  0  0  0  0  0  0  0  0  0
    7.0843   -0.2042   20.8422 N   0  0  0  0  0  0  0  0  0  0  0  0
    6.4425    0.3524   19.7229 C   0  0  0  0  0  0  0  0  0  0  0  0
    5.3111    1.1332   19.9240 C   0  0  0  0  0  0  0  0  0  0  0  0
    4.7270    1.7370   18.8057 C   0  0  0  0  0  0  0  0  0  0  0  0
    5.2968    1.5715   17.5350 C   0  0  0  0  0  0  0  0  0  0  0  0
    6.3844    0.8052   17.3228 N   0  0  0  0  0  0  0  0  0  0  0  0
    6.9346    0.2024   18.3987 C   0  0  0  0  0  0  0  0  0  0  0  0
    7.8223   -0.4071   18.2469 H   0  0  0  0  0  0  0  0  0  0  0  0
    4.8573    2.0978   16.6946 H   0  0  0  0  0  0  0  0  0  0  0  0
    3.8392    2.3493   18.9127 H   0  0  0  0  0  0  0  0  0  0  0  0
    4.9101    1.2610   20.9294 H   0  0  0  0  0  0  0  0  0  0  0  0
    7.3327    0.4234   21.6074 H   0  0  0  0  0  0  0  0  0  0  0  0
    8.3260   -1.2415   22.8993 H   0  0  0  0  0  0  0  0  0  0  0  0
    7.7692   -4.0785   21.9509 H   0  0  0  0  0  0  0  0  0  0  0  0
    8.6638   -3.7392   23.4300 H   0  0  0  0  0  0  0  0  0  0  0  0
    5.8383   -2.7037   22.8542 H   0  0  0  0  0  0  0  0  0  0  0  0
    6.7241   -2.4942   24.3662 H   0  0  0  0  0  0  0  0  0  0  0  0
    6.9978   -4.2458   26.2351 H   0  0  0  0  0  0  0  0  0  0  0  0
    6.5706   -5.9682   26.1492 H   0  0  0  0  0  0  0  0  0  0  0  0
    8.0154   -5.3742   25.3071 H   0  0  0  0  0  0  0  0  0  0  0  0
  1  2  1  0
  2  3  1  0
  3  4  1  0
  4  5  1  0
  5  6  1  0
  6  7  1  0
  7  8  2  0
  7  9  2  0
  7 10  1  0
 10 11  2  0
 11 12  1  0
 12 13  2  0
 13 14  1  0
 13 15  1  0
 15 16  2  0
 16 17  1  0
 15 18  1  0
 12 19  1  0
 11 20  1  0
  6 21  1  0
  5 22  1  0
 22 23  2  0
 22 24  1  0
 24 25  1  0
 25 26  2  0
 26 27  1  0
 27 28  2  0
 28 29  1  0
 29 30  2  0
 30 31  1  0
 28 32  1  0
 27 33  1  0
 26 34  1  0
 24 35  1  0
  5 36  1  0
  4 37  1  0
  4 38  1  0
  3 39  1  0
  3 40  1  0
  1 41  1  0
  1 42  1  0
  1 43  1  0
 16 10  1  0
 30 25  1  0
M  END
>  <cnnaffinity>  (1) 
-6.31008

>  <filename>  (1) 
CSCCC(NS(=O)(=O)c1ccc(Br)cc1)C(=O)Nc1cccnc1

$$$$
