
     RDKit          3D

 43 45  0  0  0  0  0  0  0  0999 V2000
    5.9154   -0.8851   28.3500 C   0  0  0  0  0  0  0  0  0  0  0  0
    7.2890    0.2154   27.9402 S   0  0  0  0  0  0  0  0  0  0  0  0
    7.2329    0.0200   26.1453 C   0  0  0  0  0  0  0  0  0  0  0  0
    8.3427    0.8331   25.4540 C   0  0  0  0  0  0  0  0  0  0  0  0
    8.2952    0.5958   23.9811 C   0  0  0  0  0  0  0  0  0  0  0  0
    7.7443    1.4227   23.1204 N   0  0  0  0  0  0  0  0  0  0  0  0
    7.7602    0.7160   21.9605 N   0  0  0  0  0  0  0  0  0  0  0  0
    7.1215    1.2051   20.7898 C   0  0  0  0  0  0  0  0  0  0  0  0
    5.8779    1.8411   20.8628 C   0  0  0  0  0  0  0  0  0  0  0  0
    5.1839    2.0672   19.6707 C   0  0  0  0  0  0  0  0  0  0  0  0
    5.7554    1.6669   18.4588 C   0  0  0  0  0  0  0  0  0  0  0  0
    6.9851    1.1347   18.3761 N   0  0  0  0  0  0  0  0  0  0  0  0
    7.6687    0.9751   19.5132 C   0  0  0  0  0  0  0  0  0  0  0  0
    8.6959    0.6273   19.4110 H   0  0  0  0  0  0  0  0  0  0  0  0
    5.2289    1.8035   17.5183 H   0  0  0  0  0  0  0  0  0  0  0  0
    4.2190    2.5609   19.6727 H   0  0  0  0  0  0  0  0  0  0  0  0
    5.4810    2.1365   21.8347 H   0  0  0  0  0  0  0  0  0  0  0  0
    8.2681   -0.5301   22.2130 C   0  0  0  0  0  0  0  0  0  0  0  0
    8.2120   -1.6528   21.2047 C   0  0  0  0  0  0  0  0  0  0  0  0
    9.1207   -2.8320   21.6205 C   0  0  0  0  0  0  0  0  0  0  0  0
    8.9483   -3.1329   22.6607 H   0  0  0  0  0  0  0  0  0  0  0  0
   10.1764   -2.5576   21.5339 H   0  0  0  0  0  0  0  0  0  0  0  0
    8.9184   -3.6888   20.9699 H   0  0  0  0  0  0  0  0  0  0  0  0
    6.8272   -2.0872   20.9291 C   0  0  0  0  0  0  0  0  0  0  0  0
    5.9077   -2.6333   21.8568 C   0  0  0  0  0  0  0  0  0  0  0  0
    4.9145   -3.4162   21.3630 C   0  0  0  0  0  0  0  0  0  0  0  0
    5.4989   -3.3699   19.2222 C   0  0  0  0  0  0  0  0  0  0  0  0
    5.3743   -3.3037   19.1157 C   0  0  0  0  0  0  0  0  0  0  0  0
    6.4905   -2.4249   19.5029 C   0  0  0  0  0  0  0  0  0  0  0  0
    6.9733   -1.8304   18.7048 H   0  0  0  0  0  0  0  0  0  0  0  0
    5.5435   -4.5656   18.9227 H   0  0  0  0  0  0  0  0  0  0  0  0
    4.2325   -3.0213   19.3459 H   0  0  0  0  0  0  0  0  0  0  0  0
    4.0717   -3.8910   21.8616 H   0  0  0  0  0  0  0  0  0  0  0  0
    6.0256   -2.4404   22.9314 H   0  0  0  0  0  0  0  0  0  0  0  0
    8.6059   -1.2818   20.2532 H   0  0  0  0  0  0  0  0  0  0  0  0
    8.6521   -0.6120   23.4668 N   0  0  0  0  0  0  0  0  0  0  0  0
    9.3229    0.5177   25.8247 H   0  0  0  0  0  0  0  0  0  0  0  0
    8.2224    1.9009   25.6481 H   0  0  0  0  0  0  0  0  0  0  0  0
    6.2438    0.3328   25.7864 H   0  0  0  0  0  0  0  0  0  0  0  0
    7.3540   -1.0455   25.9064 H   0  0  0  0  0  0  0  0  0  0  0  0
    6.1116   -1.9044   28.0034 H   0  0  0  0  0  0  0  0  0  0  0  0
    4.9792   -0.5286   27.9102 H   0  0  0  0  0  0  0  0  0  0  0  0
    5.8077   -0.9022   29.4368 H   0  0  0  0  0  0  0  0  0  0  0  0
  1  2  1  0
  2  3  1  0
  3  4  1  0
  4  5  1  0
  5  6  2  0
  6  7  1  0
  7  8  1  0
  8  9  2  0
  9 10  1  0
 10 11  2  0
 11 12  1  0
 12 13  2  0
 13 14  1  0
 11 15  1  0
 10 16  1  0
  9 17  1  0
  7 18  1  0
 18 19  1  0
 19 20  1  0
 20 21  1  0
 20 22  1  0
 20 23  1  0
 19 24  1  0
 24 25  2  0
 25 26  1  0
 26 27  2  0
 27 28  1  0
 28 29  2  0
 29 30  1  0
 28 31  1  0
 27 32  1  0
 26 33  1  0
 25 34  1  0
 19 35  1  0
 18 36  2  0
  4 37  1  0
  4 38  1  0
  3 39  1  0
  3 40  1  0
  1 41  1  0
  1 42  1  0
  1 43  1  0
 36  5  1  0
 13  8  1  0
 29 24  1  0
M  END
>  <cnnaffinity>  (1) 
-5.63967

>  <filename>  (1) 
CSCCc1nc(C(C)c2ccccc2)n(-c2cccnc2)n1

$$$$
