
     RDKit          3D

 42 45  0  0  0  0  0  0  0  0999 V2000
    9.2457   -5.8908   24.6003 C   0  0  0  0  0  0  0  0  0  0  0  0
    8.4067   -6.2741   23.0393 S   0  0  0  0  0  0  0  0  0  0  0  0
    7.5519   -4.7061   22.7781 C   0  0  0  0  0  0  0  0  0  0  0  0
    8.4486   -3.6220   22.1776 C   0  0  0  0  0  0  0  0  0  0  0  0
    7.7837   -2.2973   22.0669 C   0  0  0  0  0  0  0  0  0  0  0  0
    7.6198   -1.7120   20.9048 N   0  0  0  0  0  0  0  0  0  0  0  0
    6.9750   -0.5590   21.2195 N   0  0  0  0  0  0  0  0  0  0  0  0
    6.4151    0.1927   20.1491 C   0  0  0  0  0  0  0  0  0  0  0  0
    5.2580    0.9769   20.2287 C   0  0  0  0  0  0  0  0  0  0  0  0
    4.7776    1.5381   19.0381 C   0  0  0  0  0  0  0  0  0  0  0  0
    5.4601    1.3156   17.8393 C   0  0  0  0  0  0  0  0  0  0  0  0
    6.5851    0.5878   17.7668 N   0  0  0  0  0  0  0  0  0  0  0  0
    7.0469    0.0573   18.8960 C   0  0  0  0  0  0  0  0  0  0  0  0
    7.9678   -0.5168   18.8383 H   0  0  0  0  0  0  0  0  0  0  0  0
    5.1060    1.7382   16.9021 H   0  0  0  0  0  0  0  0  0  0  0  0
    3.8901    2.1579   19.0291 H   0  0  0  0  0  0  0  0  0  0  0  0
    4.7486    1.1429   21.1805 H   0  0  0  0  0  0  0  0  0  0  0  0
    6.8734   -0.4896   22.5857 C   0  0  0  0  0  0  0  0  0  0  0  0
    6.4934    0.7313   23.3024 C   0  0  0  0  0  0  0  0  0  0  0  0
    5.6086    0.6678   24.3635 C   0  0  0  0  0  0  0  0  0  0  0  0
    5.1392    1.8567   24.9497 C   0  0  0  0  0  0  0  0  0  0  0  0
    4.3128    1.7653   26.0040 F   0  0  0  0  0  0  0  0  0  0  0  0
    5.5107    3.0928   24.4856 C   0  0  0  0  0  0  0  0  0  0  0  0
    6.4928    3.1819   23.4662 C   0  0  0  0  0  0  0  0  0  0  0  0
    6.9539    4.4337   22.9857 C   0  0  0  0  0  0  0  0  0  0  0  0
    7.9847    4.4709   22.0844 C   0  0  0  0  0  0  0  0  0  0  0  0
    8.6295    3.3607   21.6455 N   0  0  0  0  0  0  0  0  0  0  0  0
    8.2029    2.1865   22.0607 C   0  0  0  0  0  0  0  0  0  0  0  0
    7.0668    2.0001   22.9182 C   0  0  0  0  0  0  0  0  0  0  0  0
    8.7578    1.3157   21.7113 H   0  0  0  0  0  0  0  0  0  0  0  0
    8.3490    5.4231   21.7017 H   0  0  0  0  0  0  0  0  0  0  0  0
    6.4955    5.3452   23.3494 H   0  0  0  0  0  0  0  0  0  0  0  0
    5.1005    3.9872   24.9309 H   0  0  0  0  0  0  0  0  0  0  0  0
    5.2620   -0.2821   24.7540 H   0  0  0  0  0  0  0  0  0  0  0  0
    7.3262   -1.6025   23.1348 N   0  0  0  0  0  0  0  0  0  0  0  0
    8.7648   -3.8912   21.1707 H   0  0  0  0  0  0  0  0  0  0  0  0
    9.3487   -3.4933   22.7888 H   0  0  0  0  0  0  0  0  0  0  0  0
    7.1421   -4.3756   23.7395 H   0  0  0  0  0  0  0  0  0  0  0  0
    6.7083   -4.9193   22.1105 H   0  0  0  0  0  0  0  0  0  0  0  0
    8.5255   -5.6008   25.3747 H   0  0  0  0  0  0  0  0  0  0  0  0
    9.7551   -6.8017   24.9300 H   0  0  0  0  0  0  0  0  0  0  0  0
    9.9796   -5.0866   24.4689 H   0  0  0  0  0  0  0  0  0  0  0  0
  1  2  1  0
  2  3  1  0
  3  4  1  0
  4  5  1  0
  5  6  2  0
  6  7  1  0
  7  8  1  0
  8  9  2  0
  9 10  1  0
 10 11  2  0
 11 12  1  0
 12 13  2  0
 13 14  1  0
 11 15  1  0
 10 16  1  0
  9 17  1  0
  7 18  1  0
 18 19  1  0
 19 20  2  0
 20 21  1  0
 21 22  1  0
 21 23  2  0
 23 24  1  0
 24 25  2  0
 25 26  1  0
 26 27  2  0
 27 28  1  0
 28 29  2  0
 28 30  1  0
 26 31  1  0
 25 32  1  0
 23 33  1  0
 20 34  1  0
 18 35  2  0
  4 36  1  0
  4 37  1  0
  3 38  1  0
  3 39  1  0
  1 40  1  0
  1 41  1  0
  1 42  1  0
 35  5  1  0
 13  8  1  0
 29 19  1  0
 29 24  1  0
M  END
>  <cnnaffinity>  (1) 
-5.62697

>  <filename>  (1) 
CSCCc1nc(-c2cc(F)cc3ccncc23)n(-c2cccnc2)n1

$$$$
