
     RDKit          3D

 42 44  0  0  0  0  0  0  0  0999 V2000
    5.8906   -5.0677   24.8625 C   0  0  0  0  0  0  0  0  0  0  0  0
    7.1451   -3.7973   24.6079 S   0  0  0  0  0  0  0  0  0  0  0  0
    7.7637   -4.4237   23.0307 C   0  0  0  0  0  0  0  0  0  0  0  0
    8.8149   -3.4988   22.4236 C   0  0  0  0  0  0  0  0  0  0  0  0
    8.3217   -2.1499   22.0864 C   0  0  0  0  0  0  0  0  0  0  0  0
    8.3790   -1.1020   22.8729 N   0  0  0  0  0  0  0  0  0  0  0  0
    7.8056   -0.1325   22.1124 N   0  0  0  0  0  0  0  0  0  0  0  0
    7.6142    1.2253   22.6222 C   0  0  0  0  0  0  0  0  0  0  0  0
    8.8681    1.6878   23.3607 C   0  0  0  0  0  0  0  0  0  0  0  0
    9.0294    1.0728   24.2549 H   0  0  0  0  0  0  0  0  0  0  0  0
    8.7407    2.7285   23.6637 H   0  0  0  0  0  0  0  0  0  0  0  0
    9.7511    1.5947   22.7213 H   0  0  0  0  0  0  0  0  0  0  0  0
    6.3623    1.3126   23.5001 C   0  0  0  0  0  0  0  0  0  0  0  0
    6.1205    0.4034   24.5423 C   0  0  0  0  0  0  0  0  0  0  0  0
    4.9873    0.5741   25.3377 C   0  0  0  0  0  0  0  0  0  0  0  0
    4.1008    1.5695   25.1671 N   0  0  0  0  0  0  0  0  0  0  0  0
    4.3402    2.4414   24.1799 C   0  0  0  0  0  0  0  0  0  0  0  0
    5.4428    2.3548   23.3258 C   0  0  0  0  0  0  0  0  0  0  0  0
    5.5716    3.0884   22.5349 H   0  0  0  0  0  0  0  0  0  0  0  0
    3.6116    3.2437   24.0610 H   0  0  0  0  0  0  0  0  0  0  0  0
    4.7737   -0.1110   26.1598 H   0  0  0  0  0  0  0  0  0  0  0  0
    6.7995   -0.4277   24.7226 H   0  0  0  0  0  0  0  0  0  0  0  0
    7.4432    1.8454   21.7338 H   0  0  0  0  0  0  0  0  0  0  0  0
    7.4073   -0.6673   20.9321 C   0  0  0  0  0  0  0  0  0  0  0  0
    6.6463    0.0329   19.9000 C   0  0  0  0  0  0  0  0  0  0  0  0
    5.4243    0.6730   20.1434 C   0  0  0  0  0  0  0  0  0  0  0  0
    4.7931    1.3242   19.0868 C   0  0  0  0  0  0  0  0  0  0  0  0
    5.4014    1.2983   17.8272 C   0  0  0  0  0  0  0  0  0  0  0  0
    6.5558    0.6613   17.5777 N   0  0  0  0  0  0  0  0  0  0  0  0
    7.1532    0.0353   18.5957 C   0  0  0  0  0  0  0  0  0  0  0  0
    8.0965   -0.4609   18.3727 H   0  0  0  0  0  0  0  0  0  0  0  0
    4.9436    1.8048   16.9792 H   0  0  0  0  0  0  0  0  0  0  0  0
    3.8592    1.8561   19.2246 H   0  0  0  0  0  0  0  0  0  0  0  0
    4.9865    0.6626   21.1434 H   0  0  0  0  0  0  0  0  0  0  0  0
    7.7576   -1.9327   20.8713 N   0  0  0  0  0  0  0  0  0  0  0  0
    9.7005   -3.4234   23.0594 H   0  0  0  0  0  0  0  0  0  0  0  0
    9.0611   -3.8966   21.4438 H   0  0  0  0  0  0  0  0  0  0  0  0
    8.1921   -5.4221   23.1814 H   0  0  0  0  0  0  0  0  0  0  0  0
    6.9217   -4.5169   22.3348 H   0  0  0  0  0  0  0  0  0  0  0  0
    6.3478   -6.0605   24.9087 H   0  0  0  0  0  0  0  0  0  0  0  0
    5.1501   -5.0452   24.0569 H   0  0  0  0  0  0  0  0  0  0  0  0
    5.3922   -4.8627   25.8117 H   0  0  0  0  0  0  0  0  0  0  0  0
  1  2  1  0
  2  3  1  0
  3  4  1  0
  4  5  1  0
  5  6  2  0
  6  7  1  0
  7  8  1  0
  8  9  1  0
  9 10  1  0
  9 11  1  0
  9 12  1  0
  8 13  1  0
 13 14  2  0
 14 15  1  0
 15 16  2  0
 16 17  1  0
 17 18  2  0
 18 19  1  0
 17 20  1  0
 15 21  1  0
 14 22  1  0
  8 23  1  0
  7 24  1  0
 24 25  1  0
 25 26  2  0
 26 27  1  0
 27 28  2  0
 28 29  1  0
 29 30  2  0
 30 31  1  0
 28 32  1  0
 27 33  1  0
 26 34  1  0
 24 35  2  0
  4 36  1  0
  4 37  1  0
  3 38  1  0
  3 39  1  0
  1 40  1  0
  1 41  1  0
  1 42  1  0
 35  5  1  0
 18 13  1  0
 30 25  1  0
M  END
>  <cnnaffinity>  (1) 
-5.48117

>  <filename>  (1) 
CSCCc1nc(-c2cccnc2)n(C(C)c2ccncc2)n1

$$$$
