
     RDKit          3D

 23 23  0  0  0  0  0  0  0  0999 V2000
    4.9044    1.7709   17.0073 H   0  0  0  0  0  0  0  0  0  0  0  0
    5.3984    1.2912   17.8476 C   0  0  0  0  0  0  0  0  0  0  0  0
    6.5676    0.6845   17.5825 N   0  0  0  0  0  0  0  0  0  0  0  0
    7.1783    0.0632   18.5970 C   0  0  0  0  0  0  0  0  0  0  0  0
    8.1310   -0.4352   18.3817 H   0  0  0  0  0  0  0  0  0  0  0  0
    6.6536    0.0030   19.9005 C   0  0  0  0  0  0  0  0  0  0  0  0
    7.4022   -0.7080   20.9899 C   0  0  0  0  0  0  0  0  0  0  0  0
    7.8170   -1.6350   20.5792 H   0  0  0  0  0  0  0  0  0  0  0  0
    6.7046   -1.0007   21.7787 H   0  0  0  0  0  0  0  0  0  0  0  0
    8.5409    0.1263   21.5879 C   0  0  1  0  0  0  0  0  0  0  0  0
    9.0902   -0.4936   22.3029 H   0  0  0  0  0  0  0  0  0  0  0  0
    9.4493    0.4353   20.5700 F   0  0  0  0  0  0  0  0  0  0  0  0
    8.1251    1.4460   22.2441 C   0  0  0  0  0  0  0  0  0  0  0  0
    9.0170    2.0608   22.3994 H   0  0  0  0  0  0  0  0  0  0  0  0
    7.4495    2.0194   21.5980 H   0  0  0  0  0  0  0  0  0  0  0  0
    7.4705    1.2715   23.5978 C   0  0  0  0  0  0  0  0  0  0  0  0
    8.2343    0.5309   24.4275 F   0  0  0  0  0  0  0  0  0  0  0  0
    7.2680    2.4584   24.1935 F   0  0  0  0  0  0  0  0  0  0  0  0
    6.2675    0.6615   23.5121 F   0  0  0  0  0  0  0  0  0  0  0  0
    5.4432    0.6525   20.1557 C   0  0  0  0  0  0  0  0  0  0  0  0
    5.0143    0.6280   21.1563 H   0  0  0  0  0  0  0  0  0  0  0  0
    4.8021    1.3147   19.1108 C   0  0  0  0  0  0  0  0  0  0  0  0
    3.8701    1.8470   19.2676 H   0  0  0  0  0  0  0  0  0  0  0  0
  1  2  1  0
  2  3  2  0
  3  4  1  0
  4  5  1  0
  4  6  2  0
  6  7  1  0
  7  8  1  0
  7  9  1  0
  7 10  1  0
 10 11  1  1
 10 12  1  0
 10 13  1  0
 13 14  1  0
 13 15  1  0
 13 16  1  0
 16 17  1  0
 16 18  1  0
 16 19  1  0
  6 20  1  0
 20 21  1  0
 20 22  2  0
 22 23  1  0
 22  2  1  0
M  END
>  <cnnaffinity>  (1) 
-4.34209

>  <filename>  (1) 
F[C@H](Cc1cccnc1)CC(F)(F)F

$$$$
