
     RDKit          3D

 25 26  0  0  0  0  0  0  0  0999 V2000
   11.8779    2.7297   21.8124 H   0  0  0  0  0  0  0  0  0  0  0  0
   10.8100    2.5167   21.9134 C   0  0  0  0  0  0  0  0  0  0  0  0
   10.4026    1.3270   21.4560 N   0  0  0  0  0  0  0  0  0  0  0  0
    9.0973    1.0688   21.5719 C   0  0  0  0  0  0  0  0  0  0  0  0
    8.7605   -0.1521   21.1074 N   0  0  0  0  0  0  0  0  0  0  0  0
    9.5616   -0.6931   20.8412 H   0  0  0  0  0  0  0  0  0  0  0  0
    7.4469   -0.6466   20.9987 C   0  0  2  0  0  0  0  0  0  0  0  0
    6.9049   -0.5770   21.9584 H   0  0  0  0  0  0  0  0  0  0  0  0
    7.6041   -1.9850   20.6927 F   0  0  0  0  0  0  0  0  0  0  0  0
    6.6603    0.0401   19.9240 C   0  0  0  0  0  0  0  0  0  0  0  0
    7.1828    0.0718   18.6260 C   0  0  0  0  0  0  0  0  0  0  0  0
    8.1221   -0.4291   18.3927 H   0  0  0  0  0  0  0  0  0  0  0  0
    6.5727    0.6705   17.5966 N   0  0  0  0  0  0  0  0  0  0  0  0
    5.4061    1.2875   17.8418 C   0  0  0  0  0  0  0  0  0  0  0  0
    4.9410    1.7833   16.9930 H   0  0  0  0  0  0  0  0  0  0  0  0
    4.7968    1.3087   19.1005 C   0  0  0  0  0  0  0  0  0  0  0  0
    3.8632    1.8417   19.2384 H   0  0  0  0  0  0  0  0  0  0  0  0
    5.4335    0.6661   20.1631 C   0  0  0  0  0  0  0  0  0  0  0  0
    4.9779    0.6454   21.1573 H   0  0  0  0  0  0  0  0  0  0  0  0
    8.1567    1.9454   22.1349 C   0  0  0  0  0  0  0  0  0  0  0  0
    7.1273    1.6222   22.1800 H   0  0  0  0  0  0  0  0  0  0  0  0
    8.5977    3.1756   22.5961 C   0  0  0  0  0  0  0  0  0  0  0  0
    7.8930    3.8962   23.0164 H   0  0  0  0  0  0  0  0  0  0  0  0
    9.9645    3.4632   22.4932 C   0  0  0  0  0  0  0  0  0  0  0  0
   10.3673    4.4154   22.8073 H   0  0  0  0  0  0  0  0  0  0  0  0
  1  2  1  0
  2  3  2  0
  3  4  1  0
  4  5  1  0
  5  6  1  0
  5  7  1  0
  7  8  1  1
  7  9  1  0
  7 10  1  0
 10 11  2  0
 11 12  1  0
 11 13  1  0
 13 14  2  0
 14 15  1  0
 14 16  1  0
 16 17  1  0
 16 18  2  0
 18 19  1  0
  4 20  2  0
 20 21  1  0
 20 22  1  0
 22 23  1  0
 22 24  2  0
 24 25  1  0
 24  2  1  0
 18 10  1  0
M  END
>  <cnnaffinity>  (1) 
-4.50584

>  <filename>  (1) 
F[C@@H](Nc1ccccn1)c1cccnc1

$$$$
