
     RDKit          3D

 34 35  0  0  0  0  0  0  0  0999 V2000
    7.9176   -1.6226   20.6318 H   0  0  0  0  0  0  0  0  0  0  0  0
    7.3747   -0.7242   20.9244 C   0  0  0  0  0  0  0  0  0  0  0  0
    7.5036   -0.3619   22.2025 C   0  0  0  0  0  0  0  0  0  0  0  0
    7.0081    0.8166   22.6505 F   0  0  0  0  0  0  0  0  0  0  0  0
    8.2965   -1.0972   23.2336 C   0  0  0  0  0  0  0  0  0  0  0  0
    7.8264   -0.9490   24.2143 H   0  0  0  0  0  0  0  0  0  0  0  0
    8.2217   -2.1639   22.9876 H   0  0  0  0  0  0  0  0  0  0  0  0
    9.7917   -0.6963   23.2833 C   0  0  0  0  0  0  0  0  0  0  0  0
   10.2467   -1.3255   24.0622 H   0  0  0  0  0  0  0  0  0  0  0  0
   10.5502   -0.9906   21.9712 C   0  0  0  0  0  0  0  0  0  0  0  0
   10.4341   -2.0455   21.6879 H   0  0  0  0  0  0  0  0  0  0  0  0
   10.1294   -0.3952   21.1476 H   0  0  0  0  0  0  0  0  0  0  0  0
   12.0389   -0.6395   22.0911 C   0  0  0  0  0  0  0  0  0  0  0  0
   12.5126   -1.3060   22.8171 H   0  0  0  0  0  0  0  0  0  0  0  0
   12.5486   -0.8500   21.1470 H   0  0  0  0  0  0  0  0  0  0  0  0
   12.2441    0.8184   22.5347 C   0  0  0  0  0  0  0  0  0  0  0  0
   13.3108    1.0357   22.6658 H   0  0  0  0  0  0  0  0  0  0  0  0
   11.8869    1.4870   21.7379 H   0  0  0  0  0  0  0  0  0  0  0  0
   11.4729    1.1302   23.8289 C   0  0  0  0  0  0  0  0  0  0  0  0
   11.5850    2.1872   24.0975 H   0  0  0  0  0  0  0  0  0  0  0  0
   11.9069    0.5517   24.6580 H   0  0  0  0  0  0  0  0  0  0  0  0
    9.9861    0.7723   23.6984 C   0  0  0  0  0  0  0  0  0  0  0  0
    9.5147    1.4282   22.9548 H   0  0  0  0  0  0  0  0  0  0  0  0
    9.4577    0.9611   24.6412 H   0  0  0  0  0  0  0  0  0  0  0  0
    6.6456    0.0003   19.8756 C   0  0  0  0  0  0  0  0  0  0  0  0
    7.1552    0.0580   18.5667 C   0  0  0  0  0  0  0  0  0  0  0  0
    8.1103   -0.4218   18.3553 H   0  0  0  0  0  0  0  0  0  0  0  0
    6.5586    0.6866   17.5513 N   0  0  0  0  0  0  0  0  0  0  0  0
    5.3919    1.2987   17.8244 C   0  0  0  0  0  0  0  0  0  0  0  0
    4.9113    1.7912   16.9855 H   0  0  0  0  0  0  0  0  0  0  0  0
    4.8000    1.3137   19.0906 C   0  0  0  0  0  0  0  0  0  0  0  0
    3.8723    1.8456   19.2502 H   0  0  0  0  0  0  0  0  0  0  0  0
    5.4343    0.6592   20.1457 C   0  0  0  0  0  0  0  0  0  0  0  0
    5.0219    0.6363   21.1569 H   0  0  0  0  0  0  0  0  0  0  0  0
  1  2  1  0
  2  3  2  3
  3  4  1  0
  3  5  1  0
  5  6  1  0
  5  7  1  0
  5  8  1  0
  8  9  1  0
  8 10  1  0
 10 11  1  0
 10 12  1  0
 10 13  1  0
 13 14  1  0
 13 15  1  0
 13 16  1  0
 16 17  1  0
 16 18  1  0
 16 19  1  0
 19 20  1  0
 19 21  1  0
 19 22  1  0
 22 23  1  0
 22 24  1  0
  2 25  1  0
 25 26  2  0
 26 27  1  0
 26 28  1  0
 28 29  2  0
 29 30  1  0
 29 31  1  0
 31 32  1  0
 31 33  2  0
 33 34  1  0
 22  8  1  0
 33 25  1  0
M  END
>  <cnnaffinity>  (1) 
-5.26443

>  <filename>  (1) 
FC(=Cc1cccnc1)CC1CCCCC1

$$$$
