
     RDKit          3D

 26 27  0  0  0  0  0  0  0  0999 V2000
    7.7061   -1.7647   20.7167 H   0  0  0  0  0  0  0  0  0  0  0  0
    7.3598   -0.7509   20.9352 C   0  0  0  0  0  0  0  0  0  0  0  0
    7.6534   -0.2521   22.1444 C   0  0  0  0  0  0  0  0  0  0  0  0
    8.1557   -1.0927   23.0587 F   0  0  0  0  0  0  0  0  0  0  0  0
    7.4840    1.1549   22.6217 C   0  0  0  0  0  0  0  0  0  0  0  0
    7.5156    2.1282   21.7001 N   0  0  0  0  0  0  0  0  0  0  0  0
    7.3558    3.3693   22.1552 C   0  0  0  0  0  0  0  0  0  0  0  0
    7.3690    4.1683   21.4239 H   0  0  0  0  0  0  0  0  0  0  0  0
    7.1816    3.6774   23.5006 C   0  0  0  0  0  0  0  0  0  0  0  0
    7.0733    4.7013   23.8318 H   0  0  0  0  0  0  0  0  0  0  0  0
    7.1706    2.5972   24.3870 C   0  0  0  0  0  0  0  0  0  0  0  0
    7.0051    2.8495   25.9198 C   0  0  0  0  0  0  0  0  0  0  0  0
    8.0030    3.6347   26.3780 F   0  0  0  0  0  0  0  0  0  0  0  0
    6.9887    1.7452   26.6654 F   0  0  0  0  0  0  0  0  0  0  0  0
    5.8613    3.5224   26.1651 F   0  0  0  0  0  0  0  0  0  0  0  0
    7.3205    1.3470   23.9344 N   0  0  0  0  0  0  0  0  0  0  0  0
    6.6346   -0.0073   19.8884 C   0  0  0  0  0  0  0  0  0  0  0  0
    7.1603    0.0673   18.5853 C   0  0  0  0  0  0  0  0  0  0  0  0
    8.1101   -0.4167   18.3686 H   0  0  0  0  0  0  0  0  0  0  0  0
    6.5651    0.6883   17.5627 N   0  0  0  0  0  0  0  0  0  0  0  0
    5.3986    1.2993   17.8268 C   0  0  0  0  0  0  0  0  0  0  0  0
    4.9183    1.7923   16.9856 H   0  0  0  0  0  0  0  0  0  0  0  0
    4.7953    1.3068   19.0888 C   0  0  0  0  0  0  0  0  0  0  0  0
    3.8731    1.8468   19.2493 H   0  0  0  0  0  0  0  0  0  0  0  0
    5.4170    0.6355   20.1420 C   0  0  0  0  0  0  0  0  0  0  0  0
    5.0031    0.6355   21.1556 H   0  0  0  0  0  0  0  0  0  0  0  0
  1  2  1  0
  2  3  2  3
  3  4  1  0
  3  5  1  0
  5  6  2  0
  6  7  1  0
  7  8  1  0
  7  9  2  0
  9 10  1  0
  9 11  1  0
 11 12  1  0
 12 13  1  0
 12 14  1  0
 12 15  1  0
 11 16  2  0
  2 17  1  0
 17 18  2  0
 18 19  1  0
 18 20  1  0
 20 21  2  0
 21 22  1  0
 21 23  1  0
 23 24  1  0
 23 25  2  0
 25 26  1  0
 16  5  1  0
 25 17  1  0
M  END
>  <cnnaffinity>  (1) 
-4.79825

>  <filename>  (1) 
FC(=Cc1cccnc1)c1nccc(C(F)(F)F)n1

$$$$
