
     RDKit          3D

 29 30  0  0  0  0  0  0  0  0999 V2000
    6.6370   -1.0559   21.7260 H   0  0  0  0  0  0  0  0  0  0  0  0
    7.2790   -0.6135   20.9669 C   0  0  0  0  0  0  0  0  0  0  0  0
    8.5946   -0.6887   21.1933 C   0  0  0  0  0  0  0  0  0  0  0  0
    9.4516   -0.0824   20.3295 F   0  0  0  0  0  0  0  0  0  0  0  0
    9.2736   -1.4153   22.2933 C   0  0  0  0  0  0  0  0  0  0  0  0
   10.5503   -1.9680   22.0842 C   0  0  0  0  0  0  0  0  0  0  0  0
   11.0874   -1.7560   21.1607 H   0  0  0  0  0  0  0  0  0  0  0  0
   11.1052   -2.8006   23.0608 C   0  0  0  0  0  0  0  0  0  0  0  0
   12.0632   -3.2851   22.8905 H   0  0  0  0  0  0  0  0  0  0  0  0
   10.4579   -3.0233   24.2807 C   0  0  0  0  0  0  0  0  0  0  0  0
   10.8680   -3.6455   25.0722 H   0  0  0  0  0  0  0  0  0  0  0  0
    9.2315   -2.4048   24.5136 C   0  0  0  0  0  0  0  0  0  0  0  0
    8.6981   -2.6376   25.7837 O   0  0  0  0  0  0  0  0  0  0  0  0
    7.4392   -2.2583   26.0794 C   0  0  0  0  0  0  0  0  0  0  0  0
    6.5348   -2.7676   25.2267 F   0  0  0  0  0  0  0  0  0  0  0  0
    7.2945   -0.9214   26.0565 F   0  0  0  0  0  0  0  0  0  0  0  0
    7.1682   -2.6948   27.3009 F   0  0  0  0  0  0  0  0  0  0  0  0
    8.6187   -1.6316   23.5269 C   0  0  0  0  0  0  0  0  0  0  0  0
    7.6485   -1.2004   23.7201 H   0  0  0  0  0  0  0  0  0  0  0  0
    6.5927    0.0379   19.8360 C   0  0  0  0  0  0  0  0  0  0  0  0
    7.1258    0.1009   18.5300 C   0  0  0  0  0  0  0  0  0  0  0  0
    8.0763   -0.3833   18.3114 H   0  0  0  0  0  0  0  0  0  0  0  0
    6.5261    0.7211   17.5039 N   0  0  0  0  0  0  0  0  0  0  0  0
    5.3620    1.3402   17.7557 C   0  0  0  0  0  0  0  0  0  0  0  0
    4.9121    1.8728   16.9186 H   0  0  0  0  0  0  0  0  0  0  0  0
    4.7362    1.3260   19.0072 C   0  0  0  0  0  0  0  0  0  0  0  0
    3.8065    1.8613   19.1451 H   0  0  0  0  0  0  0  0  0  0  0  0
    5.3481    0.6479   20.0605 C   0  0  0  0  0  0  0  0  0  0  0  0
    4.8988    0.6224   21.0546 H   0  0  0  0  0  0  0  0  0  0  0  0
  1  2  1  0
  2  3  2  3
  3  4  1  0
  3  5  1  0
  5  6  2  0
  6  7  1  0
  6  8  1  0
  8  9  1  0
  8 10  2  0
 10 11  1  0
 10 12  1  0
 12 13  1  0
 13 14  1  0
 14 15  1  0
 14 16  1  0
 14 17  1  0
 12 18  2  0
 18 19  1  0
  2 20  1  0
 20 21  2  0
 21 22  1  0
 21 23  1  0
 23 24  2  0
 24 25  1  0
 24 26  1  0
 26 27  1  0
 26 28  2  0
 28 29  1  0
 18  5  1  0
 28 20  1  0
M  END
>  <cnnaffinity>  (1) 
-5.16437

>  <filename>  (1) 
FC(=Cc1cccnc1)c1cccc(OC(F)(F)F)c1

$$$$
