
     RDKit          3D

 29 31  0  0  0  0  0  0  0  0999 V2000
    8.4076   -0.6936   20.8413 H   0  0  0  0  0  0  0  0  0  0  0  0
    7.3242   -0.7940   20.7968 C   0  0  0  0  0  0  0  0  0  0  0  0
    6.7553   -1.6333   21.6724 C   0  0  0  0  0  0  0  0  0  0  0  0
    5.4664   -2.0123   21.4869 F   0  0  0  0  0  0  0  0  0  0  0  0
    7.3627   -2.2952   22.8204 C   0  0  0  0  0  0  0  0  0  0  0  0
    6.7552   -3.1349   23.7164 C   0  0  0  0  0  0  0  0  0  0  0  0
    5.7021   -3.3692   23.7623 H   0  0  0  0  0  0  0  0  0  0  0  0
    7.7653   -3.6715   24.5616 C   0  0  0  0  0  0  0  0  0  0  0  0
    7.7456   -4.6142   25.6113 C   0  0  0  0  0  0  0  0  0  0  0  0
    6.7970   -5.0540   25.9157 H   0  0  0  0  0  0  0  0  0  0  0  0
    8.9413   -4.9631   26.2237 C   0  0  0  0  0  0  0  0  0  0  0  0
    8.9414   -5.6823   27.0407 H   0  0  0  0  0  0  0  0  0  0  0  0
   10.1703   -4.4045   25.7895 C   0  0  0  0  0  0  0  0  0  0  0  0
   11.1087   -4.6869   26.2683 H   0  0  0  0  0  0  0  0  0  0  0  0
   10.2089   -3.4867   24.7438 C   0  0  0  0  0  0  0  0  0  0  0  0
   11.1482   -3.0900   24.3833 H   0  0  0  0  0  0  0  0  0  0  0  0
    8.9938   -3.1069   24.1495 C   0  0  0  0  0  0  0  0  0  0  0  0
    8.7310   -2.2525   23.1007 N   0  0  0  0  0  0  0  0  0  0  0  0
    9.3352   -1.4827   22.8635 H   0  0  0  0  0  0  0  0  0  0  0  0
    6.6294   -0.0105   19.7516 C   0  0  0  0  0  0  0  0  0  0  0  0
    7.2120    0.1442   18.4737 C   0  0  0  0  0  0  0  0  0  0  0  0
    8.1781   -0.3088   18.2617 H   0  0  0  0  0  0  0  0  0  0  0  0
    6.6498    0.8095   17.4601 N   0  0  0  0  0  0  0  0  0  0  0  0
    5.4704    1.4088   17.6994 C   0  0  0  0  0  0  0  0  0  0  0  0
    5.0277    1.9537   16.8654 H   0  0  0  0  0  0  0  0  0  0  0  0
    4.8170    1.3495   18.9333 C   0  0  0  0  0  0  0  0  0  0  0  0
    3.8806    1.8769   19.0664 H   0  0  0  0  0  0  0  0  0  0  0  0
    5.3948    0.6215   19.9766 C   0  0  0  0  0  0  0  0  0  0  0  0
    4.9180    0.5455   20.9537 H   0  0  0  0  0  0  0  0  0  0  0  0
  1  2  1  0
  2  3  2  3
  3  4  1  0
  3  5  1  0
  5  6  2  0
  6  7  1  0
  6  8  1  0
  8  9  2  0
  9 10  1  0
  9 11  1  0
 11 12  1  0
 11 13  2  0
 13 14  1  0
 13 15  1  0
 15 16  1  0
 15 17  2  0
 17 18  1  0
 18 19  1  0
  2 20  1  0
 20 21  2  0
 21 22  1  0
 21 23  1  0
 23 24  2  0
 24 25  1  0
 24 26  1  0
 26 27  1  0
 26 28  2  0
 28 29  1  0
 18  5  1  0
 28 20  1  0
 17  8  1  0
M  END
>  <cnnaffinity>  (1) 
-4.4328

>  <filename>  (1) 
FC(=Cc1cccnc1)c1cc2ccccc2[nH]1

$$$$
