
     RDKit          3D

 27 29  0  0  0  0  0  0  0  0999 V2000
    8.4719   -0.5209   20.9460 H   0  0  0  0  0  0  0  0  0  0  0  0
    7.4021   -0.7170   20.8496 C   0  0  0  0  0  0  0  0  0  0  0  0
    6.8709   -1.5807   21.7284 C   0  0  0  0  0  0  0  0  0  0  0  0
    5.6160   -2.0396   21.5859 F   0  0  0  0  0  0  0  0  0  0  0  0
    7.6528   -2.1812   22.8389 C   0  0  0  0  0  0  0  0  0  0  0  0
    8.9477   -2.1818   22.9232 N   0  0  0  0  0  0  0  0  0  0  0  0
    9.2222   -2.9772   24.0316 C   0  0  0  0  0  0  0  0  0  0  0  0
   10.4321   -3.4681   24.5605 C   0  0  0  0  0  0  0  0  0  0  0  0
   11.3770   -3.2499   24.0784 H   0  0  0  0  0  0  0  0  0  0  0  0
   10.3797   -4.3005   25.6803 C   0  0  0  0  0  0  0  0  0  0  0  0
   11.3138   -4.6901   26.0786 H   0  0  0  0  0  0  0  0  0  0  0  0
    9.1487   -4.6498   26.2718 C   0  0  0  0  0  0  0  0  0  0  0  0
    9.1331   -5.2835   27.1572 H   0  0  0  0  0  0  0  0  0  0  0  0
    7.9381   -4.1988   25.7298 C   0  0  0  0  0  0  0  0  0  0  0  0
    6.9798   -4.4821   26.1443 H   0  0  0  0  0  0  0  0  0  0  0  0
    8.0108   -3.3756   24.6052 C   0  0  0  0  0  0  0  0  0  0  0  0
    7.0016   -2.8577   23.8326 O   0  0  0  0  0  0  0  0  0  0  0  0
    6.6695    0.0091   19.7880 C   0  0  0  0  0  0  0  0  0  0  0  0
    7.1891    0.1277   18.4788 C   0  0  0  0  0  0  0  0  0  0  0  0
    8.1526   -0.3224   18.2380 H   0  0  0  0  0  0  0  0  0  0  0  0
    6.5771    0.7717   17.4813 N   0  0  0  0  0  0  0  0  0  0  0  0
    5.3984    1.3572   17.7574 C   0  0  0  0  0  0  0  0  0  0  0  0
    4.9084    1.8574   16.9230 H   0  0  0  0  0  0  0  0  0  0  0  0
    4.8074    1.3257   19.0230 C   0  0  0  0  0  0  0  0  0  0  0  0
    3.8681    1.8391   19.1808 H   0  0  0  0  0  0  0  0  0  0  0  0
    5.4444    0.6395   20.0548 C   0  0  0  0  0  0  0  0  0  0  0  0
    5.0298    0.6224   21.0640 H   0  0  0  0  0  0  0  0  0  0  0  0
  1  2  1  0
  2  3  2  3
  3  4  1  0
  3  5  1  0
  5  6  2  0
  6  7  1  0
  7  8  2  0
  8  9  1  0
  8 10  1  0
 10 11  1  0
 10 12  2  0
 12 13  1  0
 12 14  1  0
 14 15  1  0
 14 16  2  0
 16 17  1  0
  2 18  1  0
 18 19  2  0
 19 20  1  0
 19 21  1  0
 21 22  2  0
 22 23  1  0
 22 24  1  0
 24 25  1  0
 24 26  2  0
 26 27  1  0
 17  5  1  0
 26 18  1  0
 16  7  1  0
M  END
>  <cnnaffinity>  (1) 
-4.64441

>  <filename>  (1) 
FC(=Cc1cccnc1)c1nc2ccccc2o1

$$$$
