
     RDKit          3D

 25 26  0  0  0  0  0  0  0  0999 V2000
    6.6774   -1.1130   21.7516 H   0  0  0  0  0  0  0  0  0  0  0  0
    7.3064   -0.6524   20.9948 C   0  0  0  0  0  0  0  0  0  0  0  0
    8.6258   -0.7093   21.2300 C   0  0  0  0  0  0  0  0  0  0  0  0
    9.4886   -0.1091   20.3817 F   0  0  0  0  0  0  0  0  0  0  0  0
    9.2810   -1.3809   22.3731 C   0  0  0  0  0  0  0  0  0  0  0  0
   10.5127   -2.0489   22.2254 C   0  0  0  0  0  0  0  0  0  0  0  0
   11.2099   -1.9145   21.0955 F   0  0  0  0  0  0  0  0  0  0  0  0
   11.0676   -2.8491   23.2107 C   0  0  0  0  0  0  0  0  0  0  0  0
   11.9915   -3.3607   22.9768 H   0  0  0  0  0  0  0  0  0  0  0  0
   10.4582   -2.9221   24.4616 C   0  0  0  0  0  0  0  0  0  0  0  0
   10.8999   -3.5470   25.2312 H   0  0  0  0  0  0  0  0  0  0  0  0
    9.3032   -2.1801   24.7182 C   0  0  0  0  0  0  0  0  0  0  0  0
    8.8382   -2.1330   25.6974 H   0  0  0  0  0  0  0  0  0  0  0  0
    8.7322   -1.4523   23.6758 C   0  0  0  0  0  0  0  0  0  0  0  0
    7.6189   -0.7586   23.9725 F   0  0  0  0  0  0  0  0  0  0  0  0
    6.6152    0.0029   19.8597 C   0  0  0  0  0  0  0  0  0  0  0  0
    7.1397    0.0785   18.5491 C   0  0  0  0  0  0  0  0  0  0  0  0
    8.0967   -0.3845   18.3125 H   0  0  0  0  0  0  0  0  0  0  0  0
    6.5295    0.7023   17.5318 N   0  0  0  0  0  0  0  0  0  0  0  0
    5.3671    1.3215   17.7877 C   0  0  0  0  0  0  0  0  0  0  0  0
    4.9146    1.8524   16.9527 H   0  0  0  0  0  0  0  0  0  0  0  0
    4.7497    1.3192   19.0425 C   0  0  0  0  0  0  0  0  0  0  0  0
    3.8227    1.8722   19.1830 H   0  0  0  0  0  0  0  0  0  0  0  0
    5.3811    0.6403   20.0860 C   0  0  0  0  0  0  0  0  0  0  0  0
    4.9480    0.6376   21.0837 H   0  0  0  0  0  0  0  0  0  0  0  0
  1  2  1  0
  2  3  2  3
  3  4  1  0
  3  5  1  0
  5  6  2  0
  6  7  1  0
  6  8  1  0
  8  9  1  0
  8 10  2  0
 10 11  1  0
 10 12  1  0
 12 13  1  0
 12 14  2  0
 14 15  1  0
  2 16  1  0
 16 17  2  0
 17 18  1  0
 17 19  1  0
 19 20  2  0
 20 21  1  0
 20 22  1  0
 22 23  1  0
 22 24  2  0
 24 25  1  0
 14  5  1  0
 24 16  1  0
M  END
>  <cnnaffinity>  (1) 
-4.68547

>  <filename>  (1) 
FC(=Cc1cccnc1)c1c(F)cccc1F

$$$$
