
     RDKit          3D

 32 34  0  0  0  0  0  0  0  0999 V2000
    5.1813   -2.1909   27.7457 F   0  0  0  0  0  0  0  0  0  0  0  0
    5.3722   -2.4685   26.4402 C   0  0  0  0  0  0  0  0  0  0  0  0
    4.2731   -3.1392   26.0337 F   0  0  0  0  0  0  0  0  0  0  0  0
    5.3756   -1.2894   25.7976 F   0  0  0  0  0  0  0  0  0  0  0  0
    6.6403   -3.2875   26.1956 C   0  0  0  0  0  0  0  0  0  0  0  0
    7.1210   -4.0625   27.2641 C   0  0  0  0  0  0  0  0  0  0  0  0
    8.3011   -4.7997   27.1490 C   0  0  0  0  0  0  0  0  0  0  0  0
    9.0096   -4.7929   25.9468 C   0  0  0  0  0  0  0  0  0  0  0  0
    8.5188   -4.0617   24.8680 C   0  0  0  0  0  0  0  0  0  0  0  0
    7.3159   -3.3351   24.9479 C   0  0  0  0  0  0  0  0  0  0  0  0
    6.7746   -2.8019   23.6545 C   0  0  0  0  0  0  0  0  0  0  0  0
    5.6279   -3.2845   23.1103 C   0  0  0  0  0  0  0  0  0  0  0  0
    5.4244   -2.6980   21.4985 S   0  0  0  0  0  0  0  0  0  0  0  0
    6.8650   -1.7492   21.7249 C   0  0  0  0  0  0  0  0  0  0  0  0
    7.4316   -0.8674   20.8335 N   0  0  0  0  0  0  0  0  0  0  0  0
    6.7313   -0.1059   19.8479 C   0  0  0  0  0  0  0  0  0  0  0  0
    5.5375    0.5686   20.1427 C   0  0  0  0  0  0  0  0  0  0  0  0
    4.8902    1.2668   19.1137 C   0  0  0  0  0  0  0  0  0  0  0  0
    5.4632    1.2966   17.8374 C   0  0  0  0  0  0  0  0  0  0  0  0
    6.6244    0.6866   17.5478 N   0  0  0  0  0  0  0  0  0  0  0  0
    7.2345    0.0162   18.5316 C   0  0  0  0  0  0  0  0  0  0  0  0
    8.1897   -0.4484   18.2969 H   0  0  0  0  0  0  0  0  0  0  0  0
    4.9765    1.8163   17.0156 H   0  0  0  0  0  0  0  0  0  0  0  0
    3.9555    1.7923   19.2889 H   0  0  0  0  0  0  0  0  0  0  0  0
    5.1524    0.5640   21.1616 H   0  0  0  0  0  0  0  0  0  0  0  0
    8.1448   -0.4204   21.4002 H   0  0  0  0  0  0  0  0  0  0  0  0
    7.4965   -1.9469   22.8429 N   0  0  0  0  0  0  0  0  0  0  0  0
    4.9264   -3.9554   23.5874 H   0  0  0  0  0  0  0  0  0  0  0  0
    9.0579   -4.0437   23.9253 H   0  0  0  0  0  0  0  0  0  0  0  0
    9.9254   -5.3726   25.8395 H   0  0  0  0  0  0  0  0  0  0  0  0
    8.6636   -5.3763   27.9926 H   0  0  0  0  0  0  0  0  0  0  0  0
    6.5576   -4.1042   28.1923 H   0  0  0  0  0  0  0  0  0  0  0  0
  1  2  1  0
  2  3  1  0
  2  4  1  0
  2  5  1  0
  5  6  2  0
  6  7  1  0
  7  8  2  0
  8  9  1  0
  9 10  2  0
 10 11  1  0
 11 12  2  0
 12 13  1  0
 13 14  1  0
 14 15  1  0
 15 16  1  0
 16 17  2  0
 17 18  1  0
 18 19  2  0
 19 20  1  0
 20 21  2  0
 21 22  1  0
 19 23  1  0
 18 24  1  0
 17 25  1  0
 15 26  1  0
 14 27  2  0
 12 28  1  0
  9 29  1  0
  8 30  1  0
  7 31  1  0
  6 32  1  0
 10  5  1  0
 27 11  1  0
 21 16  1  0
M  END
>  <cnnaffinity>  (1) 
-5.24547

>  <filename>  (1) 
FC(F)(F)c1ccccc1-c1csc(Nc2cccnc2)n1

$$$$
