
     RDKit          3D

 39 42  0  0  0  0  0  0  0  0999 V2000
   11.9121   -0.8022   20.7966 F   0  0  0  0  0  0  0  0  0  0  0  0
   11.5338   -0.5871   22.0718 C   0  0  0  0  0  0  0  0  0  0  0  0
   12.6110   -0.1421   22.7494 F   0  0  0  0  0  0  0  0  0  0  0  0
   10.6220    0.3963   22.0769 F   0  0  0  0  0  0  0  0  0  0  0  0
   11.0332   -1.8662   22.6885 C   0  0  0  0  0  0  0  0  0  0  0  0
    9.9037   -2.5769   21.9451 C   0  0  0  0  0  0  0  0  0  0  0  0
    8.6603   -1.8311   21.7849 N   0  0  0  0  0  0  0  0  0  0  0  0
    8.3124   -1.4303   20.5402 N   0  0  0  0  0  0  0  0  0  0  0  0
    7.2434   -0.6867   20.7390 C   0  0  0  0  0  0  0  0  0  0  0  0
    6.5333    0.0272   19.6797 C   0  0  0  0  0  0  0  0  0  0  0  0
    5.3245    0.7112   19.8962 C   0  0  0  0  0  0  0  0  0  0  0  0
    4.7620    1.3991   18.8266 C   0  0  0  0  0  0  0  0  0  0  0  0
    5.4224    1.3906   17.5934 C   0  0  0  0  0  0  0  0  0  0  0  0
    6.5778    0.7406   17.3797 N   0  0  0  0  0  0  0  0  0  0  0  0
    7.1134    0.0773   18.4074 C   0  0  0  0  0  0  0  0  0  0  0  0
    8.0581   -0.4337   18.2155 H   0  0  0  0  0  0  0  0  0  0  0  0
    5.0067    1.9222   16.7408 H   0  0  0  0  0  0  0  0  0  0  0  0
    3.8384    1.9580   18.9361 H   0  0  0  0  0  0  0  0  0  0  0  0
    4.8534    0.7254   20.8810 H   0  0  0  0  0  0  0  0  0  0  0  0
    6.8770   -0.5988   22.0258 N   0  0  0  0  0  0  0  0  0  0  0  0
    7.7646   -1.3384   22.6840 C   0  0  0  0  0  0  0  0  0  0  0  0
    7.7033   -1.6202   24.1186 C   0  0  0  0  0  0  0  0  0  0  0  0
    6.7894   -0.9849   24.9740 C   0  0  0  0  0  0  0  0  0  0  0  0
    5.8049    0.0341   24.8255 C   0  0  0  0  0  0  0  0  0  0  0  0
    5.0775    0.4356   25.9232 C   0  0  0  0  0  0  0  0  0  0  0  0
    5.3096   -0.1719   27.2015 C   0  0  0  0  0  0  0  0  0  0  0  0
    6.2478   -1.1587   27.3319 C   0  0  0  0  0  0  0  0  0  0  0  0
    6.9926   -1.5611   26.2245 N   0  0  0  0  0  0  0  0  0  0  0  0
    8.0047   -2.4845   26.0563 C   0  0  0  0  0  0  0  0  0  0  0  0
    8.4537   -2.5355   24.8210 N   0  0  0  0  0  0  0  0  0  0  0  0
    8.3692   -3.0792   26.8805 H   0  0  0  0  0  0  0  0  0  0  0  0
    6.4518   -1.6644   28.2653 H   0  0  0  0  0  0  0  0  0  0  0  0
    4.7380    0.1623   28.0686 H   0  0  0  0  0  0  0  0  0  0  0  0
    4.3218    1.2103   25.8291 H   0  0  0  0  0  0  0  0  0  0  0  0
    5.6580    0.4434   23.8369 H   0  0  0  0  0  0  0  0  0  0  0  0
    9.6821   -3.5093   22.4714 H   0  0  0  0  0  0  0  0  0  0  0  0
   10.2032   -2.8018   20.9209 H   0  0  0  0  0  0  0  0  0  0  0  0
   11.8892   -2.5495   22.6956 H   0  0  0  0  0  0  0  0  0  0  0  0
   10.7270   -1.6645   23.7148 H   0  0  0  0  0  0  0  0  0  0  0  0
  1  2  1  0
  2  3  1  0
  2  4  1  0
  2  5  1  0
  5  6  1  0
  6  7  1  0
  7  8  1  0
  8  9  2  0
  9 10  1  0
 10 11  2  0
 11 12  1  0
 12 13  2  0
 13 14  1  0
 14 15  2  0
 15 16  1  0
 13 17  1  0
 12 18  1  0
 11 19  1  0
  9 20  1  0
 20 21  2  0
 21 22  1  0
 22 23  2  0
 23 24  1  0
 24 25  2  0
 25 26  1  0
 26 27  2  0
 27 28  1  0
 28 29  1  0
 29 30  2  0
 29 31  1  0
 27 32  1  0
 26 33  1  0
 25 34  1  0
 24 35  1  0
  6 36  1  0
  6 37  1  0
  5 38  1  0
  5 39  1  0
 21  7  1  0
 30 22  1  0
 15 10  1  0
 28 23  1  0
M  END
>  <cnnaffinity>  (1) 
-6.22739

>  <filename>  (1) 
FC(F)(F)CCn1nc(-c2cccnc2)nc1-c1ncn2ccccc12

$$$$
