
     RDKit          3D

 34 36  0  0  0  0  0  0  0  0999 V2000
    3.7682    7.7643   24.6005 F   0  0  0  0  0  0  0  0  0  0  0  0
    5.0232    7.3332   24.8571 C   0  0  0  0  0  0  0  0  0  0  0  0
    4.9775    6.5367   25.9232 F   0  0  0  0  0  0  0  0  0  0  0  0
    5.7166    8.4441   25.1991 F   0  0  0  0  0  0  0  0  0  0  0  0
    5.6454    6.6644   23.6059 C   0  0  0  0  0  0  0  0  0  0  0  0
    5.7332    7.4470   22.4425 C   0  0  0  0  0  0  0  0  0  0  0  0
    6.3573    6.9149   21.3163 C   0  0  0  0  0  0  0  0  0  0  0  0
    6.9003    5.6314   21.4086 C   0  0  0  0  0  0  0  0  0  0  0  0
    6.7057    4.8726   22.5832 C   0  0  0  0  0  0  0  0  0  0  0  0
    7.1721    3.4275   22.6706 C   0  0  0  0  0  0  0  0  0  0  0  0
    6.9416    2.6951   23.7306 N   0  0  0  0  0  0  0  0  0  0  0  0
    7.4491    1.4595   23.4071 O   0  0  0  0  0  0  0  0  0  0  0  0
    7.9509    1.5372   22.1718 C   0  0  0  0  0  0  0  0  0  0  0  0
    8.4972    0.2676   21.5835 C   0  0  0  0  0  0  0  0  0  0  0  0
    7.4203   -0.6903   20.9992 C   0  0  0  0  0  0  0  0  0  0  0  0
    6.6321   -0.0411   19.8779 C   0  0  0  0  0  0  0  0  0  0  0  0
    5.4117    0.6147   20.1125 C   0  0  0  0  0  0  0  0  0  0  0  0
    4.7896    1.2969   19.0642 C   0  0  0  0  0  0  0  0  0  0  0  0
    5.4044    1.2986   17.8109 C   0  0  0  0  0  0  0  0  0  0  0  0
    6.5559    0.6630   17.5485 N   0  0  0  0  0  0  0  0  0  0  0  0
    7.1473    0.0253   18.5671 C   0  0  0  0  0  0  0  0  0  0  0  0
    8.0941   -0.4595   18.3200 H   0  0  0  0  0  0  0  0  0  0  0  0
    4.9548    1.8411   16.9825 H   0  0  0  0  0  0  0  0  0  0  0  0
    3.8591    1.8351   19.2099 H   0  0  0  0  0  0  0  0  0  0  0  0
    4.9778    0.6270   21.1159 H   0  0  0  0  0  0  0  0  0  0  0  0
    6.7513   -1.0234   21.8038 H   0  0  0  0  0  0  0  0  0  0  0  0
    7.9265   -1.5976   20.6388 H   0  0  0  0  0  0  0  0  0  0  0  0
    9.1913    0.5343   20.7858 H   0  0  0  0  0  0  0  0  0  0  0  0
    9.0777   -0.2467   22.3573 H   0  0  0  0  0  0  0  0  0  0  0  0
    7.8390    2.7297   21.6578 N   0  0  0  0  0  0  0  0  0  0  0  0
    6.0903    5.4008   23.6646 N   0  0  0  0  0  0  0  0  0  0  0  0
    7.4974    5.2516   20.5985 H   0  0  0  0  0  0  0  0  0  0  0  0
    6.4171    7.4976   20.3935 H   0  0  0  0  0  0  0  0  0  0  0  0
    5.3535    8.4620   22.4380 H   0  0  0  0  0  0  0  0  0  0  0  0
  1  2  1  0
  2  3  1  0
  2  4  1  0
  2  5  1  0
  5  6  2  0
  6  7  1  0
  7  8  2  0
  8  9  1  0
  9 10  1  0
 10 11  2  0
 11 12  1  0
 12 13  1  0
 13 14  1  0
 14 15  1  0
 15 16  1  0
 16 17  2  0
 17 18  1  0
 18 19  2  0
 19 20  1  0
 20 21  2  0
 21 22  1  0
 19 23  1  0
 18 24  1  0
 17 25  1  0
 15 26  1  0
 15 27  1  0
 14 28  1  0
 14 29  1  0
 13 30  2  0
  9 31  2  0
  8 32  1  0
  7 33  1  0
  6 34  1  0
 31  5  1  0
 30 10  1  0
 21 16  1  0
M  END
>  <cnnaffinity>  (1) 
-4.98013

>  <filename>  (1) 
FC(F)(F)c1cccc(-c2noc(CCc3cccnc3)n2)n1

$$$$
