
     RDKit          3D

 25 26  0  0  0  0  0  0  0  0999 V2000
   10.4616   -1.3454   21.8576 H   0  0  0  0  0  0  0  0  0  0  0  0
    9.3795   -1.3554   21.8980 C   0  0  0  0  0  0  0  0  0  0  0  0
    8.7556   -0.7103   20.9132 N   0  0  0  0  0  0  0  0  0  0  0  0
    7.4216   -0.7114   20.9670 C   0  0  0  0  0  0  0  0  0  0  0  0
    6.6772    0.0100   19.9163 C   0  0  0  0  0  0  0  0  0  0  0  0
    7.1862    0.0612   18.6112 C   0  0  0  0  0  0  0  0  0  0  0  0
    8.1270   -0.4263   18.3726 H   0  0  0  0  0  0  0  0  0  0  0  0
    6.5686    0.6667   17.5932 N   0  0  0  0  0  0  0  0  0  0  0  0
    5.4062    1.2862   17.8494 C   0  0  0  0  0  0  0  0  0  0  0  0
    4.9195    1.7730   17.0054 H   0  0  0  0  0  0  0  0  0  0  0  0
    4.8124    1.3070   19.1155 C   0  0  0  0  0  0  0  0  0  0  0  0
    3.8781    1.8399   19.2639 H   0  0  0  0  0  0  0  0  0  0  0  0
    5.4482    0.6462   20.1640 C   0  0  0  0  0  0  0  0  0  0  0  0
    5.0028    0.6415   21.1624 H   0  0  0  0  0  0  0  0  0  0  0  0
    6.7423   -1.3911   21.9734 C   0  0  0  0  0  0  0  0  0  0  0  0
    5.6718   -1.4393   21.9672 H   0  0  0  0  0  0  0  0  0  0  0  0
    7.4890   -2.0300   22.9430 C   0  0  0  0  0  0  0  0  0  0  0  0
    6.8235   -2.7755   24.0470 C   0  0  0  0  0  0  0  0  0  0  0  0
    5.8580   -2.3394   24.3036 H   0  0  0  0  0  0  0  0  0  0  0  0
    7.4529   -2.7848   24.9335 H   0  0  0  0  0  0  0  0  0  0  0  0
    6.5687   -4.2072   23.6505 C   0  0  0  0  0  0  0  0  0  0  0  0
    7.6957   -4.8600   23.3478 F   0  0  0  0  0  0  0  0  0  0  0  0
    5.9711   -4.8835   24.6508 F   0  0  0  0  0  0  0  0  0  0  0  0
    5.7500   -4.2938   22.5831 F   0  0  0  0  0  0  0  0  0  0  0  0
    8.8202   -2.0280   22.9085 N   0  0  0  0  0  0  0  0  0  0  0  0
  1  2  1  0
  2  3  2  0
  3  4  1  0
  4  5  1  0
  5  6  2  0
  6  7  1  0
  6  8  1  0
  8  9  2  0
  9 10  1  0
  9 11  1  0
 11 12  1  0
 11 13  2  0
 13 14  1  0
  4 15  2  0
 15 16  1  0
 15 17  1  0
 17 18  1  0
 18 19  1  0
 18 20  1  0
 18 21  1  0
 21 22  1  0
 21 23  1  0
 21 24  1  0
 17 25  2  0
 25  2  1  0
 13  5  1  0
M  END
>  <cnnaffinity>  (1) 
-5.16303

>  <filename>  (1) 
FC(F)(F)Cc1cc(-c2cccnc2)ncn1

$$$$
