
     RDKit          3D

 42 45  0  0  0  0  0  0  0  0999 V2000
   13.2295    0.3167   24.5535 F   0  0  0  0  0  0  0  0  0  0  0  0
   12.5313    0.4204   23.4056 C   0  0  0  0  0  0  0  0  0  0  0  0
   13.3005   -0.0967   22.4305 F   0  0  0  0  0  0  0  0  0  0  0  0
   11.4437   -0.3560   23.5303 F   0  0  0  0  0  0  0  0  0  0  0  0
   12.1750    1.8751   23.1393 C   0  0  0  0  0  0  0  0  0  0  0  0
   11.3097    2.2025   21.8953 C   0  0  0  0  0  0  0  0  0  0  0  0
    9.9194    1.6361   21.8991 C   0  0  0  0  0  0  0  0  0  0  0  0
    9.4476    0.7732   21.0178 N   0  0  0  0  0  0  0  0  0  0  0  0
    8.2852    0.3515   21.5917 C   0  0  0  0  0  0  0  0  0  0  0  0
    7.3862   -0.6594   20.9374 C   0  0  0  0  0  0  0  0  0  0  0  0
    6.5933   -0.0549   19.7949 C   0  0  0  0  0  0  0  0  0  0  0  0
    5.3969    0.6226   20.0493 C   0  0  0  0  0  0  0  0  0  0  0  0
    4.7849    1.3205   19.0083 C   0  0  0  0  0  0  0  0  0  0  0  0
    5.3942    1.3071   17.7493 C   0  0  0  0  0  0  0  0  0  0  0  0
    6.5284    0.6422   17.4748 N   0  0  0  0  0  0  0  0  0  0  0  0
    7.0980   -0.0252   18.4851 C   0  0  0  0  0  0  0  0  0  0  0  0
    8.0250   -0.5583   18.2652 H   0  0  0  0  0  0  0  0  0  0  0  0
    4.9511    1.8474   16.9171 H   0  0  0  0  0  0  0  0  0  0  0  0
    3.8615    1.8696   19.1632 H   0  0  0  0  0  0  0  0  0  0  0  0
    4.9680    0.6009   21.0538 H   0  0  0  0  0  0  0  0  0  0  0  0
    8.0171   -1.4750   20.5716 H   0  0  0  0  0  0  0  0  0  0  0  0
    6.7067   -1.0533   21.7013 H   0  0  0  0  0  0  0  0  0  0  0  0
    7.9922    0.9300   22.7341 N   0  0  0  0  0  0  0  0  0  0  0  0
    9.0186    1.8081   22.9085 N   0  0  0  0  0  0  0  0  0  0  0  0
    8.9867    2.7668   23.9641 C   0  0  0  0  0  0  0  0  0  0  0  0
    8.7402    2.3881   25.2864 C   0  0  0  0  0  0  0  0  0  0  0  0
    8.7518    3.3454   26.3250 C   0  0  0  0  0  0  0  0  0  0  0  0
    9.0078    4.6902   26.0706 C   0  0  0  0  0  0  0  0  0  0  0  0
    9.2288    5.0861   24.7410 C   0  0  0  0  0  0  0  0  0  0  0  0
    9.1831    4.1379   23.7106 C   0  0  0  0  0  0  0  0  0  0  0  0
    9.3247    4.8807   22.5622 N   0  0  0  0  0  0  0  0  0  0  0  0
    9.4706    6.1866   22.9365 C   0  0  0  0  0  0  0  0  0  0  0  0
    9.4383    6.3576   24.2220 N   0  0  0  0  0  0  0  0  0  0  0  0
    9.5943    6.9827   22.2057 H   0  0  0  0  0  0  0  0  0  0  0  0
    9.2004    4.5492   21.6222 H   0  0  0  0  0  0  0  0  0  0  0  0
    9.0181    5.4512   26.8374 H   0  0  0  0  0  0  0  0  0  0  0  0
    8.5311    3.0280   27.3411 H   0  0  0  0  0  0  0  0  0  0  0  0
    8.5128    1.3500   25.5004 H   0  0  0  0  0  0  0  0  0  0  0  0
   11.7872    1.8726   20.9687 H   0  0  0  0  0  0  0  0  0  0  0  0
   11.2302    3.2900   21.8298 H   0  0  0  0  0  0  0  0  0  0  0  0
   11.6667    2.2376   24.0381 H   0  0  0  0  0  0  0  0  0  0  0  0
   13.1362    2.3924   23.0623 H   0  0  0  0  0  0  0  0  0  0  0  0
  1  2  1  0
  2  3  1  0
  2  4  1  0
  2  5  1  0
  5  6  1  0
  6  7  1  0
  7  8  2  0
  8  9  1  0
  9 10  1  0
 10 11  1  0
 11 12  2  0
 12 13  1  0
 13 14  2  0
 14 15  1  0
 15 16  2  0
 16 17  1  0
 14 18  1  0
 13 19  1  0
 12 20  1  0
 10 21  1  0
 10 22  1  0
  9 23  2  0
 23 24  1  0
 24 25  1  0
 25 26  2  0
 26 27  1  0
 27 28  2  0
 28 29  1  0
 29 30  2  0
 30 31  1  0
 31 32  1  0
 32 33  2  0
 32 34  1  0
 31 35  1  0
 28 36  1  0
 27 37  1  0
 26 38  1  0
  6 39  1  0
  6 40  1  0
  5 41  1  0
  5 42  1  0
 24  7  1  0
 30 25  1  0
 16 11  1  0
 33 29  1  0
M  END
>  <cnnaffinity>  (1) 
-6.53863

>  <filename>  (1) 
FC(F)(F)CCc1nc(Cc2cccnc2)nn1-c1cccc2nc[nH]c12

$$$$
