
     RDKit          3D

 28 29  0  0  0  0  0  0  0  0999 V2000
    6.9302    4.4517   22.6313 H   0  0  0  0  0  0  0  0  0  0  0  0
    6.9938    3.4483   23.0395 C   0  0  0  0  0  0  0  0  0  0  0  0
    7.5798    2.5493   22.2496 N   0  0  0  0  0  0  0  0  0  0  0  0
    7.6903    1.2866   22.6852 C   0  0  0  0  0  0  0  0  0  0  0  0
    8.3085    0.3476   21.6676 C   0  0  0  0  0  0  0  0  0  0  0  0
    9.8229    0.5710   21.1464 S   0  0  0  0  0  0  0  0  0  0  0  0
    7.3975   -0.6961   21.0203 C   0  0  0  0  0  0  0  0  0  0  0  0
    6.7047   -1.1363   21.7504 H   0  0  0  0  0  0  0  0  0  0  0  0
    8.0292   -1.5012   20.6303 H   0  0  0  0  0  0  0  0  0  0  0  0
    6.6347   -0.0210   19.8934 C   0  0  0  0  0  0  0  0  0  0  0  0
    7.1554    0.0554   18.5877 C   0  0  0  0  0  0  0  0  0  0  0  0
    8.1143   -0.4143   18.3693 H   0  0  0  0  0  0  0  0  0  0  0  0
    6.5566    0.6828   17.5663 N   0  0  0  0  0  0  0  0  0  0  0  0
    5.3941    1.2978   17.8309 C   0  0  0  0  0  0  0  0  0  0  0  0
    4.9173    1.7914   16.9869 H   0  0  0  0  0  0  0  0  0  0  0  0
    4.7984    1.3154   19.0965 C   0  0  0  0  0  0  0  0  0  0  0  0
    3.8693    1.8486   19.2479 H   0  0  0  0  0  0  0  0  0  0  0  0
    5.4336    0.6472   20.1467 C   0  0  0  0  0  0  0  0  0  0  0  0
    5.0208    0.6453   21.1608 H   0  0  0  0  0  0  0  0  0  0  0  0
    7.2634    0.9090   23.9791 C   0  0  0  0  0  0  0  0  0  0  0  0
    7.4118   -0.4982   24.4845 C   0  0  0  0  0  0  0  0  0  0  0  0
    6.3474   -1.2542   24.1472 F   0  0  0  0  0  0  0  0  0  0  0  0
    8.4903   -1.1143   23.9746 F   0  0  0  0  0  0  0  0  0  0  0  0
    7.5085   -0.5419   25.8270 F   0  0  0  0  0  0  0  0  0  0  0  0
    6.6282    1.8572   24.7942 C   0  0  0  0  0  0  0  0  0  0  0  0
    6.2589    1.5842   25.7873 H   0  0  0  0  0  0  0  0  0  0  0  0
    6.4977    3.1510   24.3120 C   0  0  0  0  0  0  0  0  0  0  0  0
    6.0407    3.9298   24.9082 H   0  0  0  0  0  0  0  0  0  0  0  0
  1  2  1  0
  2  3  2  0
  3  4  1  0
  4  5  1  0
  5  6  2  0
  5  7  1  0
  7  8  1  0
  7  9  1  0
  7 10  1  0
 10 11  2  0
 11 12  1  0
 11 13  1  0
 13 14  2  0
 14 15  1  0
 14 16  1  0
 16 17  1  0
 16 18  2  0
 18 19  1  0
  4 20  2  0
 20 21  1  0
 21 22  1  0
 21 23  1  0
 21 24  1  0
 20 25  1  0
 25 26  1  0
 25 27  2  0
 27 28  1  0
 27  2  1  0
 18 10  1  0
M  END
>  <cnnaffinity>  (1) 
-5.13142

>  <filename>  (1) 
FC(F)(F)c1cccnc1C(=S)Cc1cccnc1

$$$$
