
     RDKit          3D

 30 32  0  0  0  0  0  0  0  0999 V2000
    4.9063    1.8204   16.9590 H   0  0  0  0  0  0  0  0  0  0  0  0
    5.3708    1.3156   17.8044 C   0  0  0  0  0  0  0  0  0  0  0  0
    6.5334    0.6937   17.5466 N   0  0  0  0  0  0  0  0  0  0  0  0
    7.1364    0.0711   18.5645 C   0  0  0  0  0  0  0  0  0  0  0  0
    8.0837   -0.4134   18.3327 H   0  0  0  0  0  0  0  0  0  0  0  0
    6.6344    0.0055   19.8803 C   0  0  0  0  0  0  0  0  0  0  0  0
    7.3854   -0.6982   20.9256 C   0  0  0  0  0  0  0  0  0  0  0  0
    8.7312   -0.9742   21.0448 C   0  0  0  0  0  0  0  0  0  0  0  0
    9.5289   -0.7051   20.3641 H   0  0  0  0  0  0  0  0  0  0  0  0
    9.0067   -1.6112   22.2059 N   0  0  0  0  0  0  0  0  0  0  0  0
    7.8433   -1.7443   22.8232 C   0  0  0  0  0  0  0  0  0  0  0  0
    7.6102   -2.4030   24.1598 C   0  0  0  0  0  0  0  0  0  0  0  0
    6.4961   -2.0123   24.8062 N   0  0  0  0  0  0  0  0  0  0  0  0
    6.2597   -2.4543   26.0405 C   0  0  0  0  0  0  0  0  0  0  0  0
    5.3739   -2.0395   26.5230 H   0  0  0  0  0  0  0  0  0  0  0  0
    7.0836   -3.3813   26.6890 C   0  0  0  0  0  0  0  0  0  0  0  0
    6.8319   -3.7278   27.6841 H   0  0  0  0  0  0  0  0  0  0  0  0
    8.1997   -3.8625   26.0161 C   0  0  0  0  0  0  0  0  0  0  0  0
    8.8555   -4.6200   26.4548 H   0  0  0  0  0  0  0  0  0  0  0  0
    8.4636   -3.3723   24.7350 C   0  0  0  0  0  0  0  0  0  0  0  0
    9.5996   -3.9350   23.9396 C   0  0  0  0  0  0  0  0  0  0  0  0
    9.1559   -4.3038   22.7228 F   0  0  0  0  0  0  0  0  0  0  0  0
   10.5987   -3.0536   23.7958 F   0  0  0  0  0  0  0  0  0  0  0  0
   10.1331   -5.0332   24.5120 F   0  0  0  0  0  0  0  0  0  0  0  0
    6.8367   -1.1964   22.0891 N   0  0  0  0  0  0  0  0  0  0  0  0
    5.8687   -1.2002   22.3945 H   0  0  0  0  0  0  0  0  0  0  0  0
    5.4180    0.6678   20.1255 C   0  0  0  0  0  0  0  0  0  0  0  0
    4.9961    0.6815   21.1294 H   0  0  0  0  0  0  0  0  0  0  0  0
    4.7819    1.3281   19.0732 C   0  0  0  0  0  0  0  0  0  0  0  0
    3.8512    1.8620   19.2270 H   0  0  0  0  0  0  0  0  0  0  0  0
  1  2  1  0
  2  3  2  0
  3  4  1  0
  4  5  1  0
  4  6  2  0
  6  7  1  0
  7  8  2  0
  8  9  1  0
  8 10  1  0
 10 11  2  0
 11 12  1  0
 12 13  2  0
 13 14  1  0
 14 15  1  0
 14 16  2  0
 16 17  1  0
 16 18  1  0
 18 19  1  0
 18 20  2  0
 20 21  1  0
 21 22  1  0
 21 23  1  0
 21 24  1  0
 11 25  1  0
 25 26  1  0
  6 27  1  0
 27 28  1  0
 27 29  2  0
 29 30  1  0
 29  2  1  0
 25  7  1  0
 20 12  1  0
M  END
>  <cnnaffinity>  (1) 
-5.49304

>  <filename>  (1) 
FC(F)(F)c1cccnc1-c1ncc(-c2cccnc2)[nH]1

$$$$
