
     RDKit          3D

 34 37  0  0  0  0  0  0  0  0999 V2000
    8.5109   -4.1232   23.3946 F   0  0  0  0  0  0  0  0  0  0  0  0
    8.9684   -3.4877   22.2833 C   0  0  0  0  0  0  0  0  0  0  0  0
   10.2815   -3.1816   22.4906 F   0  0  0  0  0  0  0  0  0  0  0  0
    8.2355   -2.2111   21.9849 C   0  0  0  0  0  0  0  0  0  0  0  0
    7.7929   -1.9062   20.7787 N   0  0  0  0  0  0  0  0  0  0  0  0
    7.3481   -0.6415   20.9303 N   0  0  0  0  0  0  0  0  0  0  0  0
    6.6304    0.0013   19.8875 C   0  0  0  0  0  0  0  0  0  0  0  0
    5.4016    0.6229   20.1365 C   0  0  0  0  0  0  0  0  0  0  0  0
    4.7819    1.2879   19.0759 C   0  0  0  0  0  0  0  0  0  0  0  0
    5.4009    1.2854   17.8228 C   0  0  0  0  0  0  0  0  0  0  0  0
    6.5662    0.6591   17.5768 N   0  0  0  0  0  0  0  0  0  0  0  0
    7.1613    0.0263   18.5904 C   0  0  0  0  0  0  0  0  0  0  0  0
    8.1096   -0.4632   18.3794 H   0  0  0  0  0  0  0  0  0  0  0  0
    4.9553    1.8095   16.9809 H   0  0  0  0  0  0  0  0  0  0  0  0
    3.8614    1.8424   19.2307 H   0  0  0  0  0  0  0  0  0  0  0  0
    4.9784    0.6395   21.1424 H   0  0  0  0  0  0  0  0  0  0  0  0
    7.5675   -0.2503   22.2382 C   0  0  0  0  0  0  0  0  0  0  0  0
    7.3381    1.0900   22.7670 C   0  0  0  0  0  0  0  0  0  0  0  0
    7.4307    2.1212   21.9187 N   0  0  0  0  0  0  0  0  0  0  0  0
    7.2216    3.3658   22.3970 C   0  0  0  0  0  0  0  0  0  0  0  0
    6.9374    3.6294   23.7225 C   0  0  0  0  0  0  0  0  0  0  0  0
    6.8493    2.5582   24.6568 C   0  0  0  0  0  0  0  0  0  0  0  0
    6.5670    2.7279   26.0411 C   0  0  0  0  0  0  0  0  0  0  0  0
    6.4955    1.6220   26.8581 C   0  0  0  0  0  0  0  0  0  0  0  0
    6.6947    0.3367   26.2877 C   0  0  0  0  0  0  0  0  0  0  0  0
    6.9459    0.1349   25.0161 N   0  0  0  0  0  0  0  0  0  0  0  0
    7.0539    1.2150   24.1869 C   0  0  0  0  0  0  0  0  0  0  0  0
    6.6492   -0.5543   26.9122 H   0  0  0  0  0  0  0  0  0  0  0  0
    6.2933    1.6880   27.9200 H   0  0  0  0  0  0  0  0  0  0  0  0
    6.4146    3.7346   26.4193 H   0  0  0  0  0  0  0  0  0  0  0  0
    6.7814    4.6491   24.0514 H   0  0  0  0  0  0  0  0  0  0  0  0
    7.2860    4.1529   21.6565 H   0  0  0  0  0  0  0  0  0  0  0  0
    8.1179   -1.2431   22.9057 N   0  0  0  0  0  0  0  0  0  0  0  0
    8.8788   -4.1591   21.4296 H   0  0  0  0  0  0  0  0  0  0  0  0
  1  2  1  0
  2  3  1  0
  2  4  1  0
  4  5  2  0
  5  6  1  0
  6  7  1  0
  7  8  2  0
  8  9  1  0
  9 10  2  0
 10 11  1  0
 11 12  2  0
 12 13  1  0
 10 14  1  0
  9 15  1  0
  8 16  1  0
  6 17  1  0
 17 18  1  0
 18 19  2  0
 19 20  1  0
 20 21  2  0
 21 22  1  0
 22 23  2  0
 23 24  1  0
 24 25  2  0
 25 26  1  0
 26 27  2  0
 25 28  1  0
 24 29  1  0
 23 30  1  0
 21 31  1  0
 20 32  1  0
 17 33  2  0
  2 34  1  0
 33  4  1  0
 12  7  1  0
 27 18  1  0
 27 22  1  0
M  END
>  <cnnaffinity>  (1) 
-5.50542

>  <filename>  (1) 
FC(F)c1nc(-c2nccc3cccnc23)n(-c2cccnc2)n1

$$$$
