
     RDKit          3D

 35 37  0  0  0  0  0  0  0  0999 V2000
    9.0585    7.3576   25.9156 F   0  0  0  0  0  0  0  0  0  0  0  0
    8.7234    6.1863   26.4997 C   0  0  0  0  0  0  0  0  0  0  0  0
    9.6031    6.0192   27.5132 F   0  0  0  0  0  0  0  0  0  0  0  0
    7.5140    6.3336   27.0369 F   0  0  0  0  0  0  0  0  0  0  0  0
    8.8291    5.0350   25.4993 C   0  0  0  0  0  0  0  0  0  0  0  0
   10.0713    4.7868   24.8498 C   0  0  0  0  0  0  0  0  0  0  0  0
   10.1337    3.7402   23.9604 C   0  0  0  0  0  0  0  0  0  0  0  0
    8.9513    2.9681   23.7378 C   0  0  0  0  0  0  0  0  0  0  0  0
    8.9537    1.9021   22.8744 N   0  0  0  0  0  0  0  0  0  0  0  0
   10.0796    1.5403   22.0125 C   0  0  0  0  0  0  0  0  0  0  0  0
    9.5253    0.4578   21.0745 C   0  0  0  0  0  0  0  0  0  0  0  0
    8.2846   -0.1036   21.7719 C   0  0  0  0  0  0  0  0  0  0  0  0
    7.3155   -0.7180   20.8977 O   0  0  0  0  0  0  0  0  0  0  0  0
    6.6805    0.0114   19.9275 C   0  0  0  0  0  0  0  0  0  0  0  0
    5.4592    0.6488   20.1761 C   0  0  0  0  0  0  0  0  0  0  0  0
    4.8196    1.3003   19.1107 C   0  0  0  0  0  0  0  0  0  0  0  0
    5.4027    1.2897   17.8396 C   0  0  0  0  0  0  0  0  0  0  0  0
    6.5658    0.6686   17.5849 N   0  0  0  0  0  0  0  0  0  0  0  0
    7.1818    0.0582   18.6092 C   0  0  0  0  0  0  0  0  0  0  0  0
    8.1184   -0.4424   18.3828 H   0  0  0  0  0  0  0  0  0  0  0  0
    4.9225    1.7843   16.9959 H   0  0  0  0  0  0  0  0  0  0  0  0
    3.8883    1.8293   19.2637 H   0  0  0  0  0  0  0  0  0  0  0  0
    5.0242    0.6088   21.1747 H   0  0  0  0  0  0  0  0  0  0  0  0
    7.7815    1.0509   22.6577 C   0  0  0  0  0  0  0  0  0  0  0  0
    7.3783    0.6773   23.6033 H   0  0  0  0  0  0  0  0  0  0  0  0
    6.9705    1.6037   22.1727 H   0  0  0  0  0  0  0  0  0  0  0  0
    8.5729   -0.9424   22.4053 H   0  0  0  0  0  0  0  0  0  0  0  0
   10.2539   -0.3264   20.8592 H   0  0  0  0  0  0  0  0  0  0  0  0
    9.2494    0.8860   20.1128 H   0  0  0  0  0  0  0  0  0  0  0  0
   10.9247    1.1604   22.6052 H   0  0  0  0  0  0  0  0  0  0  0  0
   10.4481    2.3974   21.4315 H   0  0  0  0  0  0  0  0  0  0  0  0
    7.8080    3.2687   24.4002 N   0  0  0  0  0  0  0  0  0  0  0  0
    7.7575    4.2846   25.2591 N   0  0  0  0  0  0  0  0  0  0  0  0
   11.0433    3.4797   23.4278 H   0  0  0  0  0  0  0  0  0  0  0  0
   10.9407    5.4124   25.0648 H   0  0  0  0  0  0  0  0  0  0  0  0
  1  2  1  0
  2  3  1  0
  2  4  1  0
  2  5  1  0
  5  6  2  0
  6  7  1  0
  7  8  2  0
  8  9  1  0
  9 10  1  0
 10 11  1  0
 11 12  1  0
 12 13  1  0
 13 14  1  0
 14 15  2  0
 15 16  1  0
 16 17  2  0
 17 18  1  0
 18 19  2  0
 19 20  1  0
 17 21  1  0
 16 22  1  0
 15 23  1  0
 12 24  1  0
 24 25  1  0
 24 26  1  0
 12 27  1  0
 11 28  1  0
 11 29  1  0
 10 30  1  0
 10 31  1  0
  8 32  1  0
 32 33  2  0
  7 34  1  0
  6 35  1  0
 33  5  1  0
 24  9  1  0
 19 14  1  0
M  END
>  <cnnaffinity>  (1) 
-4.80402

>  <filename>  (1) 
FC(F)(F)c1ccc(N2CCC(Oc3cccnc3)C2)nn1

$$$$
