
     RDKit          3D

 30 32  0  0  0  0  0  0  0  0999 V2000
    4.9339    1.7953   16.9764 H   0  0  0  0  0  0  0  0  0  0  0  0
    5.3961    1.2975   17.8274 C   0  0  0  0  0  0  0  0  0  0  0  0
    6.5582    0.6746   17.5745 N   0  0  0  0  0  0  0  0  0  0  0  0
    7.1627    0.0616   18.5948 C   0  0  0  0  0  0  0  0  0  0  0  0
    8.1052   -0.4216   18.3308 H   0  0  0  0  0  0  0  0  0  0  0  0
    6.6493    0.0165   19.8965 C   0  0  0  0  0  0  0  0  0  0  0  0
    7.3421   -0.6874   20.9739 C   0  0  0  0  0  0  0  0  0  0  0  0
    6.8184   -0.9798   22.1434 N   0  0  0  0  0  0  0  0  0  0  0  0
    7.8207   -1.5854   22.8113 C   0  0  0  0  0  0  0  0  0  0  0  0
    7.6592   -2.0767   24.2025 C   0  0  0  0  0  0  0  0  0  0  0  0
    6.7574   -1.3788   25.0376 C   0  0  0  0  0  0  0  0  0  0  0  0
    6.1682   -0.5586   24.6157 H   0  0  0  0  0  0  0  0  0  0  0  0
    6.6140   -1.7487   26.3733 C   0  0  0  0  0  0  0  0  0  0  0  0
    5.9307   -1.2113   27.0248 H   0  0  0  0  0  0  0  0  0  0  0  0
    7.3487   -2.8308   26.8573 C   0  0  0  0  0  0  0  0  0  0  0  0
    7.2139   -3.2349   27.8404 H   0  0  0  0  0  0  0  0  0  0  0  0
    8.2326   -3.5237   26.0495 C   0  0  0  0  0  0  0  0  0  0  0  0
    8.7891   -4.3488   26.4837 H   0  0  0  0  0  0  0  0  0  0  0  0
    8.3825   -3.1942   24.7013 C   0  0  0  0  0  0  0  0  0  0  0  0
    9.3169   -4.0653   23.8551 C   0  0  0  0  0  0  0  0  0  0  0  0
    8.7427   -4.4294   22.6919 F   0  0  0  0  0  0  0  0  0  0  0  0
    9.6533   -5.2118   24.4845 F   0  0  0  0  0  0  0  0  0  0  0  0
   10.4637   -3.4261   23.5816 F   0  0  0  0  0  0  0  0  0  0  0  0
    8.9561   -1.6879   22.1309 N   0  0  0  0  0  0  0  0  0  0  0  0
    8.6206   -1.1116   20.9564 N   0  0  0  0  0  0  0  0  0  0  0  0
    9.3160   -0.9883   20.2359 H   0  0  0  0  0  0  0  0  0  0  0  0
    5.4265    0.6624   20.1479 C   0  0  0  0  0  0  0  0  0  0  0  0
    4.9995    0.6399   21.1531 H   0  0  0  0  0  0  0  0  0  0  0  0
    4.7985    1.3174   19.0926 C   0  0  0  0  0  0  0  0  0  0  0  0
    3.8665    1.8494   19.2335 H   0  0  0  0  0  0  0  0  0  0  0  0
  1  2  1  0
  2  3  2  0
  3  4  1  0
  4  5  1  0
  4  6  2  0
  6  7  1  0
  7  8  2  0
  8  9  1  0
  9 10  1  0
 10 11  2  0
 11 12  1  0
 11 13  1  0
 13 14  1  0
 13 15  2  0
 15 16  1  0
 15 17  1  0
 17 18  1  0
 17 19  2  0
 19 20  1  0
 20 21  1  0
 20 22  1  0
 20 23  1  0
  9 24  2  0
 24 25  1  0
 25 26  1  0
  6 27  1  0
 27 28  1  0
 27 29  2  0
 29 30  1  0
 29  2  1  0
 25  7  1  0
 19 10  1  0
M  END
>  <cnnaffinity>  (1) 
-5.29351

>  <filename>  (1) 
FC(F)(F)c1ccccc1-c1n[nH]c(-c2cccnc2)n1

$$$$
