
     RDKit          3D

 35 37  0  0  0  0  0  0  0  0999 V2000
   12.2903   -2.3818   22.4272 F   0  0  0  0  0  0  0  0  0  0  0  0
   11.2190   -1.5728   22.3585 C   0  0  0  0  0  0  0  0  0  0  0  0
   11.4452   -0.7045   21.3700 F   0  0  0  0  0  0  0  0  0  0  0  0
   11.1241   -0.8830   23.5141 F   0  0  0  0  0  0  0  0  0  0  0  0
   10.0036   -2.4559   22.1397 C   0  0  0  0  0  0  0  0  0  0  0  0
    8.7497   -1.7602   22.0029 N   0  0  0  0  0  0  0  0  0  0  0  0
    8.4561   -1.2858   20.7761 N   0  0  0  0  0  0  0  0  0  0  0  0
    7.3231   -0.6477   20.9709 C   0  0  0  0  0  0  0  0  0  0  0  0
    6.6252    0.0239   19.8930 C   0  0  0  0  0  0  0  0  0  0  0  0
    5.4099    0.6718   20.1321 C   0  0  0  0  0  0  0  0  0  0  0  0
    4.7991    1.3163   19.0640 C   0  0  0  0  0  0  0  0  0  0  0  0
    5.4247    1.2878   17.8137 C   0  0  0  0  0  0  0  0  0  0  0  0
    6.5868    0.6565   17.5749 N   0  0  0  0  0  0  0  0  0  0  0  0
    7.1771    0.0410   18.6039 C   0  0  0  0  0  0  0  0  0  0  0  0
    8.1296   -0.4501   18.3873 H   0  0  0  0  0  0  0  0  0  0  0  0
    4.9696    1.7974   16.9675 H   0  0  0  0  0  0  0  0  0  0  0  0
    3.8669    1.8479   19.2065 H   0  0  0  0  0  0  0  0  0  0  0  0
    4.9977    0.6619   21.1416 H   0  0  0  0  0  0  0  0  0  0  0  0
    6.8776   -0.6672   22.2552 N   0  0  0  0  0  0  0  0  0  0  0  0
    7.7959   -1.3732   22.8823 C   0  0  0  0  0  0  0  0  0  0  0  0
    7.8011   -1.8373   24.3079 C   0  0  0  0  0  0  0  0  0  0  0  0
    7.3903   -3.3027   24.4829 C   0  0  0  0  0  0  0  0  0  0  0  0
    6.1567   -3.7163   23.9435 C   0  0  0  0  0  0  0  0  0  0  0  0
    5.6145   -4.9245   24.0876 N   0  0  0  0  0  0  0  0  0  0  0  0
    6.3156   -5.8224   24.7850 C   0  0  0  0  0  0  0  0  0  0  0  0
    7.5746   -5.5784   25.3179 C   0  0  0  0  0  0  0  0  0  0  0  0
    8.0975   -4.2937   25.1734 C   0  0  0  0  0  0  0  0  0  0  0  0
    9.6463   -3.9787   25.9015 Cl  0  0  0  0  0  0  0  0  0  0  0  0
    8.1262   -6.3556   25.8319 H   0  0  0  0  0  0  0  0  0  0  0  0
    5.8407   -6.7863   24.9284 H   0  0  0  0  0  0  0  0  0  0  0  0
    5.5935   -2.9966   23.3536 H   0  0  0  0  0  0  0  0  0  0  0  0
    8.7865   -1.6365   24.7408 H   0  0  0  0  0  0  0  0  0  0  0  0
    7.0951   -1.1924   24.8427 H   0  0  0  0  0  0  0  0  0  0  0  0
    9.9555   -3.2039   22.9303 H   0  0  0  0  0  0  0  0  0  0  0  0
   10.1499   -2.9433   21.1835 H   0  0  0  0  0  0  0  0  0  0  0  0
  1  2  1  0
  2  3  1  0
  2  4  1  0
  2  5  1  0
  5  6  1  0
  6  7  1  0
  7  8  2  0
  8  9  1  0
  9 10  2  0
 10 11  1  0
 11 12  2  0
 12 13  1  0
 13 14  2  0
 14 15  1  0
 12 16  1  0
 11 17  1  0
 10 18  1  0
  8 19  1  0
 19 20  2  0
 20 21  1  0
 21 22  1  0
 22 23  2  0
 23 24  1  0
 24 25  2  0
 25 26  1  0
 26 27  2  0
 27 28  1  0
 26 29  1  0
 25 30  1  0
 23 31  1  0
 21 32  1  0
 21 33  1  0
  5 34  1  0
  5 35  1  0
 20  6  1  0
 27 22  1  0
 14  9  1  0
M  END
>  <cnnaffinity>  (1) 
-6.27894

>  <filename>  (1) 
FC(F)(F)Cn1nc(-c2cccnc2)nc1Cc1cnccc1Cl

$$$$
