
     RDKit          3D

 25 26  0  0  0  0  0  0  0  0999 V2000
    4.9179    1.7808   16.9963 H   0  0  0  0  0  0  0  0  0  0  0  0
    5.4007    1.2919   17.8416 C   0  0  0  0  0  0  0  0  0  0  0  0
    6.5659    0.6765   17.5795 N   0  0  0  0  0  0  0  0  0  0  0  0
    7.1751    0.0583   18.5995 C   0  0  0  0  0  0  0  0  0  0  0  0
    8.1231   -0.4263   18.3657 H   0  0  0  0  0  0  0  0  0  0  0  0
    6.6638   -0.0004   19.9147 C   0  0  0  0  0  0  0  0  0  0  0  0
    7.3660   -0.6914   20.9554 C   0  0  0  0  0  0  0  0  0  0  0  0
    7.9540   -1.2789   21.8277 C   0  0  0  0  0  0  0  0  0  0  0  0
    8.6311   -1.9870   22.8728 C   0  0  0  0  0  0  0  0  0  0  0  0
    9.5176   -1.2665   23.5712 N   0  0  0  0  0  0  0  0  0  0  0  0
   10.1824   -1.8727   24.5538 C   0  0  0  0  0  0  0  0  0  0  0  0
   10.8888   -1.2450   25.0852 H   0  0  0  0  0  0  0  0  0  0  0  0
   10.0084   -3.2200   24.8942 C   0  0  0  0  0  0  0  0  0  0  0  0
   10.5707   -3.6741   25.6974 H   0  0  0  0  0  0  0  0  0  0  0  0
    9.0937   -3.9754   24.1791 C   0  0  0  0  0  0  0  0  0  0  0  0
    8.9218   -5.0278   24.4109 H   0  0  0  0  0  0  0  0  0  0  0  0
    8.3900   -3.3470   23.1510 C   0  0  0  0  0  0  0  0  0  0  0  0
    7.3795   -4.0861   22.3268 C   0  0  0  0  0  0  0  0  0  0  0  0
    7.2644   -5.3719   22.7092 F   0  0  0  0  0  0  0  0  0  0  0  0
    6.1562   -3.5379   22.4057 F   0  0  0  0  0  0  0  0  0  0  0  0
    7.7059   -4.0983   21.0256 F   0  0  0  0  0  0  0  0  0  0  0  0
    5.4407    0.6495   20.1611 C   0  0  0  0  0  0  0  0  0  0  0  0
    5.0056    0.6342   21.1618 H   0  0  0  0  0  0  0  0  0  0  0  0
    4.8050    1.3098   19.1080 C   0  0  0  0  0  0  0  0  0  0  0  0
    3.8727    1.8445   19.2560 H   0  0  0  0  0  0  0  0  0  0  0  0
  1  2  1  0
  2  3  2  0
  3  4  1  0
  4  5  1  0
  4  6  2  0
  6  7  1  0
  7  8  3  0
  8  9  1  0
  9 10  2  0
 10 11  1  0
 11 12  1  0
 11 13  2  0
 13 14  1  0
 13 15  1  0
 15 16  1  0
 15 17  2  0
 17 18  1  0
 18 19  1  0
 18 20  1  0
 18 21  1  0
  6 22  1  0
 22 23  1  0
 22 24  2  0
 24 25  1  0
 24  2  1  0
 17  9  1  0
M  END
>  <cnnaffinity>  (1) 
-4.74337

>  <filename>  (1) 
FC(F)(F)c1cccnc1C#Cc1cccnc1

$$$$
