
     RDKit          3D

 35 38  0  0  0  0  0  0  0  0999 V2000
   11.7508   -0.9768   21.2093 F   0  0  0  0  0  0  0  0  0  0  0  0
   11.3309   -1.6162   22.3021 C   0  0  0  0  0  0  0  0  0  0  0  0
   11.3311   -0.7253   23.3127 F   0  0  0  0  0  0  0  0  0  0  0  0
   12.2342   -2.5732   22.5753 F   0  0  0  0  0  0  0  0  0  0  0  0
   10.0061   -2.3356   22.1219 C   0  0  0  0  0  0  0  0  0  0  0  0
    8.8282   -1.5090   21.9895 N   0  0  0  0  0  0  0  0  0  0  0  0
    8.5258   -1.0483   20.7542 N   0  0  0  0  0  0  0  0  0  0  0  0
    7.3001   -0.5822   20.8993 C   0  0  0  0  0  0  0  0  0  0  0  0
    6.5691    0.0644   19.8210 C   0  0  0  0  0  0  0  0  0  0  0  0
    5.3438    0.7124   20.0352 C   0  0  0  0  0  0  0  0  0  0  0  0
    4.7551    1.3632   18.9558 C   0  0  0  0  0  0  0  0  0  0  0  0
    5.4000    1.3294   17.7123 C   0  0  0  0  0  0  0  0  0  0  0  0
    6.5539    0.6780   17.4933 N   0  0  0  0  0  0  0  0  0  0  0  0
    7.1232    0.0651   18.5335 C   0  0  0  0  0  0  0  0  0  0  0  0
    8.0613   -0.4527   18.3329 H   0  0  0  0  0  0  0  0  0  0  0  0
    4.9710    1.8526   16.8612 H   0  0  0  0  0  0  0  0  0  0  0  0
    3.8277    1.9138   19.0712 H   0  0  0  0  0  0  0  0  0  0  0  0
    4.8879    0.6968   21.0279 H   0  0  0  0  0  0  0  0  0  0  0  0
    6.7746   -0.7598   22.1354 N   0  0  0  0  0  0  0  0  0  0  0  0
    7.7626   -1.3015   22.8159 C   0  0  0  0  0  0  0  0  0  0  0  0
    7.7759   -1.6636   24.2373 C   0  0  0  0  0  0  0  0  0  0  0  0
    8.8631   -1.5023   25.0973 C   0  0  0  0  0  0  0  0  0  0  0  0
    8.8662   -2.0521   26.4044 C   0  0  0  0  0  0  0  0  0  0  0  0
    7.7893   -2.7682   26.9014 C   0  0  0  0  0  0  0  0  0  0  0  0
    6.6415   -2.8503   26.0926 C   0  0  0  0  0  0  0  0  0  0  0  0
    6.6400   -2.2713   24.8160 C   0  0  0  0  0  0  0  0  0  0  0  0
    5.4064   -2.5443   24.3646 N   0  0  0  0  0  0  0  0  0  0  0  0
    4.6809   -3.2253   25.2640 N   0  0  0  0  0  0  0  0  0  0  0  0
    5.4065   -3.4280   26.3047 N   0  0  0  0  0  0  0  0  0  0  0  0
    5.0105   -2.2192   23.4935 H   0  0  0  0  0  0  0  0  0  0  0  0
    7.8189   -3.2714   27.8564 H   0  0  0  0  0  0  0  0  0  0  0  0
    9.7367   -1.8982   27.0289 H   0  0  0  0  0  0  0  0  0  0  0  0
    9.7343   -0.9467   24.7656 H   0  0  0  0  0  0  0  0  0  0  0  0
    9.8933   -3.0504   22.9380 H   0  0  0  0  0  0  0  0  0  0  0  0
   10.1142   -2.8759   21.1844 H   0  0  0  0  0  0  0  0  0  0  0  0
  1  2  1  0
  2  3  1  0
  2  4  1  0
  2  5  1  0
  5  6  1  0
  6  7  1  0
  7  8  2  0
  8  9  1  0
  9 10  2  0
 10 11  1  0
 11 12  2  0
 12 13  1  0
 13 14  2  0
 14 15  1  0
 12 16  1  0
 11 17  1  0
 10 18  1  0
  8 19  1  0
 19 20  2  0
 20 21  1  0
 21 22  2  0
 22 23  1  0
 23 24  2  0
 24 25  1  0
 25 26  2  0
 26 27  1  0
 27 28  1  0
 28 29  2  0
 27 30  1  0
 24 31  1  0
 23 32  1  0
 22 33  1  0
  5 34  1  0
  5 35  1  0
 20  6  1  0
 26 21  1  0
 14  9  1  0
 29 25  1  0
M  END
>  <cnnaffinity>  (1) 
-5.8553

>  <filename>  (1) 
FC(F)(F)Cn1nc(-c2cccnc2)nc1-c1cccc2nn[nH]c12

$$$$
