
     RDKit          3D

 40 43  0  0  0  0  0  0  0  0999 V2000
    7.8179   -1.4959   25.3247 F   0  0  0  0  0  0  0  0  0  0  0  0
    6.9219   -2.3777   24.8662 C   0  0  0  0  0  0  0  0  0  0  0  0
    5.7616   -1.7270   24.7155 F   0  0  0  0  0  0  0  0  0  0  0  0
    6.7422   -3.3040   25.8269 F   0  0  0  0  0  0  0  0  0  0  0  0
    7.3709   -3.0322   23.5885 C   0  0  0  0  0  0  0  0  0  0  0  0
    7.5911   -1.9890   22.5764 C   0  0  0  0  0  0  0  0  0  0  0  0
    6.7315   -1.6504   21.6545 N   0  0  0  0  0  0  0  0  0  0  0  0
    7.3748   -0.6467   20.9902 N   0  0  0  0  0  0  0  0  0  0  0  0
    6.6885    0.0101   19.9230 C   0  0  0  0  0  0  0  0  0  0  0  0
    5.4602    0.6352   20.1631 C   0  0  0  0  0  0  0  0  0  0  0  0
    4.8372    1.3025   19.1048 C   0  0  0  0  0  0  0  0  0  0  0  0
    5.4360    1.2886   17.8410 C   0  0  0  0  0  0  0  0  0  0  0  0
    6.5801    0.6363   17.5877 N   0  0  0  0  0  0  0  0  0  0  0  0
    7.1795    0.0079   18.6061 C   0  0  0  0  0  0  0  0  0  0  0  0
    8.0896   -0.5392   18.3653 H   0  0  0  0  0  0  0  0  0  0  0  0
    4.9742    1.8015   16.9983 H   0  0  0  0  0  0  0  0  0  0  0  0
    3.8973    1.8227   19.2455 H   0  0  0  0  0  0  0  0  0  0  0  0
    5.0063    0.5744   21.1525 H   0  0  0  0  0  0  0  0  0  0  0  0
    8.5989   -0.4417   21.5842 C   0  0  0  0  0  0  0  0  0  0  0  0
    9.5839    0.6430   21.1986 C   0  0  0  0  0  0  0  0  0  0  0  0
    9.1137    2.0092   21.7947 C   0  0  0  0  0  0  0  0  0  0  0  0
    9.4570    2.1000   23.2914 C   0  0  0  0  0  0  0  0  0  0  0  0
   10.9817    2.0988   23.5014 C   0  0  0  0  0  0  0  0  0  0  0  0
   11.5805    0.9671   22.7355 C   0  0  0  0  0  0  0  0  0  0  0  0
   11.0093    0.3283   21.6587 C   0  0  0  0  0  0  0  0  0  0  0  0
   11.9723   -0.6507   21.3099 C   0  0  0  0  0  0  0  0  0  0  0  0
   13.0548   -0.6031   22.0791 N   0  0  0  0  0  0  0  0  0  0  0  0
   12.7925    0.4037   22.9301 N   0  0  0  0  0  0  0  0  0  0  0  0
   13.4136    0.6135   23.6941 H   0  0  0  0  0  0  0  0  0  0  0  0
   11.9359   -1.3967   20.5319 H   0  0  0  0  0  0  0  0  0  0  0  0
   11.4304    3.0299   23.1232 H   0  0  0  0  0  0  0  0  0  0  0  0
   11.2219    2.0402   24.5681 H   0  0  0  0  0  0  0  0  0  0  0  0
    9.0166    1.2241   23.7979 H   0  0  0  0  0  0  0  0  0  0  0  0
    9.0137    2.9946   23.7393 H   0  0  0  0  0  0  0  0  0  0  0  0
    9.5981    2.8232   21.2450 H   0  0  0  0  0  0  0  0  0  0  0  0
    8.0393    2.1342   21.6331 H   0  0  0  0  0  0  0  0  0  0  0  0
    9.5503    0.6971   20.1041 H   0  0  0  0  0  0  0  0  0  0  0  0
    8.7316   -1.2700   22.6043 N   0  0  0  0  0  0  0  0  0  0  0  0
    6.6200   -3.7489   23.2569 H   0  0  0  0  0  0  0  0  0  0  0  0
    8.3239   -3.5234   23.7860 H   0  0  0  0  0  0  0  0  0  0  0  0
  1  2  1  0
  2  3  1  0
  2  4  1  0
  2  5  1  0
  5  6  1  0
  6  7  2  0
  7  8  1  0
  8  9  1  0
  9 10  2  0
 10 11  1  0
 11 12  2  0
 12 13  1  0
 13 14  2  0
 14 15  1  0
 12 16  1  0
 11 17  1  0
 10 18  1  0
  8 19  1  0
 19 20  1  0
 20 21  1  0
 21 22  1  0
 22 23  1  0
 23 24  1  0
 24 25  2  0
 25 26  1  0
 26 27  2  0
 27 28  1  0
 28 29  1  0
 26 30  1  0
 23 31  1  0
 23 32  1  0
 22 33  1  0
 22 34  1  0
 21 35  1  0
 21 36  1  0
 20 37  1  0
 19 38  2  0
  5 39  1  0
  5 40  1  0
 38  6  1  0
 14  9  1  0
 25 20  1  0
 28 24  1  0
M  END
>  <cnnaffinity>  (1) 
-6.32068

>  <filename>  (1) 
FC(F)(F)Cc1nc(C2CCCc3[nH]ncc32)n(-c2cccnc2)n1

$$$$
