
     RDKit          3D

 31 32  0  0  0  0  0  0  0  0999 V2000
    6.7882   -2.5956   23.3686 H   0  0  0  0  0  0  0  0  0  0  0  0
    7.3827   -2.0590   22.6421 C   0  0  0  0  0  0  0  0  0  0  0  0
    8.6641   -2.3297   22.4056 C   0  0  0  0  0  0  0  0  0  0  0  0
    9.3864   -3.3654   22.9257 O   0  0  0  0  0  0  0  0  0  0  0  0
    8.8143   -4.2214   23.8940 C   0  0  0  0  0  0  0  0  0  0  0  0
    8.2539   -3.6585   24.6550 H   0  0  0  0  0  0  0  0  0  0  0  0
    9.6626   -4.7278   24.3641 H   0  0  0  0  0  0  0  0  0  0  0  0
    7.8718   -5.3304   23.3902 C   0  0  0  0  0  0  0  0  0  0  0  0
    8.4104   -6.1216   22.4540 F   0  0  0  0  0  0  0  0  0  0  0  0
    7.5856   -6.0637   24.4798 F   0  0  0  0  0  0  0  0  0  0  0  0
    6.6940   -4.8960   22.9078 F   0  0  0  0  0  0  0  0  0  0  0  0
    9.5004   -1.5231   21.4418 C   0  0  0  0  0  0  0  0  0  0  0  0
   10.4724   -1.3119   21.8994 H   0  0  0  0  0  0  0  0  0  0  0  0
    9.6775   -2.1659   20.5724 H   0  0  0  0  0  0  0  0  0  0  0  0
    8.7800   -0.2405   21.0112 C   0  0  0  0  0  0  0  0  0  0  0  0
    9.2848    0.2494   20.1701 H   0  0  0  0  0  0  0  0  0  0  0  0
    8.7931    0.4987   21.8293 H   0  0  0  0  0  0  0  0  0  0  0  0
    7.3890   -0.5818   20.6826 N   0  0  0  0  0  0  0  0  0  0  0  0
    6.6947    0.0760   19.6528 C   0  0  0  0  0  0  0  0  0  0  0  0
    7.2119    0.1793   18.3313 C   0  0  0  0  0  0  0  0  0  0  0  0
    8.1565   -0.3086   18.0916 H   0  0  0  0  0  0  0  0  0  0  0  0
    6.6144    0.8381   17.3295 N   0  0  0  0  0  0  0  0  0  0  0  0
    5.4372    1.4349   17.5863 C   0  0  0  0  0  0  0  0  0  0  0  0
    4.9814    1.9954   16.7748 H   0  0  0  0  0  0  0  0  0  0  0  0
    4.8045    1.3466   18.8283 C   0  0  0  0  0  0  0  0  0  0  0  0
    3.8514    1.8354   18.9903 H   0  0  0  0  0  0  0  0  0  0  0  0
    5.4242    0.6470   19.8612 C   0  0  0  0  0  0  0  0  0  0  0  0
    4.9548    0.5525   20.8349 H   0  0  0  0  0  0  0  0  0  0  0  0
    6.6559   -0.9922   21.8793 C   0  0  0  0  0  0  0  0  0  0  0  0
    5.6652   -1.3780   21.6045 H   0  0  0  0  0  0  0  0  0  0  0  0
    6.4829   -0.1324   22.5552 H   0  0  0  0  0  0  0  0  0  0  0  0
  1  2  1  0
  2  3  2  0
  3  4  1  0
  4  5  1  0
  5  6  1  0
  5  7  1  0
  5  8  1  0
  8  9  1  0
  8 10  1  0
  8 11  1  0
  3 12  1  0
 12 13  1  0
 12 14  1  0
 12 15  1  0
 15 16  1  0
 15 17  1  0
 15 18  1  0
 18 19  1  0
 19 20  2  0
 20 21  1  0
 20 22  1  0
 22 23  2  0
 23 24  1  0
 23 25  1  0
 25 26  1  0
 25 27  2  0
 27 28  1  0
 18 29  1  0
 29 30  1  0
 29 31  1  0
 29  2  1  0
 27 19  1  0
M  END
>  <cnnaffinity>  (1) 
-4.70941

>  <filename>  (1) 
FC(F)(F)COC1=CCN(c2cccnc2)CC1

$$$$
