
     RDKit          3D

 46 49  0  0  0  0  0  0  0  0999 V2000
   12.3562   -0.3824   22.9515 F   0  0  0  0  0  0  0  0  0  0  0  0
   11.2110   -0.6271   22.2862 C   0  0  0  0  0  0  0  0  0  0  0  0
   11.4601   -0.3780   20.9884 F   0  0  0  0  0  0  0  0  0  0  0  0
   10.3025    0.2624   22.7204 F   0  0  0  0  0  0  0  0  0  0  0  0
   10.7550   -2.0509   22.5157 C   0  0  0  0  0  0  0  0  0  0  0  0
    9.6689   -2.5632   21.5543 C   0  0  0  0  0  0  0  0  0  0  0  0
    8.4941   -1.7153   21.3797 N   0  0  0  0  0  0  0  0  0  0  0  0
    8.1717   -1.2743   20.1490 N   0  0  0  0  0  0  0  0  0  0  0  0
    7.0980   -0.5368   20.3497 C   0  0  0  0  0  0  0  0  0  0  0  0
    6.4007    0.1737   19.2804 C   0  0  0  0  0  0  0  0  0  0  0  0
    5.2039    0.8719   19.5034 C   0  0  0  0  0  0  0  0  0  0  0  0
    4.6702    1.6086   18.4488 C   0  0  0  0  0  0  0  0  0  0  0  0
    5.3365    1.6040   17.2168 C   0  0  0  0  0  0  0  0  0  0  0  0
    6.4522    0.8968   16.9809 N   0  0  0  0  0  0  0  0  0  0  0  0
    6.9675    0.2004   17.9974 C   0  0  0  0  0  0  0  0  0  0  0  0
    7.8786   -0.3583   17.7840 H   0  0  0  0  0  0  0  0  0  0  0  0
    4.9589    2.1892   16.3821 H   0  0  0  0  0  0  0  0  0  0  0  0
    3.7665    2.1963   18.5696 H   0  0  0  0  0  0  0  0  0  0  0  0
    4.7207    0.8377   20.4827 H   0  0  0  0  0  0  0  0  0  0  0  0
    6.7149   -0.4817   21.6451 N   0  0  0  0  0  0  0  0  0  0  0  0
    7.5946   -1.2537   22.2785 C   0  0  0  0  0  0  0  0  0  0  0  0
    7.6339   -1.6577   23.7042 C   0  0  0  0  0  0  0  0  0  0  0  0
    8.1429   -2.8280   24.1138 N   0  0  0  0  0  0  0  0  0  0  0  0
    7.9568   -2.8226   25.4411 N   0  0  0  0  0  0  0  0  0  0  0  0
    7.3528   -1.7069   25.9090 C   0  0  0  0  0  0  0  0  0  0  0  0
    7.1306   -0.9085   24.8031 C   0  0  0  0  0  0  0  0  0  0  0  0
    6.5411    0.4748   24.8438 C   0  0  0  0  0  0  0  0  0  0  0  0
    7.3037    1.4565   25.7523 C   0  0  0  0  0  0  0  0  0  0  0  0
    7.5557    1.0085   27.2202 C   0  0  0  0  0  0  0  0  0  0  0  0
    6.6270   -0.0981   27.7530 C   0  0  0  0  0  0  0  0  0  0  0  0
    7.1056   -1.5072   27.3763 C   0  0  0  0  0  0  0  0  0  0  0  0
    6.3818   -2.2501   27.7407 H   0  0  0  0  0  0  0  0  0  0  0  0
    8.0587   -1.7149   27.8855 H   0  0  0  0  0  0  0  0  0  0  0  0
    5.6107    0.0506   27.3695 H   0  0  0  0  0  0  0  0  0  0  0  0
    6.5501   -0.0409   28.8442 H   0  0  0  0  0  0  0  0  0  0  0  0
    7.4960    1.8895   27.8704 H   0  0  0  0  0  0  0  0  0  0  0  0
    8.5877    0.6452   27.3173 H   0  0  0  0  0  0  0  0  0  0  0  0
    6.7398    2.3970   25.7518 H   0  0  0  0  0  0  0  0  0  0  0  0
    8.2760    1.6838   25.2946 H   0  0  0  0  0  0  0  0  0  0  0  0
    6.4714    0.8769   23.8281 H   0  0  0  0  0  0  0  0  0  0  0  0
    5.5039    0.3967   25.1971 H   0  0  0  0  0  0  0  0  0  0  0  0
    8.2365   -3.6251   25.9774 H   0  0  0  0  0  0  0  0  0  0  0  0
   10.0749   -2.6634   20.5482 H   0  0  0  0  0  0  0  0  0  0  0  0
    9.3195   -3.5428   21.8901 H   0  0  0  0  0  0  0  0  0  0  0  0
   11.6390   -2.6875   22.4017 H   0  0  0  0  0  0  0  0  0  0  0  0
   10.4170   -2.1250   23.5501 H   0  0  0  0  0  0  0  0  0  0  0  0
  1  2  1  0
  2  3  1  0
  2  4  1  0
  2  5  1  0
  5  6  1  0
  6  7  1  0
  7  8  1  0
  8  9  2  0
  9 10  1  0
 10 11  2  0
 11 12  1  0
 12 13  2  0
 13 14  1  0
 14 15  2  0
 15 16  1  0
 13 17  1  0
 12 18  1  0
 11 19  1  0
  9 20  1  0
 20 21  2  0
 21 22  1  0
 22 23  2  0
 23 24  1  0
 24 25  1  0
 25 26  2  0
 26 27  1  0
 27 28  1  0
 28 29  1  0
 29 30  1  0
 30 31  1  0
 31 32  1  0
 31 33  1  0
 30 34  1  0
 30 35  1  0
 29 36  1  0
 29 37  1  0
 28 38  1  0
 28 39  1  0
 27 40  1  0
 27 41  1  0
 24 42  1  0
  6 43  1  0
  6 44  1  0
  5 45  1  0
  5 46  1  0
 21  7  1  0
 26 22  1  0
 15 10  1  0
 31 25  1  0
M  END
>  <cnnaffinity>  (1) 
-6.3305

>  <filename>  (1) 
FC(F)(F)CCn1nc(-c2cccnc2)nc1-c1n[nH]c2c1CCCCC2

$$$$
