
     RDKit          3D

 26 27  0  0  0  0  0  0  0  0999 V2000
    9.2867   -0.5429   20.3116 H   0  0  0  0  0  0  0  0  0  0  0  0
    8.5885   -0.9027   21.0619 C   0  0  0  0  0  0  0  0  0  0  0  0
    7.2806   -0.6572   21.0094 C   0  0  0  0  0  0  0  0  0  0  0  0
    6.6353   -0.9469   21.8463 H   0  0  0  0  0  0  0  0  0  0  0  0
    6.6140    0.0132   19.8939 C   0  0  0  0  0  0  0  0  0  0  0  0
    7.1584    0.0647   18.5948 C   0  0  0  0  0  0  0  0  0  0  0  0
    8.1033   -0.4370   18.3838 H   0  0  0  0  0  0  0  0  0  0  0  0
    6.5737    0.6861   17.5663 N   0  0  0  0  0  0  0  0  0  0  0  0
    5.4104    1.3140   17.8064 C   0  0  0  0  0  0  0  0  0  0  0  0
    4.9679    1.8308   16.9588 H   0  0  0  0  0  0  0  0  0  0  0  0
    4.7768    1.3190   19.0550 C   0  0  0  0  0  0  0  0  0  0  0  0
    3.8428    1.8528   19.1833 H   0  0  0  0  0  0  0  0  0  0  0  0
    5.3829    0.6503   20.1129 C   0  0  0  0  0  0  0  0  0  0  0  0
    4.9459    0.6451   21.1132 H   0  0  0  0  0  0  0  0  0  0  0  0
    9.2381   -1.6583   22.1208 C   0  0  0  0  0  0  0  0  0  0  0  0
   10.5277   -1.9357   21.9097 N   0  0  0  0  0  0  0  0  0  0  0  0
   11.1296   -2.6022   22.8861 C   0  0  0  0  0  0  0  0  0  0  0  0
   12.1900   -2.7812   22.7566 H   0  0  0  0  0  0  0  0  0  0  0  0
   10.4905   -3.0268   24.0505 C   0  0  0  0  0  0  0  0  0  0  0  0
   11.0736   -3.5331   24.8080 H   0  0  0  0  0  0  0  0  0  0  0  0
    9.1199   -2.7529   24.1397 C   0  0  0  0  0  0  0  0  0  0  0  0
    8.2741   -3.3090   25.3333 C   0  0  0  0  0  0  0  0  0  0  0  0
    8.4612   -4.6410   25.4592 F   0  0  0  0  0  0  0  0  0  0  0  0
    8.6703   -2.7617   26.4996 F   0  0  0  0  0  0  0  0  0  0  0  0
    6.9594   -3.1018   25.2110 F   0  0  0  0  0  0  0  0  0  0  0  0
    8.5173   -2.0406   23.1840 N   0  0  0  0  0  0  0  0  0  0  0  0
  1  2  1  0
  2  3  2  3
  3  4  1  0
  3  5  1  0
  5  6  2  0
  6  7  1  0
  6  8  1  0
  8  9  2  0
  9 10  1  0
  9 11  1  0
 11 12  1  0
 11 13  2  0
 13 14  1  0
  2 15  1  0
 15 16  2  0
 16 17  1  0
 17 18  1  0
 17 19  2  0
 19 20  1  0
 19 21  1  0
 21 22  1  0
 22 23  1  0
 22 24  1  0
 22 25  1  0
 21 26  2  0
 13  5  1  0
 26 15  1  0
M  END
>  <cnnaffinity>  (1) 
-5.26184

>  <filename>  (1) 
FC(F)(F)c1ccnc(C=Cc2cccnc2)n1

$$$$
