
     RDKit          3D

 43 46  0  0  0  0  0  0  0  0999 V2000
    6.9077   -6.2085   23.5366 F   0  0  0  0  0  0  0  0  0  0  0  0
    8.0589   -5.5587   23.2760 C   0  0  0  0  0  0  0  0  0  0  0  0
    8.8296   -5.6347   24.3755 F   0  0  0  0  0  0  0  0  0  0  0  0
    8.6881   -6.2429   22.3045 F   0  0  0  0  0  0  0  0  0  0  0  0
    7.7549   -4.1181   22.8952 C   0  0  0  0  0  0  0  0  0  0  0  0
    8.7979   -3.3476   22.0486 C   0  0  0  0  0  0  0  0  0  0  0  0
    8.3400   -1.9476   21.7893 C   0  0  0  0  0  0  0  0  0  0  0  0
    7.8215   -1.6056   20.6328 N   0  0  0  0  0  0  0  0  0  0  0  0
    7.3126   -0.3710   20.8695 N   0  0  0  0  0  0  0  0  0  0  0  0
    6.5748    0.2518   19.8253 C   0  0  0  0  0  0  0  0  0  0  0  0
    5.3598    0.9183   20.0307 C   0  0  0  0  0  0  0  0  0  0  0  0
    4.7287    1.4758   18.9106 C   0  0  0  0  0  0  0  0  0  0  0  0
    5.3390    1.3682   17.6568 C   0  0  0  0  0  0  0  0  0  0  0  0
    6.4925    0.7049   17.4536 N   0  0  0  0  0  0  0  0  0  0  0  0
    7.0691    0.1390   18.5127 C   0  0  0  0  0  0  0  0  0  0  0  0
    7.9656   -0.4550   18.3416 H   0  0  0  0  0  0  0  0  0  0  0  0
    4.9050    1.8301   16.7737 H   0  0  0  0  0  0  0  0  0  0  0  0
    3.7851    2.0053   18.9985 H   0  0  0  0  0  0  0  0  0  0  0  0
    4.9001    0.9693   21.0197 H   0  0  0  0  0  0  0  0  0  0  0  0
    7.6236   -0.0026   22.1539 C   0  0  0  0  0  0  0  0  0  0  0  0
    7.4112    1.3720   22.7702 C   0  0  0  0  0  0  0  0  0  0  0  0
    6.3587    1.3451   23.9208 C   0  0  0  0  0  0  0  0  0  0  0  0
    6.9289    0.7664   25.2348 C   0  0  0  0  0  0  0  0  0  0  0  0
    8.0855    1.6211   25.7799 C   0  0  0  0  0  0  0  0  0  0  0  0
    9.0234    1.9297   24.6564 C   0  0  0  0  0  0  0  0  0  0  0  0
    8.7127    1.9442   23.3134 C   0  0  0  0  0  0  0  0  0  0  0  0
    9.9116    2.3405   22.6736 C   0  0  0  0  0  0  0  0  0  0  0  0
   10.8925    2.5342   23.5543 N   0  0  0  0  0  0  0  0  0  0  0  0
   10.3256    2.2811   24.7498 N   0  0  0  0  0  0  0  0  0  0  0  0
   10.8884    2.2737   25.5877 H   0  0  0  0  0  0  0  0  0  0  0  0
   10.1054    2.4569   21.6103 H   0  0  0  0  0  0  0  0  0  0  0  0
    8.6027    1.1197   26.6075 H   0  0  0  0  0  0  0  0  0  0  0  0
    7.7139    2.5664   26.2005 H   0  0  0  0  0  0  0  0  0  0  0  0
    6.1466    0.6474   25.9913 H   0  0  0  0  0  0  0  0  0  0  0  0
    7.3189   -0.2350   25.0187 H   0  0  0  0  0  0  0  0  0  0  0  0
    6.0230    2.3780   24.0789 H   0  0  0  0  0  0  0  0  0  0  0  0
    5.4758    0.7837   23.5997 H   0  0  0  0  0  0  0  0  0  0  0  0
    7.0518    2.0097   21.9544 H   0  0  0  0  0  0  0  0  0  0  0  0
    8.2540   -0.9992   22.7521 N   0  0  0  0  0  0  0  0  0  0  0  0
    9.7795   -3.3167   22.5324 H   0  0  0  0  0  0  0  0  0  0  0  0
    8.8951   -3.8023   21.0583 H   0  0  0  0  0  0  0  0  0  0  0  0
    6.7998   -4.1488   22.3589 H   0  0  0  0  0  0  0  0  0  0  0  0
    7.5705   -3.5979   23.8417 H   0  0  0  0  0  0  0  0  0  0  0  0
  1  2  1  0
  2  3  1  0
  2  4  1  0
  2  5  1  0
  5  6  1  0
  6  7  1  0
  7  8  2  0
  8  9  1  0
  9 10  1  0
 10 11  2  0
 11 12  1  0
 12 13  2  0
 13 14  1  0
 14 15  2  0
 15 16  1  0
 13 17  1  0
 12 18  1  0
 11 19  1  0
  9 20  1  0
 20 21  1  0
 21 22  1  0
 22 23  1  0
 23 24  1  0
 24 25  1  0
 25 26  2  0
 26 27  1  0
 27 28  2  0
 28 29  1  0
 29 30  1  0
 27 31  1  0
 24 32  1  0
 24 33  1  0
 23 34  1  0
 23 35  1  0
 22 36  1  0
 22 37  1  0
 21 38  1  0
 20 39  2  0
  6 40  1  0
  6 41  1  0
  5 42  1  0
  5 43  1  0
 39  7  1  0
 15 10  1  0
 26 21  1  0
 29 25  1  0
M  END
>  <cnnaffinity>  (1) 
-6.31562

>  <filename>  (1) 
FC(F)(F)CCc1nc(C2CCCc3[nH]ncc32)n(-c2cccnc2)n1

$$$$
