
     RDKit          3D

 41 44  0  0  0  0  0  0  0  0999 V2000
    4.9868    1.7833   16.9647 H   0  0  0  0  0  0  0  0  0  0  0  0
    5.4660    1.3791   17.8565 C   0  0  0  0  0  0  0  0  0  0  0  0
    6.6420    0.7749   17.6577 N   0  0  0  0  0  0  0  0  0  0  0  0
    7.2465    0.2548   18.7317 C   0  0  0  0  0  0  0  0  0  0  0  0
    8.1929   -0.2390   18.5196 H   0  0  0  0  0  0  0  0  0  0  0  0
    6.7418    0.2738   20.0513 C   0  0  0  0  0  0  0  0  0  0  0  0
    7.5391   -0.4018   21.1940 C   0  0  2  0  0  0  0  0  0  0  0  0
    8.5337    0.6532   21.7961 C   0  0  0  0  0  0  0  0  0  0  0  0
    9.6450    0.9442   20.9702 C   0  0  0  0  0  0  0  0  0  0  0  0
    9.6469    0.5510   19.9595 H   0  0  0  0  0  0  0  0  0  0  0  0
   10.7430    1.6862   21.3995 C   0  0  0  0  0  0  0  0  0  0  0  0
   11.6139    1.7991   20.7608 H   0  0  0  0  0  0  0  0  0  0  0  0
   10.7233    2.2534   22.6718 C   0  0  0  0  0  0  0  0  0  0  0  0
   11.5715    2.8318   23.0229 H   0  0  0  0  0  0  0  0  0  0  0  0
    9.5837    2.1213   23.4567 C   0  0  0  0  0  0  0  0  0  0  0  0
    9.5473    2.6263   24.4181 H   0  0  0  0  0  0  0  0  0  0  0  0
    8.4655    1.3780   23.0169 C   0  0  0  0  0  0  0  0  0  0  0  0
    7.2547    1.4138   23.9352 C   0  0  0  0  0  0  0  0  0  0  0  0
    6.0893    1.4701   23.2544 F   0  0  0  0  0  0  0  0  0  0  0  0
    7.2392    2.4830   24.7580 F   0  0  0  0  0  0  0  0  0  0  0  0
    7.1968    0.3278   24.7387 F   0  0  0  0  0  0  0  0  0  0  0  0
    8.3525   -1.6659   20.6533 C   0  0  0  0  0  0  0  0  0  0  0  0
    7.9123   -1.8515   19.6774 H   0  0  0  0  0  0  0  0  0  0  0  0
    9.4238   -1.4870   20.5313 H   0  0  0  0  0  0  0  0  0  0  0  0
    8.0608   -2.8400   21.6096 C   0  0  2  0  0  0  0  0  0  0  0  0
    8.8978   -3.5405   21.6950 H   0  0  0  0  0  0  0  0  0  0  0  0
    6.7181   -3.4768   21.2021 C   0  0  0  0  0  0  0  0  0  0  0  0
    6.6820   -3.8897   20.1871 H   0  0  0  0  0  0  0  0  0  0  0  0
    6.4783   -4.3136   21.8691 H   0  0  0  0  0  0  0  0  0  0  0  0
    5.7483   -2.2773   21.4083 C   0  0  0  0  0  0  0  0  0  0  0  0
    5.4119   -1.8870   20.4398 H   0  0  0  0  0  0  0  0  0  0  0  0
    4.8494   -2.5757   21.9530 H   0  0  0  0  0  0  0  0  0  0  0  0
    6.6153   -1.2113   22.1823 C   0  0  1  0  0  0  0  0  0  0  0  0
    6.0234   -0.5582   22.8043 H   0  0  0  0  0  0  0  0  0  0  0  0
    7.6312   -2.1118   22.8956 C   0  0  0  0  0  0  0  0  0  0  0  0
    8.4349   -1.5501   23.3828 H   0  0  0  0  0  0  0  0  0  0  0  0
    7.1702   -2.7635   23.6473 H   0  0  0  0  0  0  0  0  0  0  0  0
    5.5206    0.9394   20.2338 C   0  0  0  0  0  0  0  0  0  0  0  0
    5.0693    1.0404   21.2222 H   0  0  0  0  0  0  0  0  0  0  0  0
    4.8658    1.4790   19.1145 C   0  0  0  0  0  0  0  0  0  0  0  0
    3.9029    1.9665   19.2043 H   0  0  0  0  0  0  0  0  0  0  0  0
  1  2  1  0
  2  3  2  0
  3  4  1  0
  4  5  1  0
  4  6  2  0
  7  6  1  6
  7  8  1  0
  8  9  2  0
  9 10  1  0
  9 11  1  0
 11 12  1  0
 11 13  2  0
 13 14  1  0
 13 15  1  0
 15 16  1  0
 15 17  2  0
 17 18  1  0
 18 19  1  0
 18 20  1  0
 18 21  1  0
  7 22  1  0
 22 23  1  0
 22 24  1  0
 22 25  1  0
 25 26  1  1
 25 27  1  0
 27 28  1  0
 27 29  1  0
 27 30  1  0
 30 31  1  0
 30 32  1  0
 30 33  1  0
 33 34  1  1
 33 35  1  0
 35 36  1  0
 35 37  1  0
  6 38  1  0
 38 39  1  0
 38 40  2  0
 40 41  1  0
 40  2  1  0
 33  7  1  0
 17  8  1  0
 35 25  1  0
M  END
>  <cnnaffinity>  (1) 
-5.15291

>  <filename>  (1) 
FC(F)(F)c1ccccc1[C@@]1(c2cccnc2)C[C@@H]2CC[C@H]1C2

$$$$
