
     RDKit          3D

 25 26  0  0  0  0  0  0  0  0999 V2000
    4.9170    1.7944   16.9790 H   0  0  0  0  0  0  0  0  0  0  0  0
    5.3928    1.3018   17.8215 C   0  0  0  0  0  0  0  0  0  0  0  0
    6.5556    0.6825   17.5531 N   0  0  0  0  0  0  0  0  0  0  0  0
    7.1652    0.0814   18.5821 C   0  0  0  0  0  0  0  0  0  0  0  0
    8.1058   -0.4196   18.3607 H   0  0  0  0  0  0  0  0  0  0  0  0
    6.6530    0.0229   19.8932 C   0  0  0  0  0  0  0  0  0  0  0  0
    7.3935   -0.6828   20.9666 C   0  0  0  0  0  0  0  0  0  0  0  0
    6.7514   -1.5241   21.9032 C   0  0  0  0  0  0  0  0  0  0  0  0
    5.6873   -1.7050   21.8349 H   0  0  0  0  0  0  0  0  0  0  0  0
    7.3963   -2.1837   22.8686 N   0  0  0  0  0  0  0  0  0  0  0  0
    8.7250   -2.0362   22.9933 N   0  0  0  0  0  0  0  0  0  0  0  0
    9.3956   -1.2558   22.1434 C   0  0  0  0  0  0  0  0  0  0  0  0
   10.8683   -1.1274   22.3631 C   0  0  0  0  0  0  0  0  0  0  0  0
   11.2584   -2.0348   22.8240 H   0  0  0  0  0  0  0  0  0  0  0  0
   11.3853   -0.9414   21.4210 H   0  0  0  0  0  0  0  0  0  0  0  0
   11.1893    0.0375   23.2694 C   0  0  0  0  0  0  0  0  0  0  0  0
   10.6244   -0.1007   24.4736 F   0  0  0  0  0  0  0  0  0  0  0  0
   10.7673    1.2030   22.7406 F   0  0  0  0  0  0  0  0  0  0  0  0
   12.5194    0.1383   23.4442 F   0  0  0  0  0  0  0  0  0  0  0  0
    8.7644   -0.5550   21.0998 C   0  0  0  0  0  0  0  0  0  0  0  0
    9.3410    0.0971   20.4462 H   0  0  0  0  0  0  0  0  0  0  0  0
    5.4261    0.6553   20.1424 C   0  0  0  0  0  0  0  0  0  0  0  0
    5.0114    0.6427   21.1541 H   0  0  0  0  0  0  0  0  0  0  0  0
    4.7983    1.3181   19.0896 C   0  0  0  0  0  0  0  0  0  0  0  0
    3.8682    1.8487   19.2439 H   0  0  0  0  0  0  0  0  0  0  0  0
  1  2  1  0
  2  3  2  0
  3  4  1  0
  4  5  1  0
  4  6  2  0
  6  7  1  0
  7  8  2  0
  8  9  1  0
  8 10  1  0
 10 11  2  0
 11 12  1  0
 12 13  1  0
 13 14  1  0
 13 15  1  0
 13 16  1  0
 16 17  1  0
 16 18  1  0
 16 19  1  0
 12 20  2  0
 20 21  1  0
  6 22  1  0
 22 23  1  0
 22 24  2  0
 24 25  1  0
 24  2  1  0
 20  7  1  0
M  END
>  <cnnaffinity>  (1) 
-5.17538

>  <filename>  (1) 
FC(F)(F)Cc1cc(-c2cccnc2)cnn1

$$$$
