
     RDKit          3D

 30 32  0  0  0  0  0  0  0  0999 V2000
    4.9413    1.7806   16.9931 H   0  0  0  0  0  0  0  0  0  0  0  0
    5.4087    1.2861   17.8418 C   0  0  0  0  0  0  0  0  0  0  0  0
    6.5711    0.6646   17.5906 N   0  0  0  0  0  0  0  0  0  0  0  0
    7.1770    0.0508   18.6127 C   0  0  0  0  0  0  0  0  0  0  0  0
    8.1250   -0.4271   18.3691 H   0  0  0  0  0  0  0  0  0  0  0  0
    6.6455    0.0146   19.9099 C   0  0  0  0  0  0  0  0  0  0  0  0
    7.3378   -0.6806   20.9867 C   0  0  0  0  0  0  0  0  0  0  0  0
    6.9453   -0.7858   22.2178 N   0  0  0  0  0  0  0  0  0  0  0  0
    7.9481   -1.5299   22.7863 C   0  0  0  0  0  0  0  0  0  0  0  0
    7.9353   -1.9102   24.2135 C   0  0  0  0  0  0  0  0  0  0  0  0
    8.9954   -2.6719   24.7344 C   0  0  0  0  0  0  0  0  0  0  0  0
    9.8194   -2.9811   24.0974 H   0  0  0  0  0  0  0  0  0  0  0  0
    8.9799   -3.0308   26.0772 C   0  0  0  0  0  0  0  0  0  0  0  0
    9.7908   -3.6222   26.4874 H   0  0  0  0  0  0  0  0  0  0  0  0
    7.9294   -2.6435   26.9039 C   0  0  0  0  0  0  0  0  0  0  0  0
    7.9349   -2.9490   27.9333 H   0  0  0  0  0  0  0  0  0  0  0  0
    6.8791   -1.8826   26.3840 C   0  0  0  0  0  0  0  0  0  0  0  0
    5.8874   -1.5547   27.3095 O   0  0  0  0  0  0  0  0  0  0  0  0
    4.7994   -0.8269   26.9785 C   0  0  0  0  0  0  0  0  0  0  0  0
    4.0755   -0.7038   28.0849 F   0  0  0  0  0  0  0  0  0  0  0  0
    4.0437   -1.4068   26.0301 F   0  0  0  0  0  0  0  0  0  0  0  0
    5.1028    0.4001   26.5212 F   0  0  0  0  0  0  0  0  0  0  0  0
    6.8633   -1.5086   25.0418 C   0  0  0  0  0  0  0  0  0  0  0  0
    6.0360   -0.9205   24.6446 H   0  0  0  0  0  0  0  0  0  0  0  0
    8.9007   -1.8677   21.9551 N   0  0  0  0  0  0  0  0  0  0  0  0
    8.4982   -1.3019   20.7549 O   0  0  0  0  0  0  0  0  0  0  0  0
    5.4254    0.6594   20.1620 C   0  0  0  0  0  0  0  0  0  0  0  0
    4.9978    0.6414   21.1712 H   0  0  0  0  0  0  0  0  0  0  0  0
    4.8024    1.3108   19.1036 C   0  0  0  0  0  0  0  0  0  0  0  0
    3.8722    1.8453   19.2435 H   0  0  0  0  0  0  0  0  0  0  0  0
  1  2  1  0
  2  3  2  0
  3  4  1  0
  4  5  1  0
  4  6  2  0
  6  7  1  0
  7  8  2  0
  8  9  1  0
  9 10  1  0
 10 11  2  0
 11 12  1  0
 11 13  1  0
 13 14  1  0
 13 15  2  0
 15 16  1  0
 15 17  1  0
 17 18  1  0
 18 19  1  0
 19 20  1  0
 19 21  1  0
 19 22  1  0
 17 23  2  0
 23 24  1  0
  9 25  2  0
 25 26  1  0
  6 27  1  0
 27 28  1  0
 27 29  2  0
 29 30  1  0
 29  2  1  0
 26  7  1  0
 23 10  1  0
M  END
>  <cnnaffinity>  (1) 
-5.03728

>  <filename>  (1) 
FC(F)(F)Oc1cccc(-c2noc(-c3cccnc3)n2)c1

$$$$
