
     RDKit          3D

 45 48  0  0  0  0  0  0  0  0999 V2000
   11.8737   -0.7396   20.9092 F   0  0  0  0  0  0  0  0  0  0  0  0
   11.5397   -0.5469   22.1979 C   0  0  0  0  0  0  0  0  0  0  0  0
   10.6468    0.4525   22.2525 F   0  0  0  0  0  0  0  0  0  0  0  0
   12.6453   -0.1142   22.8401 F   0  0  0  0  0  0  0  0  0  0  0  0
   11.0571   -1.8388   22.8144 C   0  0  0  0  0  0  0  0  0  0  0  0
    9.9303   -2.5778   22.0931 C   0  0  0  0  0  0  0  0  0  0  0  0
    8.6795   -1.8646   21.9556 N   0  0  0  0  0  0  0  0  0  0  0  0
    8.3254   -1.4273   20.7304 N   0  0  0  0  0  0  0  0  0  0  0  0
    7.2343   -0.7297   20.9540 C   0  0  0  0  0  0  0  0  0  0  0  0
    6.5514    0.0022   19.8932 C   0  0  0  0  0  0  0  0  0  0  0  0
    5.3530    0.6990   20.1041 C   0  0  0  0  0  0  0  0  0  0  0  0
    4.7818    1.3539   19.0168 C   0  0  0  0  0  0  0  0  0  0  0  0
    5.4366    1.3128   17.7798 C   0  0  0  0  0  0  0  0  0  0  0  0
    6.5956    0.6691   17.5756 N   0  0  0  0  0  0  0  0  0  0  0  0
    7.1369    0.0330   18.6167 C   0  0  0  0  0  0  0  0  0  0  0  0
    8.0832   -0.4738   18.4302 H   0  0  0  0  0  0  0  0  0  0  0  0
    5.0130    1.8135   16.9131 H   0  0  0  0  0  0  0  0  0  0  0  0
    3.8522    1.9039   19.1133 H   0  0  0  0  0  0  0  0  0  0  0  0
    4.8983    0.7299   21.0974 H   0  0  0  0  0  0  0  0  0  0  0  0
    6.8439   -0.7280   22.2514 N   0  0  0  0  0  0  0  0  0  0  0  0
    7.7631   -1.4497   22.8734 C   0  0  0  0  0  0  0  0  0  0  0  0
    7.8129   -1.8225   24.3490 C   0  0  0  0  0  0  0  0  0  0  0  0
    8.1145   -0.6105   25.2632 C   0  0  0  0  0  0  0  0  0  0  0  0
    6.9676    0.4045   25.2114 C   0  0  0  0  0  0  0  0  0  0  0  0
    5.5820   -0.2063   25.2933 C   0  0  0  0  0  0  0  0  0  0  0  0
    4.5764    0.6790   25.4457 N   0  0  0  0  0  0  0  0  0  0  0  0
    3.3287    0.2119   25.5084 C   0  0  0  0  0  0  0  0  0  0  0  0
    3.0137   -1.1499   25.5056 C   0  0  0  0  0  0  0  0  0  0  0  0
    4.0587   -2.0683   25.3760 C   0  0  0  0  0  0  0  0  0  0  0  0
    5.3713   -1.6016   25.1856 C   0  0  0  0  0  0  0  0  0  0  0  0
    6.5261   -2.5419   24.8530 C   0  0  0  0  0  0  0  0  0  0  0  0
    6.7792   -3.1073   25.7636 H   0  0  0  0  0  0  0  0  0  0  0  0
    6.2112   -3.2811   24.1026 H   0  0  0  0  0  0  0  0  0  0  0  0
    3.8414   -3.1369   25.4020 H   0  0  0  0  0  0  0  0  0  0  0  0
    1.9774   -1.4685   25.5576 H   0  0  0  0  0  0  0  0  0  0  0  0
    2.5418    0.9642   25.5455 H   0  0  0  0  0  0  0  0  0  0  0  0
    6.9982    0.9304   24.2522 H   0  0  0  0  0  0  0  0  0  0  0  0
    7.0827    1.1690   25.9866 H   0  0  0  0  0  0  0  0  0  0  0  0
    9.0587   -0.1263   24.9679 H   0  0  0  0  0  0  0  0  0  0  0  0
    8.2510   -0.9744   26.2925 H   0  0  0  0  0  0  0  0  0  0  0  0
    8.6321   -2.5414   24.4554 H   0  0  0  0  0  0  0  0  0  0  0  0
    9.7486   -3.5295   22.6033 H   0  0  0  0  0  0  0  0  0  0  0  0
   10.2247   -2.7857   21.0630 H   0  0  0  0  0  0  0  0  0  0  0  0
   10.7874   -1.6209   23.8510 H   0  0  0  0  0  0  0  0  0  0  0  0
   11.9292   -2.4962   22.8031 H   0  0  0  0  0  0  0  0  0  0  0  0
  1  2  1  0
  2  3  1  0
  2  4  1  0
  2  5  1  0
  5  6  1  0
  6  7  1  0
  7  8  1  0
  8  9  2  0
  9 10  1  0
 10 11  2  0
 11 12  1  0
 12 13  2  0
 13 14  1  0
 14 15  2  0
 15 16  1  0
 13 17  1  0
 12 18  1  0
 11 19  1  0
  9 20  1  0
 20 21  2  0
 21 22  1  0
 22 23  1  0
 23 24  1  0
 24 25  1  0
 25 26  2  0
 26 27  1  0
 27 28  2  0
 28 29  1  0
 29 30  2  0
 30 31  1  0
 31 32  1  0
 31 33  1  0
 29 34  1  0
 28 35  1  0
 27 36  1  0
 24 37  1  0
 24 38  1  0
 23 39  1  0
 23 40  1  0
 22 41  1  0
  6 42  1  0
  6 43  1  0
  5 44  1  0
  5 45  1  0
 21  7  1  0
 31 22  1  0
 15 10  1  0
 30 25  1  0
M  END
>  <cnnaffinity>  (1) 
-6.49207

>  <filename>  (1) 
FC(F)(F)CCn1nc(-c2cccnc2)nc1C1CCc2ncccc2C1

$$$$
