
     RDKit          3D

 36 39  0  0  0  0  0  0  0  0999 V2000
   11.1263   -0.7431   23.5954 F   0  0  0  0  0  0  0  0  0  0  0  0
   11.2032   -1.3988   22.4283 C   0  0  0  0  0  0  0  0  0  0  0  0
   11.3020   -0.4803   21.4656 F   0  0  0  0  0  0  0  0  0  0  0  0
   12.3423   -2.1177   22.4331 F   0  0  0  0  0  0  0  0  0  0  0  0
   10.0713   -2.3904   22.2022 C   0  0  0  0  0  0  0  0  0  0  0  0
    8.7731   -1.8030   21.9883 N   0  0  0  0  0  0  0  0  0  0  0  0
    8.4980   -1.3250   20.7562 N   0  0  0  0  0  0  0  0  0  0  0  0
    7.3700   -0.6724   20.9534 C   0  0  0  0  0  0  0  0  0  0  0  0
    6.6571    0.0122   19.8970 C   0  0  0  0  0  0  0  0  0  0  0  0
    5.4385    0.6534   20.1556 C   0  0  0  0  0  0  0  0  0  0  0  0
    4.8108    1.3014   19.1001 C   0  0  0  0  0  0  0  0  0  0  0  0
    5.4197    1.2784   17.8394 C   0  0  0  0  0  0  0  0  0  0  0  0
    6.5812    0.6563   17.5830 N   0  0  0  0  0  0  0  0  0  0  0  0
    7.1891    0.0425   18.6006 C   0  0  0  0  0  0  0  0  0  0  0  0
    8.1410   -0.4400   18.3746 H   0  0  0  0  0  0  0  0  0  0  0  0
    4.9556    1.7847   16.9981 H   0  0  0  0  0  0  0  0  0  0  0  0
    3.8778    1.8361   19.2438 H   0  0  0  0  0  0  0  0  0  0  0  0
    5.0153    0.6386   21.1629 H   0  0  0  0  0  0  0  0  0  0  0  0
    6.9181   -0.6781   22.2331 N   0  0  0  0  0  0  0  0  0  0  0  0
    7.8050   -1.4166   22.8615 C   0  0  0  0  0  0  0  0  0  0  0  0
    7.8332   -1.7628   24.2562 C   0  0  0  0  0  0  0  0  0  0  0  0
    7.8059   -3.0514   24.8169 C   0  0  0  0  0  0  0  0  0  0  0  0
    7.6485   -4.3982   24.3881 C   0  0  0  0  0  0  0  0  0  0  0  0
    7.4435   -4.7584   22.7110 Cl  0  0  0  0  0  0  0  0  0  0  0  0
    7.6271   -5.4191   25.3167 C   0  0  0  0  0  0  0  0  0  0  0  0
    7.7395   -5.1405   26.7075 C   0  0  0  0  0  0  0  0  0  0  0  0
    7.8897   -3.8430   27.1194 C   0  0  0  0  0  0  0  0  0  0  0  0
    7.8963   -2.8362   26.1843 N   0  0  0  0  0  0  0  0  0  0  0  0
    7.9864   -1.5279   26.5081 N   0  0  0  0  0  0  0  0  0  0  0  0
    7.9392   -0.8850   25.3518 C   0  0  0  0  0  0  0  0  0  0  0  0
    8.0129    0.1948   25.3397 H   0  0  0  0  0  0  0  0  0  0  0  0
    8.0342   -3.4893   28.1221 H   0  0  0  0  0  0  0  0  0  0  0  0
    7.7115   -5.9482   27.4351 H   0  0  0  0  0  0  0  0  0  0  0  0
    7.5400   -6.4329   24.9689 H   0  0  0  0  0  0  0  0  0  0  0  0
   10.0582   -3.0819   23.0459 H   0  0  0  0  0  0  0  0  0  0  0  0
   10.3082   -2.8908   21.2686 H   0  0  0  0  0  0  0  0  0  0  0  0
  1  2  1  0
  2  3  1  0
  2  4  1  0
  2  5  1  0
  5  6  1  0
  6  7  1  0
  7  8  2  0
  8  9  1  0
  9 10  2  0
 10 11  1  0
 11 12  2  0
 12 13  1  0
 13 14  2  0
 14 15  1  0
 12 16  1  0
 11 17  1  0
 10 18  1  0
  8 19  1  0
 19 20  2  0
 20 21  1  0
 21 22  2  0
 22 23  1  0
 23 24  1  0
 23 25  2  0
 25 26  1  0
 26 27  2  0
 27 28  1  0
 28 29  1  0
 29 30  2  0
 30 31  1  0
 27 32  1  0
 26 33  1  0
 25 34  1  0
  5 35  1  0
  5 36  1  0
 20  6  1  0
 30 21  1  0
 14  9  1  0
 28 22  1  0
M  END
>  <cnnaffinity>  (1) 
-6.4515

>  <filename>  (1) 
FC(F)(F)Cn1nc(-c2cccnc2)nc1-c1cnn2cccc(Cl)c12

$$$$
