
     RDKit          3D

 26 27  0  0  0  0  0  0  0  0999 V2000
    4.9419    1.7906   16.9985 H   0  0  0  0  0  0  0  0  0  0  0  0
    5.4061    1.2869   17.8430 C   0  0  0  0  0  0  0  0  0  0  0  0
    6.5765    0.6742   17.5942 N   0  0  0  0  0  0  0  0  0  0  0  0
    7.1862    0.0717   18.6205 C   0  0  0  0  0  0  0  0  0  0  0  0
    8.1307   -0.4255   18.4043 H   0  0  0  0  0  0  0  0  0  0  0  0
    6.6626    0.0396   19.9214 C   0  0  0  0  0  0  0  0  0  0  0  0
    7.6239   -0.7694   21.1789 S   0  0  0  0  0  0  0  0  0  0  0  0
    8.7714    0.5032   21.4282 N   0  0  0  0  0  0  0  0  0  0  0  0
    9.6927    0.2355   21.0902 H   0  0  0  0  0  0  0  0  0  0  0  0
    9.1379    0.7740   22.7411 C   0  0  0  0  0  0  0  0  0  0  0  0
   10.4108    0.4445   22.9168 N   0  0  0  0  0  0  0  0  0  0  0  0
   10.9327    0.6332   24.1275 C   0  0  0  0  0  0  0  0  0  0  0  0
   11.9683    0.3256   24.2437 H   0  0  0  0  0  0  0  0  0  0  0  0
   10.2270    1.1920   25.1960 C   0  0  0  0  0  0  0  0  0  0  0  0
   10.7126    1.3150   26.1567 H   0  0  0  0  0  0  0  0  0  0  0  0
    8.9110    1.5859   24.9873 C   0  0  0  0  0  0  0  0  0  0  0  0
    8.3359    2.0655   25.7809 H   0  0  0  0  0  0  0  0  0  0  0  0
    8.3528    1.3764   23.7216 C   0  0  0  0  0  0  0  0  0  0  0  0
    6.9913    1.8109   23.3168 C   0  0  0  0  0  0  0  0  0  0  0  0
    6.4882    2.7330   24.1633 F   0  0  0  0  0  0  0  0  0  0  0  0
    6.1073    0.7904   23.3108 F   0  0  0  0  0  0  0  0  0  0  0  0
    6.9747    2.3671   22.0956 F   0  0  0  0  0  0  0  0  0  0  0  0
    5.4212    0.6381   20.1654 C   0  0  0  0  0  0  0  0  0  0  0  0
    4.9888    0.6406   21.1623 H   0  0  0  0  0  0  0  0  0  0  0  0
    4.7897    1.2905   19.0998 C   0  0  0  0  0  0  0  0  0  0  0  0
    3.8542    1.8184   19.2441 H   0  0  0  0  0  0  0  0  0  0  0  0
  1  2  1  0
  2  3  2  0
  3  4  1  0
  4  5  1  0
  4  6  2  0
  6  7  1  0
  7  8  1  0
  8  9  1  0
  8 10  1  0
 10 11  2  0
 11 12  1  0
 12 13  1  0
 12 14  2  0
 14 15  1  0
 14 16  1  0
 16 17  1  0
 16 18  2  0
 18 19  1  0
 19 20  1  0
 19 21  1  0
 19 22  1  0
  6 23  1  0
 23 24  1  0
 23 25  2  0
 25 26  1  0
 25  2  1  0
 18 10  1  0
M  END
>  <cnnaffinity>  (1) 
-4.79516

>  <filename>  (1) 
FC(F)(F)c1cccnc1NSc1cccnc1

$$$$
