
     RDKit          3D

 43 46  0  0  0  0  0  0  0  0999 V2000
    6.6059   -3.2760   25.8005 F   0  0  0  0  0  0  0  0  0  0  0  0
    6.7446   -3.0573   24.4646 C   0  0  0  0  0  0  0  0  0  0  0  0
    7.4878   -4.0828   23.9504 F   0  0  0  0  0  0  0  0  0  0  0  0
    7.4817   -1.7445   24.2741 C   0  0  0  0  0  0  0  0  0  0  0  0
    7.6002   -1.3744   22.8738 N   0  0  0  0  0  0  0  0  0  0  0  0
    6.6095   -0.6573   22.2852 N   0  0  0  0  0  0  0  0  0  0  0  0
    6.9818   -0.6200   21.0208 C   0  0  0  0  0  0  0  0  0  0  0  0
    6.3214    0.1047   19.9354 C   0  0  0  0  0  0  0  0  0  0  0  0
    5.1270    0.8271   20.0600 C   0  0  0  0  0  0  0  0  0  0  0  0
    4.6383    1.4645   18.9186 C   0  0  0  0  0  0  0  0  0  0  0  0
    5.3599    1.3708   17.7211 C   0  0  0  0  0  0  0  0  0  0  0  0
    6.5105    0.6960   17.5985 N   0  0  0  0  0  0  0  0  0  0  0  0
    6.9745    0.0869   18.6912 C   0  0  0  0  0  0  0  0  0  0  0  0
    7.9169   -0.4430   18.5883 H   0  0  0  0  0  0  0  0  0  0  0  0
    5.0026    1.8614   16.8191 H   0  0  0  0  0  0  0  0  0  0  0  0
    3.7259    2.0474   18.9424 H   0  0  0  0  0  0  0  0  0  0  0  0
    4.6129    0.8972   21.0223 H   0  0  0  0  0  0  0  0  0  0  0  0
    8.1226   -1.2997   20.7540 N   0  0  0  0  0  0  0  0  0  0  0  0
    8.4961   -1.7482   21.9323 C   0  0  0  0  0  0  0  0  0  0  0  0
    9.8266   -2.3749   22.1335 C   0  0  0  0  0  0  0  0  0  0  0  0
   10.9562   -1.3364   22.2403 C   0  0  0  0  0  0  0  0  0  0  0  0
   12.3074   -1.9945   21.9231 C   0  0  0  0  0  0  0  0  0  0  0  0
   13.5471   -1.0989   22.0843 C   0  0  0  0  0  0  0  0  0  0  0  0
   13.2713    0.0820   22.8969 N   0  0  0  0  0  0  0  0  0  0  0  0
   14.0800    1.1588   23.0696 C   0  0  0  0  0  0  0  0  0  0  0  0
   13.5547    2.0500   23.8735 N   0  0  0  0  0  0  0  0  0  0  0  0
   12.3445    1.5276   24.2477 C   0  0  0  0  0  0  0  0  0  0  0  0
   12.1342    0.3191   23.6456 C   0  0  0  0  0  0  0  0  0  0  0  0
   10.9649   -0.6065   23.5869 C   0  0  0  0  0  0  0  0  0  0  0  0
   10.0391   -0.0350   23.7342 H   0  0  0  0  0  0  0  0  0  0  0  0
   10.9875   -1.3270   24.4171 H   0  0  0  0  0  0  0  0  0  0  0  0
   11.6923    2.0470   24.9379 H   0  0  0  0  0  0  0  0  0  0  0  0
   15.0273    1.2382   22.5516 H   0  0  0  0  0  0  0  0  0  0  0  0
   14.3818   -1.6526   22.5259 H   0  0  0  0  0  0  0  0  0  0  0  0
   13.9016   -0.7800   21.1045 H   0  0  0  0  0  0  0  0  0  0  0  0
   12.4180   -2.8889   22.5439 H   0  0  0  0  0  0  0  0  0  0  0  0
   12.2765   -2.3146   20.8784 H   0  0  0  0  0  0  0  0  0  0  0  0
   10.7882   -0.5718   21.4722 H   0  0  0  0  0  0  0  0  0  0  0  0
    9.8327   -3.0638   22.9844 H   0  0  0  0  0  0  0  0  0  0  0  0
    9.9777   -2.9471   21.2198 H   0  0  0  0  0  0  0  0  0  0  0  0
    8.4608   -1.8391   24.7528 H   0  0  0  0  0  0  0  0  0  0  0  0
    6.9253   -0.9573   24.7841 H   0  0  0  0  0  0  0  0  0  0  0  0
    5.7562   -3.0750   24.0032 H   0  0  0  0  0  0  0  0  0  0  0  0
  1  2  1  0
  2  3  1  0
  2  4  1  0
  4  5  1  0
  5  6  1  0
  6  7  2  0
  7  8  1  0
  8  9  2  0
  9 10  1  0
 10 11  2  0
 11 12  1  0
 12 13  2  0
 13 14  1  0
 11 15  1  0
 10 16  1  0
  9 17  1  0
  7 18  1  0
 18 19  2  0
 19 20  1  0
 20 21  1  0
 21 22  1  0
 22 23  1  0
 23 24  1  0
 24 25  1  0
 25 26  2  0
 26 27  1  0
 27 28  2  0
 28 29  1  0
 29 30  1  0
 29 31  1  0
 27 32  1  0
 25 33  1  0
 23 34  1  0
 23 35  1  0
 22 36  1  0
 22 37  1  0
 21 38  1  0
 20 39  1  0
 20 40  1  0
  4 41  1  0
  4 42  1  0
  2 43  1  0
 19  5  1  0
 29 21  1  0
 13  8  1  0
 28 24  1  0
M  END
>  <cnnaffinity>  (1) 
-6.30837

>  <filename>  (1) 
FC(F)Cn1nc(-c2cccnc2)nc1CC1CCn2cncc2C1

$$$$
