
     RDKit          3D

 23 25  0  0  0  0  0  0  0  0999 V2000
    4.9215    1.7793   16.9982 H   0  0  0  0  0  0  0  0  0  0  0  0
    5.4054    1.2903   17.8404 C   0  0  0  0  0  0  0  0  0  0  0  0
    6.5684    0.6764   17.5723 N   0  0  0  0  0  0  0  0  0  0  0  0
    7.1722    0.0548   18.5882 C   0  0  0  0  0  0  0  0  0  0  0  0
    8.1198   -0.4322   18.3702 H   0  0  0  0  0  0  0  0  0  0  0  0
    6.6446    0.0113   19.8925 C   0  0  0  0  0  0  0  0  0  0  0  0
    7.4020   -0.6958   20.9231 C   0  0  0  0  0  0  0  0  0  0  0  0
    8.3187   -1.6040   20.7011 N   0  0  0  0  0  0  0  0  0  0  0  0
    8.8204   -2.0459   21.9045 N   0  0  0  0  0  0  0  0  0  0  0  0
    8.2021   -1.3569   22.8246 C   0  0  0  0  0  0  0  0  0  0  0  0
    8.2801   -1.1081   24.5432 S   0  0  0  0  0  0  0  0  0  0  0  0
    7.0794    0.1761   24.3242 C   0  0  0  0  0  0  0  0  0  0  0  0
    6.4827    1.1135   25.6578 S   0  0  0  0  0  0  0  0  0  0  0  0
    5.0618    0.0071   26.0909 C   0  0  0  0  0  0  0  0  0  0  0  0
    4.4209    0.5153   27.1396 F   0  0  0  0  0  0  0  0  0  0  0  0
    5.4934   -1.2105   26.3996 F   0  0  0  0  0  0  0  0  0  0  0  0
    4.2098   -0.0715   25.0823 F   0  0  0  0  0  0  0  0  0  0  0  0
    6.6356    0.3522   23.1229 N   0  0  0  0  0  0  0  0  0  0  0  0
    7.2754   -0.5111   22.2882 N   0  0  0  0  0  0  0  0  0  0  0  0
    5.4291    0.6520   20.1644 C   0  0  0  0  0  0  0  0  0  0  0  0
    5.0056    0.6399   21.1721 H   0  0  0  0  0  0  0  0  0  0  0  0
    4.8053    1.3071   19.1059 C   0  0  0  0  0  0  0  0  0  0  0  0
    3.8741    1.8435   19.2578 H   0  0  0  0  0  0  0  0  0  0  0  0
  1  2  1  0
  2  3  2  0
  3  4  1  0
  4  5  1  0
  4  6  2  0
  6  7  1  0
  7  8  2  0
  8  9  1  0
  9 10  2  0
 10 11  1  0
 11 12  1  0
 12 13  1  0
 13 14  1  0
 14 15  1  0
 14 16  1  0
 14 17  1  0
 12 18  2  0
 18 19  1  0
  6 20  1  0
 20 21  1  0
 20 22  2  0
 22 23  1  0
 22  2  1  0
 19  7  1  0
 19 10  1  0
M  END
>  <cnnaffinity>  (1) 
-4.85587

>  <filename>  (1) 
FC(F)(F)Sc1nn2c(-c3cccnc3)nnc2s1

$$$$
