
     RDKit          3D

 43 46  0  0  0  0  0  0  0  0999 V2000
    5.0042   -7.3966   19.3631 F   0  0  0  0  0  0  0  0  0  0  0  0
    5.7325   -6.5512   18.6060 C   0  0  0  0  0  0  0  0  0  0  0  0
    6.9535   -6.9735   18.4158 F   0  0  0  0  0  0  0  0  0  0  0  0
    5.2570   -6.6672   17.3687 F   0  0  0  0  0  0  0  0  0  0  0  0
    5.8571   -5.2325   19.3222 C   0  0  0  0  0  0  0  0  0  0  0  0
    6.7255   -5.3597   20.5943 C   0  0  0  0  0  0  0  0  0  0  0  0
    6.6144   -4.1065   21.3357 N   0  0  0  0  0  0  0  0  0  0  0  0
    7.3381   -3.0626   20.9035 N   0  0  0  0  0  0  0  0  0  0  0  0
    6.8472   -2.0408   21.5687 C   0  0  0  0  0  0  0  0  0  0  0  0
    7.2992   -0.6440   21.2627 C   0  0  0  0  0  0  0  0  0  0  0  0
    6.6422   -0.0083   20.0302 C   0  0  0  0  0  0  0  0  0  0  0  0
    5.3737    0.5810   20.1336 C   0  0  0  0  0  0  0  0  0  0  0  0
    4.8233    1.2133   19.0163 C   0  0  0  0  0  0  0  0  0  0  0  0
    5.5484    1.2210   17.8233 C   0  0  0  0  0  0  0  0  0  0  0  0
    6.7404    0.6236   17.6824 N   0  0  0  0  0  0  0  0  0  0  0  0
    7.2588    0.0245   18.7632 C   0  0  0  0  0  0  0  0  0  0  0  0
    8.2216   -0.4656   18.6088 H   0  0  0  0  0  0  0  0  0  0  0  0
    5.1544    1.7232   16.9413 H   0  0  0  0  0  0  0  0  0  0  0  0
    3.8727    1.7315   19.0647 H   0  0  0  0  0  0  0  0  0  0  0  0
    4.8375    0.5657   21.0844 H   0  0  0  0  0  0  0  0  0  0  0  0
    8.3871   -0.6800   21.1399 H   0  0  0  0  0  0  0  0  0  0  0  0
    7.0877   -0.0448   22.1534 H   0  0  0  0  0  0  0  0  0  0  0  0
    5.8647   -2.3755   22.4319 N   0  0  0  0  0  0  0  0  0  0  0  0
    5.6754   -3.6761   22.2164 C   0  0  0  0  0  0  0  0  0  0  0  0
    4.5719   -4.6082   22.6714 C   0  0  0  0  0  0  0  0  0  0  0  0
    4.1905   -5.5808   21.9271 N   0  0  0  0  0  0  0  0  0  0  0  0
    2.4595   -6.3705   22.7405 C   0  0  0  0  0  0  0  0  0  0  0  0
    2.7771   -6.3466   22.9599 C   0  0  0  0  0  0  0  0  0  0  0  0
    2.9166   -5.5857   24.1649 C   0  0  0  0  0  0  0  0  0  0  0  0
    2.4374   -5.8594   25.4087 C   0  0  0  0  0  0  0  0  0  0  0  0
    2.8034   -4.9833   26.4423 C   0  0  0  0  0  0  0  0  0  0  0  0
    3.5995   -3.9173   26.2696 N   0  0  0  0  0  0  0  0  0  0  0  0
    4.1152   -3.7172   25.0619 C   0  0  0  0  0  0  0  0  0  0  0  0
    3.8449   -4.5718   23.9792 C   0  0  0  0  0  0  0  0  0  0  0  0
    4.7772   -2.8631   24.9362 H   0  0  0  0  0  0  0  0  0  0  0  0
    2.4404   -5.1433   27.4596 H   0  0  0  0  0  0  0  0  0  0  0  0
    1.8156   -6.7180   25.6737 H   0  0  0  0  0  0  0  0  0  0  0  0
    1.7508   -7.1819   23.0338 H   0  0  0  0  0  0  0  0  0  0  0  0
    1.6898   -5.9570   21.9956 H   0  0  0  0  0  0  0  0  0  0  0  0
    7.7864   -5.4899   20.3816 H   0  0  0  0  0  0  0  0  0  0  0  0
    6.3966   -6.1844   21.2303 H   0  0  0  0  0  0  0  0  0  0  0  0
    4.8802   -4.9341   19.6197 H   0  0  0  0  0  0  0  0  0  0  0  0
    6.2972   -4.4315   18.7292 H   0  0  0  0  0  0  0  0  0  0  0  0
  1  2  1  0
  2  3  1  0
  2  4  1  0
  2  5  1  0
  5  6  1  0
  6  7  1  0
  7  8  1  0
  8  9  2  0
  9 10  1  0
 10 11  1  0
 11 12  2  0
 12 13  1  0
 13 14  2  0
 14 15  1  0
 15 16  2  0
 16 17  1  0
 14 18  1  0
 13 19  1  0
 12 20  1  0
 10 21  1  0
 10 22  1  0
  9 23  1  0
 23 24  2  0
 24 25  1  0
 25 26  2  0
 26 27  1  0
 27 28  2  0
 28 29  1  0
 29 30  2  0
 30 31  1  0
 31 32  2  0
 32 33  1  0
 33 34  2  0
 33 35  1  0
 31 36  1  0
 30 37  1  0
 28 38  1  0
 27 39  1  0
  6 40  1  0
  6 41  1  0
  5 42  1  0
  5 43  1  0
 24  7  1  0
 34 25  1  0
 16 11  1  0
 34 29  1  0
M  END
>  <cnnaffinity>  (1) 
-5.83595

>  <filename>  (1) 
FC(F)(F)CCn1nc(Cc2cccnc2)nc1-c1nccc2ccncc12

$$$$
