
     RDKit          3D

 39 42  0  0  0  0  0  0  0  0999 V2000
   10.5592   -0.7335   24.4936 F   0  0  0  0  0  0  0  0  0  0  0  0
   11.0729   -0.2160   23.3630 C   0  0  0  0  0  0  0  0  0  0  0  0
   12.2786    0.3075   23.6621 F   0  0  0  0  0  0  0  0  0  0  0  0
   10.2755    0.8063   22.9956 F   0  0  0  0  0  0  0  0  0  0  0  0
   11.2401   -1.2465   22.2634 C   0  0  0  0  0  0  0  0  0  0  0  0
   10.1141   -2.2692   22.0734 C   0  0  0  0  0  0  0  0  0  0  0  0
    8.7740   -1.7273   21.8764 N   0  0  0  0  0  0  0  0  0  0  0  0
    8.4345   -1.2859   20.6412 N   0  0  0  0  0  0  0  0  0  0  0  0
    7.3159   -0.6169   20.8512 C   0  0  0  0  0  0  0  0  0  0  0  0
    6.5851    0.0664   19.7906 C   0  0  0  0  0  0  0  0  0  0  0  0
    5.3686    0.7325   20.0096 C   0  0  0  0  0  0  0  0  0  0  0  0
    4.7784    1.3824   18.9285 C   0  0  0  0  0  0  0  0  0  0  0  0
    5.4160    1.3418   17.6826 C   0  0  0  0  0  0  0  0  0  0  0  0
    6.5658    0.6867   17.4620 N   0  0  0  0  0  0  0  0  0  0  0  0
    7.1298    0.0629   18.4982 C   0  0  0  0  0  0  0  0  0  0  0  0
    8.0557   -0.4733   18.2916 H   0  0  0  0  0  0  0  0  0  0  0  0
    4.9824    1.8489   16.8235 H   0  0  0  0  0  0  0  0  0  0  0  0
    3.8439    1.9227   19.0325 H   0  0  0  0  0  0  0  0  0  0  0  0
    4.9038    0.7341   20.9987 H   0  0  0  0  0  0  0  0  0  0  0  0
    6.9197   -0.5853   22.1448 N   0  0  0  0  0  0  0  0  0  0  0  0
    7.8384   -1.3140   22.7652 C   0  0  0  0  0  0  0  0  0  0  0  0
    7.8372   -1.7836   24.1639 C   0  0  0  0  0  0  0  0  0  0  0  0
    7.9453   -3.1161   24.5219 C   0  0  0  0  0  0  0  0  0  0  0  0
    8.0488   -3.4853   25.8930 C   0  0  0  0  0  0  0  0  0  0  0  0
    7.9873   -2.5437   26.8920 C   0  0  0  0  0  0  0  0  0  0  0  0
    7.7619   -1.1798   26.5570 C   0  0  0  0  0  0  0  0  0  0  0  0
    7.6044    0.0133   27.2349 C   0  0  0  0  0  0  0  0  0  0  0  0
    7.4723    1.0549   26.3627 N   0  0  0  0  0  0  0  0  0  0  0  0
    7.5411    0.5264   25.1644 C   0  0  0  0  0  0  0  0  0  0  0  0
    7.6915   -0.8381   25.1913 N   0  0  0  0  0  0  0  0  0  0  0  0
    7.4988    1.0391   24.2119 H   0  0  0  0  0  0  0  0  0  0  0  0
    7.5849    0.1546   28.3097 H   0  0  0  0  0  0  0  0  0  0  0  0
    8.1098   -2.8082   27.9276 H   0  0  0  0  0  0  0  0  0  0  0  0
    8.1918   -4.5310   26.1505 H   0  0  0  0  0  0  0  0  0  0  0  0
    7.9433   -3.8789   23.7529 H   0  0  0  0  0  0  0  0  0  0  0  0
   10.3062   -2.8027   21.1480 H   0  0  0  0  0  0  0  0  0  0  0  0
   10.1020   -2.9893   22.8945 H   0  0  0  0  0  0  0  0  0  0  0  0
   11.4048   -0.7093   21.3273 H   0  0  0  0  0  0  0  0  0  0  0  0
   12.1496   -1.8081   22.4915 H   0  0  0  0  0  0  0  0  0  0  0  0
  1  2  1  0
  2  3  1  0
  2  4  1  0
  2  5  1  0
  5  6  1  0
  6  7  1  0
  7  8  1  0
  8  9  2  0
  9 10  1  0
 10 11  2  0
 11 12  1  0
 12 13  2  0
 13 14  1  0
 14 15  2  0
 15 16  1  0
 13 17  1  0
 12 18  1  0
 11 19  1  0
  9 20  1  0
 20 21  2  0
 21 22  1  0
 22 23  2  0
 23 24  1  0
 24 25  2  0
 25 26  1  0
 26 27  2  0
 27 28  1  0
 28 29  2  0
 29 30  1  0
 29 31  1  0
 27 32  1  0
 25 33  1  0
 24 34  1  0
 23 35  1  0
  6 36  1  0
  6 37  1  0
  5 38  1  0
  5 39  1  0
 21  7  1  0
 30 22  1  0
 15 10  1  0
 30 26  1  0
M  END
>  <cnnaffinity>  (1) 
-6.21383

>  <filename>  (1) 
FC(F)(F)CCn1nc(-c2cccnc2)nc1-c1cccc2cncn12

$$$$
