
     RDKit          3D

 26 27  0  0  0  0  0  0  0  0999 V2000
    7.2212   -3.0882   26.1092 H   0  0  0  0  0  0  0  0  0  0  0  0
    7.6812   -2.4727   25.3434 C   0  0  0  0  0  0  0  0  0  0  0  0
    7.0601   -2.4355   24.1675 N   0  0  0  0  0  0  0  0  0  0  0  0
    7.6030   -1.6828   23.2111 C   0  0  0  0  0  0  0  0  0  0  0  0
    6.9245   -1.6414   21.8200 C   0  0  0  0  0  0  0  0  0  0  0  0
    5.7433   -2.6880   21.3682 S   0  0  0  0  0  0  0  0  0  0  0  0
    7.4042   -0.6607   20.9912 N   0  0  0  0  0  0  0  0  0  0  0  0
    8.2322   -0.1851   21.3392 H   0  0  0  0  0  0  0  0  0  0  0  0
    6.6872   -0.0308   19.9229 C   0  0  0  0  0  0  0  0  0  0  0  0
    7.2121    0.0141   18.6190 C   0  0  0  0  0  0  0  0  0  0  0  0
    8.1590   -0.4809   18.4126 H   0  0  0  0  0  0  0  0  0  0  0  0
    6.6152    0.6421   17.5959 N   0  0  0  0  0  0  0  0  0  0  0  0
    5.4533    1.2682   17.8411 C   0  0  0  0  0  0  0  0  0  0  0  0
    4.9907    1.7757   16.9955 H   0  0  0  0  0  0  0  0  0  0  0  0
    4.8451    1.2799   19.1010 C   0  0  0  0  0  0  0  0  0  0  0  0
    3.9107    1.8138   19.2338 H   0  0  0  0  0  0  0  0  0  0  0  0
    5.4682    0.6133   20.1641 C   0  0  0  0  0  0  0  0  0  0  0  0
    5.0459    0.5940   21.1702 H   0  0  0  0  0  0  0  0  0  0  0  0
    8.6902   -0.9086   23.3873 N   0  0  0  0  0  0  0  0  0  0  0  0
    9.2849   -0.8949   24.5898 C   0  0  0  0  0  0  0  0  0  0  0  0
   10.4227    0.1415   24.8399 C   0  0  0  0  0  0  0  0  0  0  0  0
   11.4611   -0.4196   25.4868 F   0  0  0  0  0  0  0  0  0  0  0  0
    9.9917    1.1588   25.6136 F   0  0  0  0  0  0  0  0  0  0  0  0
   10.9061    0.6749   23.7169 F   0  0  0  0  0  0  0  0  0  0  0  0
    8.8392   -1.7464   25.6043 C   0  0  0  0  0  0  0  0  0  0  0  0
    9.3276   -1.8451   26.5605 H   0  0  0  0  0  0  0  0  0  0  0  0
  1  2  1  0
  2  3  2  0
  3  4  1  0
  4  5  1  0
  5  6  2  0
  5  7  1  0
  7  8  1  0
  7  9  1  0
  9 10  2  0
 10 11  1  0
 10 12  1  0
 12 13  2  0
 13 14  1  0
 13 15  1  0
 15 16  1  0
 15 17  2  0
 17 18  1  0
  4 19  2  0
 19 20  1  0
 20 21  1  0
 21 22  1  0
 21 23  1  0
 21 24  1  0
 20 25  2  0
 25 26  1  0
 25  2  1  0
 17  9  1  0
M  END
>  <cnnaffinity>  (1) 
-5.27778

>  <filename>  (1) 
FC(F)(F)c1ccnc(C(=S)Nc2cccnc2)n1

$$$$
