
     RDKit          3D

 38 40  0  0  0  0  0  0  0  0999 V2000
   12.9877   -0.2929   22.1708 F   0  0  0  0  0  0  0  0  0  0  0  0
   12.0392   -1.0460   21.5752 C   0  0  0  0  0  0  0  0  0  0  0  0
   12.6733   -1.8226   20.6735 F   0  0  0  0  0  0  0  0  0  0  0  0
   11.2410   -0.2008   20.9203 F   0  0  0  0  0  0  0  0  0  0  0  0
   11.3010   -1.8880   22.5953 C   0  0  0  0  0  0  0  0  0  0  0  0
    9.9919   -2.5444   22.1254 C   0  0  0  0  0  0  0  0  0  0  0  0
    8.7995   -1.7083   22.0360 N   0  0  0  0  0  0  0  0  0  0  0  0
    8.4995   -1.2123   20.8142 N   0  0  0  0  0  0  0  0  0  0  0  0
    7.3398   -0.6186   20.9954 C   0  0  0  0  0  0  0  0  0  0  0  0
    6.6172    0.0279   19.9116 C   0  0  0  0  0  0  0  0  0  0  0  0
    5.3939    0.6752   20.1285 C   0  0  0  0  0  0  0  0  0  0  0  0
    4.7999    1.3157   19.0462 C   0  0  0  0  0  0  0  0  0  0  0  0
    5.4447    1.2829   17.8034 C   0  0  0  0  0  0  0  0  0  0  0  0
    6.6041    0.6445   17.5849 N   0  0  0  0  0  0  0  0  0  0  0  0
    7.1760    0.0335   18.6258 C   0  0  0  0  0  0  0  0  0  0  0  0
    8.1269   -0.4635   18.4326 H   0  0  0  0  0  0  0  0  0  0  0  0
    5.0134    1.7958   16.9466 H   0  0  0  0  0  0  0  0  0  0  0  0
    3.8681    1.8564   19.1599 H   0  0  0  0  0  0  0  0  0  0  0  0
    4.9542    0.6859   21.1285 H   0  0  0  0  0  0  0  0  0  0  0  0
    6.8650   -0.7024   22.2593 N   0  0  0  0  0  0  0  0  0  0  0  0
    7.7932   -1.3928   22.8928 C   0  0  0  0  0  0  0  0  0  0  0  0
    7.6359   -1.8907   24.3037 C   0  0  0  0  0  0  0  0  0  0  0  0
    7.2921   -3.3996   24.3785 C   0  0  0  0  0  0  0  0  0  0  0  0
    6.7430   -3.9434   26.0157 S   0  0  0  0  0  0  0  0  0  0  0  0
    8.2125   -3.5230   26.9931 C   0  0  0  0  0  0  0  0  0  0  0  0
    8.5568   -2.0348   26.9408 C   0  0  0  0  0  0  0  0  0  0  0  0
    9.1192   -1.4950   25.3035 S   0  0  0  0  0  0  0  0  0  0  0  0
    9.3962   -1.8046   27.6047 H   0  0  0  0  0  0  0  0  0  0  0  0
    7.7008   -1.4262   27.2517 H   0  0  0  0  0  0  0  0  0  0  0  0
    9.0660   -4.1274   26.6665 H   0  0  0  0  0  0  0  0  0  0  0  0
    7.9679   -3.8279   28.0154 H   0  0  0  0  0  0  0  0  0  0  0  0
    8.1582   -3.9938   24.0718 H   0  0  0  0  0  0  0  0  0  0  0  0
    6.4635   -3.6325   23.7008 H   0  0  0  0  0  0  0  0  0  0  0  0
    6.7934   -1.3301   24.7221 H   0  0  0  0  0  0  0  0  0  0  0  0
    9.7651   -3.3932   22.7756 H   0  0  0  0  0  0  0  0  0  0  0  0
   10.1073   -2.9046   21.1068 H   0  0  0  0  0  0  0  0  0  0  0  0
   11.1330   -1.2464   23.4558 H   0  0  0  0  0  0  0  0  0  0  0  0
   11.9929   -2.6965   22.8752 H   0  0  0  0  0  0  0  0  0  0  0  0
  1  2  1  0
  2  3  1  0
  2  4  1  0
  2  5  1  0
  5  6  1  0
  6  7  1  0
  7  8  1  0
  8  9  2  0
  9 10  1  0
 10 11  2  0
 11 12  1  0
 12 13  2  0
 13 14  1  0
 14 15  2  0
 15 16  1  0
 13 17  1  0
 12 18  1  0
 11 19  1  0
  9 20  1  0
 20 21  2  0
 21 22  1  0
 22 23  1  0
 23 24  1  0
 24 25  1  0
 25 26  1  0
 26 27  1  0
 26 28  1  0
 26 29  1  0
 25 30  1  0
 25 31  1  0
 23 32  1  0
 23 33  1  0
 22 34  1  0
  6 35  1  0
  6 36  1  0
  5 37  1  0
  5 38  1  0
 21  7  1  0
 27 22  1  0
 15 10  1  0
M  END
>  <cnnaffinity>  (1) 
-6.0439

>  <filename>  (1) 
FC(F)(F)CCn1nc(-c2cccnc2)nc1C1CSCCS1

$$$$
