
     RDKit          3D

 43 46  0  0  0  0  0  0  0  0999 V2000
   10.9522   -0.4286   23.3452 F   0  0  0  0  0  0  0  0  0  0  0  0
   10.8898   -1.1550   22.1897 C   0  0  0  0  0  0  0  0  0  0  0  0
   11.9873   -1.9572   22.1520 F   0  0  0  0  0  0  0  0  0  0  0  0
    9.6546   -2.0411   22.2024 C   0  0  0  0  0  0  0  0  0  0  0  0
    8.4645   -1.2646   21.9165 N   0  0  0  0  0  0  0  0  0  0  0  0
    8.2850   -0.8379   20.6472 N   0  0  0  0  0  0  0  0  0  0  0  0
    7.1542   -0.1566   20.7234 C   0  0  0  0  0  0  0  0  0  0  0  0
    6.5080    0.4544   19.5617 C   0  0  0  0  0  0  0  0  0  0  0  0
    5.2842    1.1323   19.6745 C   0  0  0  0  0  0  0  0  0  0  0  0
    4.7023    1.6346   18.5168 C   0  0  0  0  0  0  0  0  0  0  0  0
    5.3637    1.4568   17.2974 C   0  0  0  0  0  0  0  0  0  0  0  0
    6.5371    0.8193   17.1757 N   0  0  0  0  0  0  0  0  0  0  0  0
    7.0941    0.3401   18.2916 C   0  0  0  0  0  0  0  0  0  0  0  0
    8.0536   -0.1560   18.1645 H   0  0  0  0  0  0  0  0  0  0  0  0
    4.9405    1.8450   16.3775 H   0  0  0  0  0  0  0  0  0  0  0  0
    3.7594    2.1689   18.5458 H   0  0  0  0  0  0  0  0  0  0  0  0
    4.8033    1.2557   20.6470 H   0  0  0  0  0  0  0  0  0  0  0  0
    6.6220   -0.0913   21.9718 N   0  0  0  0  0  0  0  0  0  0  0  0
    7.4715   -0.7835   22.7062 C   0  0  0  0  0  0  0  0  0  0  0  0
    7.3827   -1.0923   24.1747 C   0  0  0  0  0  0  0  0  0  0  0  0
    6.3623   -2.2059   24.5231 C   0  0  0  0  0  0  0  0  0  0  0  0
    6.6350   -3.4692   23.7685 C   0  0  0  0  0  0  0  0  0  0  0  0
    6.1202   -3.9288   22.5911 C   0  0  0  0  0  0  0  0  0  0  0  0
    6.7619   -5.1013   22.2289 N   0  0  0  0  0  0  0  0  0  0  0  0
    7.7069   -5.4062   23.1795 C   0  0  0  0  0  0  0  0  0  0  0  0
    8.5737   -6.5038   23.3078 C   0  0  0  0  0  0  0  0  0  0  0  0
    9.4396   -6.5045   24.3986 C   0  0  0  0  0  0  0  0  0  0  0  0
    9.4450   -5.4748   25.3667 C   0  0  0  0  0  0  0  0  0  0  0  0
    8.5451   -4.4243   25.2684 C   0  0  0  0  0  0  0  0  0  0  0  0
    7.6682   -4.3869   24.1581 C   0  0  0  0  0  0  0  0  0  0  0  0
    8.5003   -3.6406   26.0250 H   0  0  0  0  0  0  0  0  0  0  0  0
   10.1424   -5.5310   26.2008 H   0  0  0  0  0  0  0  0  0  0  0  0
   10.1180   -7.3376   24.5283 H   0  0  0  0  0  0  0  0  0  0  0  0
    8.5480   -7.3270   22.5985 H   0  0  0  0  0  0  0  0  0  0  0  0
    6.5770   -5.6623   21.4153 H   0  0  0  0  0  0  0  0  0  0  0  0
    5.3482   -3.4883   21.9676 H   0  0  0  0  0  0  0  0  0  0  0  0
    5.3440   -1.8652   24.3539 H   0  0  0  0  0  0  0  0  0  0  0  0
    6.4129   -2.4268   25.5966 H   0  0  0  0  0  0  0  0  0  0  0  0
    7.1371   -0.1697   24.7049 H   0  0  0  0  0  0  0  0  0  0  0  0
    8.3776   -1.3903   24.5359 H   0  0  0  0  0  0  0  0  0  0  0  0
    9.5814   -2.5503   23.1676 H   0  0  0  0  0  0  0  0  0  0  0  0
    9.7505   -2.7938   21.4183 H   0  0  0  0  0  0  0  0  0  0  0  0
   10.8997   -0.4644   21.3406 H   0  0  0  0  0  0  0  0  0  0  0  0
  1  2  1  0
  2  3  1  0
  2  4  1  0
  4  5  1  0
  5  6  1  0
  6  7  2  0
  7  8  1  0
  8  9  2  0
  9 10  1  0
 10 11  2  0
 11 12  1  0
 12 13  2  0
 13 14  1  0
 11 15  1  0
 10 16  1  0
  9 17  1  0
  7 18  1  0
 18 19  2  0
 19 20  1  0
 20 21  1  0
 21 22  1  0
 22 23  2  0
 23 24  1  0
 24 25  1  0
 25 26  2  0
 26 27  1  0
 27 28  2  0
 28 29  1  0
 29 30  2  0
 29 31  1  0
 28 32  1  0
 27 33  1  0
 26 34  1  0
 24 35  1  0
 23 36  1  0
 21 37  1  0
 21 38  1  0
 20 39  1  0
 20 40  1  0
  4 41  1  0
  4 42  1  0
  2 43  1  0
 19  5  1  0
 30 22  1  0
 13  8  1  0
 30 25  1  0
M  END
>  <cnnaffinity>  (1) 
-6.07412

>  <filename>  (1) 
FC(F)Cn1nc(-c2cccnc2)nc1CCc1c[nH]c2ccccc12

$$$$
