
     RDKit          3D

 38 41  0  0  0  0  0  0  0  0999 V2000
   10.5915   -0.9719   23.8259 F   0  0  0  0  0  0  0  0  0  0  0  0
   11.0303   -1.3046   22.5749 C   0  0  0  0  0  0  0  0  0  0  0  0
   11.0885   -0.1547   21.8523 F   0  0  0  0  0  0  0  0  0  0  0  0
   10.0591   -2.2758   21.9243 C   0  0  0  0  0  0  0  0  0  0  0  0
    8.7345   -1.6559   21.6476 C   0  0  0  0  0  0  0  0  0  0  0  0
    8.3731   -1.1960   20.4811 N   0  0  0  0  0  0  0  0  0  0  0  0
    7.2094   -0.5388   20.7440 C   0  0  0  0  0  0  0  0  0  0  0  0
    6.4700    0.1410   19.6917 C   0  0  0  0  0  0  0  0  0  0  0  0
    5.2512    0.8137   19.8718 C   0  0  0  0  0  0  0  0  0  0  0  0
    4.7089    1.4581   18.7622 C   0  0  0  0  0  0  0  0  0  0  0  0
    5.3860    1.4036   17.5383 C   0  0  0  0  0  0  0  0  0  0  0  0
    6.5313    0.7325   17.3575 N   0  0  0  0  0  0  0  0  0  0  0  0
    7.0498    0.1188   18.4201 C   0  0  0  0  0  0  0  0  0  0  0  0
    7.9782   -0.4248   18.2683 H   0  0  0  0  0  0  0  0  0  0  0  0
    4.9989    1.9170   16.6615 H   0  0  0  0  0  0  0  0  0  0  0  0
    3.7857    2.0207   18.8241 H   0  0  0  0  0  0  0  0  0  0  0  0
    4.7541    0.8372   20.8443 H   0  0  0  0  0  0  0  0  0  0  0  0
    6.8325   -0.5757   22.0058 N   0  0  0  0  0  0  0  0  0  0  0  0
    7.8085   -1.3283   22.5823 N   0  0  0  0  0  0  0  0  0  0  0  0
    7.7641   -1.7114   23.9529 C   0  0  0  0  0  0  0  0  0  0  0  0
    7.6481   -3.0484   24.2969 C   0  0  0  0  0  0  0  0  0  0  0  0
    7.5263   -3.4263   25.6583 C   0  0  0  0  0  0  0  0  0  0  0  0
    7.4935   -2.4716   26.6484 C   0  0  0  0  0  0  0  0  0  0  0  0
    7.6079   -1.0902   26.3173 C   0  0  0  0  0  0  0  0  0  0  0  0
    7.5457   -0.0519   27.2878 C   0  0  0  0  0  0  0  0  0  0  0  0
    7.7863    1.2467   26.9200 C   0  0  0  0  0  0  0  0  0  0  0  0
    8.0778    1.6343   25.6515 N   0  0  0  0  0  0  0  0  0  0  0  0
    8.0889    0.6958   24.7229 C   0  0  0  0  0  0  0  0  0  0  0  0
    7.8167   -0.6942   24.9586 C   0  0  0  0  0  0  0  0  0  0  0  0
    8.3391    1.0259   23.7155 H   0  0  0  0  0  0  0  0  0  0  0  0
    7.7621    2.0517   27.6504 H   0  0  0  0  0  0  0  0  0  0  0  0
    7.3176   -0.2833   28.3192 H   0  0  0  0  0  0  0  0  0  0  0  0
    7.3912   -2.7461   27.6917 H   0  0  0  0  0  0  0  0  0  0  0  0
    7.4518   -4.4797   25.9196 H   0  0  0  0  0  0  0  0  0  0  0  0
    7.5949   -3.8116   23.5250 H   0  0  0  0  0  0  0  0  0  0  0  0
   10.4666   -2.5662   20.9561 H   0  0  0  0  0  0  0  0  0  0  0  0
    9.9693   -3.1602   22.5619 H   0  0  0  0  0  0  0  0  0  0  0  0
   12.0483   -1.7029   22.6694 H   0  0  0  0  0  0  0  0  0  0  0  0
  1  2  1  0
  2  3  1  0
  2  4  1  0
  4  5  1  0
  5  6  2  0
  6  7  1  0
  7  8  1  0
  8  9  2  0
  9 10  1  0
 10 11  2  0
 11 12  1  0
 12 13  2  0
 13 14  1  0
 11 15  1  0
 10 16  1  0
  9 17  1  0
  7 18  2  0
 18 19  1  0
 19 20  1  0
 20 21  2  0
 21 22  1  0
 22 23  2  0
 23 24  1  0
 24 25  2  0
 25 26  1  0
 26 27  2  0
 27 28  1  0
 28 29  2  0
 28 30  1  0
 26 31  1  0
 25 32  1  0
 23 33  1  0
 22 34  1  0
 21 35  1  0
  4 36  1  0
  4 37  1  0
  2 38  1  0
 19  5  1  0
 29 20  1  0
 13  8  1  0
 29 24  1  0
M  END
>  <cnnaffinity>  (1) 
-6.21966

>  <filename>  (1) 
FC(F)Cc1nc(-c2cccnc2)nn1-c1cccc2ccncc12

$$$$
