
     RDKit          3D

 39 40  0  0  0  0  0  0  0  0999 V2000
    6.8716    1.9296   30.9062 F   0  0  0  0  0  0  0  0  0  0  0  0
    6.2121    1.1794   29.9986 C   0  0  0  0  0  0  0  0  0  0  0  0
    6.1249   -0.0584   30.5307 F   0  0  0  0  0  0  0  0  0  0  0  0
    4.9679    1.6514   29.9039 F   0  0  0  0  0  0  0  0  0  0  0  0
    6.9963    1.1476   28.6439 C   0  0  0  0  0  0  0  0  0  0  0  0
    8.2231    0.4747   28.6076 C   0  0  0  0  0  0  0  0  0  0  0  0
    8.8429    0.3993   27.3695 C   0  0  0  0  0  0  0  0  0  0  0  0
    8.3851    0.9810   26.2699 N   0  0  0  0  0  0  0  0  0  0  0  0
    7.2515    1.6421   26.4343 C   0  0  0  0  0  0  0  0  0  0  0  0
    6.7000    2.3001   25.4176 N   0  0  0  0  0  0  0  0  0  0  0  0
    7.3381    2.5644   24.1432 C   0  0  0  0  0  0  0  0  0  0  0  0
    7.4896    1.2505   23.3837 C   0  0  0  0  0  0  0  0  0  0  0  0
    8.1947    1.4136   22.0442 C   0  0  0  0  0  0  0  0  0  0  0  0
    8.5448    0.0734   21.4150 N   0  0  0  0  0  4  0  0  0  0  0  0
    7.3557   -0.7582   21.0041 C   0  0  0  0  0  0  0  0  0  0  0  0
    6.6389   -0.0306   19.9013 C   0  0  0  0  0  0  0  0  0  0  0  0
    5.4304    0.6363   20.1279 C   0  0  0  0  0  0  0  0  0  0  0  0
    4.8258    1.3208   19.0718 C   0  0  0  0  0  0  0  0  0  0  0  0
    5.4617    1.3216   17.8278 C   0  0  0  0  0  0  0  0  0  0  0  0
    6.6282    0.7029   17.5970 N   0  0  0  0  0  0  0  0  0  0  0  0
    7.2031    0.0595   18.6203 C   0  0  0  0  0  0  0  0  0  0  0  0
    8.1487   -0.4318   18.3837 H   0  0  0  0  0  0  0  0  0  0  0  0
    5.0125    1.8393   16.9803 H   0  0  0  0  0  0  0  0  0  0  0  0
    3.8929    1.8574   19.2018 H   0  0  0  0  0  0  0  0  0  0  0  0
    4.9902    0.6369   21.1283 H   0  0  0  0  0  0  0  0  0  0  0  0
    7.6968   -1.7432   20.6814 H   0  0  0  0  0  0  0  0  0  0  0  0
    6.6842   -0.9073   21.8522 H   0  0  0  0  0  0  0  0  0  0  0  0
    9.0850    0.2229   20.5310 H   0  0  0  0  0  0  0  0  0  0  0  0
    9.1387   -0.4308   22.1113 H   0  0  0  0  0  0  0  0  0  0  0  0
    7.5620    1.9755   21.3501 H   0  0  0  0  0  0  0  0  0  0  0  0
    9.1193    1.9834   22.1830 H   0  0  0  0  0  0  0  0  0  0  0  0
    8.0447    0.5627   24.0251 H   0  0  0  0  0  0  0  0  0  0  0  0
    6.4828    0.8302   23.2555 H   0  0  0  0  0  0  0  0  0  0  0  0
    6.7140    3.2773   23.5876 H   0  0  0  0  0  0  0  0  0  0  0  0
    8.3262    3.0462   24.2642 H   0  0  0  0  0  0  0  0  0  0  0  0
    5.9691    2.8242   25.8677 H   0  0  0  0  0  0  0  0  0  0  0  0
    6.5329    1.7698   27.5546 N   0  0  0  0  0  0  0  0  0  0  0  0
    9.7880   -0.1282   27.2580 H   0  0  0  0  0  0  0  0  0  0  0  0
    8.7030    0.0714   29.4904 H   0  0  0  0  0  0  0  0  0  0  0  0
  1  2  1  0
  2  3  1  0
  2  4  1  0
  2  5  1  0
  5  6  2  0
  6  7  1  0
  7  8  2  0
  8  9  1  0
  9 10  1  0
 10 11  1  0
 11 12  1  0
 12 13  1  0
 13 14  1  0
 14 15  1  0
 15 16  1  0
 16 17  2  0
 17 18  1  0
 18 19  2  0
 19 20  1  0
 20 21  2  0
 21 22  1  0
 19 23  1  0
 18 24  1  0
 17 25  1  0
 15 26  1  0
 15 27  1  0
 14 28  1  0
 14 29  1  0
 13 30  1  0
 13 31  1  0
 12 32  1  0
 12 33  1  0
 11 34  1  0
 11 35  1  0
 10 36  1  0
  9 37  2  0
  7 38  1  0
  6 39  1  0
 37  5  1  0
 21 16  1  0
M  CHG  1  14   1
M  END
>  <cnnaffinity>  (1) 
-5.34082

>  <filename>  (1) 
FC(F)(F)c1ccnc(NCCC[NH2+]Cc2cccnc2)n1

$$$$
