
     RDKit          3D

 31 33  0  0  0  0  0  0  0  0999 V2000
    4.9136    1.7887   16.9905 H   0  0  0  0  0  0  0  0  0  0  0  0
    5.3957    1.2974   17.8308 C   0  0  0  0  0  0  0  0  0  0  0  0
    6.5589    0.6840   17.5591 N   0  0  0  0  0  0  0  0  0  0  0  0
    7.1554    0.0569   18.5780 C   0  0  0  0  0  0  0  0  0  0  0  0
    8.1154   -0.4127   18.3685 H   0  0  0  0  0  0  0  0  0  0  0  0
    6.6353   -0.0230   19.8820 C   0  0  0  0  0  0  0  0  0  0  0  0
    7.4148   -0.7001   20.9885 C   0  0  0  0  0  0  0  0  0  0  0  0
    6.7376   -1.0239   21.7865 H   0  0  0  0  0  0  0  0  0  0  0  0
    7.9456   -1.5855   20.6197 H   0  0  0  0  0  0  0  0  0  0  0  0
    8.4574    0.2183   21.6558 C   0  0  0  0  0  0  0  0  0  0  0  0
    9.3888    0.5669   20.7085 F   0  0  0  0  0  0  0  0  0  0  0  0
    9.1479   -0.5133   22.5847 F   0  0  0  0  0  0  0  0  0  0  0  0
    7.8568    1.4600   22.2969 C   0  0  0  0  0  0  0  0  0  0  0  0
    7.2054    1.3472   23.5575 C   0  0  0  0  0  0  0  0  0  0  0  0
    7.2289    0.3934   24.0830 H   0  0  0  0  0  0  0  0  0  0  0  0
    6.5519    2.4302   24.1350 C   0  0  0  0  0  0  0  0  0  0  0  0
    6.0789    2.3560   25.1129 H   0  0  0  0  0  0  0  0  0  0  0  0
    6.5291    3.6365   23.4073 C   0  0  0  0  0  0  0  0  0  0  0  0
    7.1381    3.7644   22.1358 C   0  0  0  0  0  0  0  0  0  0  0  0
    7.8163    2.6583   21.5887 C   0  0  0  0  0  0  0  0  0  0  0  0
    8.2884    2.6963   20.6145 H   0  0  0  0  0  0  0  0  0  0  0  0
    6.8974    5.1113   21.6945 C   0  0  0  0  0  0  0  0  0  0  0  0
    7.2221    5.5260   20.7511 H   0  0  0  0  0  0  0  0  0  0  0  0
    6.1874    5.7449   22.6731 C   0  0  0  0  0  0  0  0  0  0  0  0
    5.8116    6.7655   22.7132 H   0  0  0  0  0  0  0  0  0  0  0  0
    5.9697    4.8530   23.7093 N   0  0  0  0  0  0  0  0  0  0  0  0
    5.4712    5.0338   24.5596 H   0  0  0  0  0  0  0  0  0  0  0  0
    5.4253    0.6342   20.1448 C   0  0  0  0  0  0  0  0  0  0  0  0
    5.0174    0.6378   21.1628 H   0  0  0  0  0  0  0  0  0  0  0  0
    4.7972    1.3110   19.0966 C   0  0  0  0  0  0  0  0  0  0  0  0
    3.8679    1.8489   19.2511 H   0  0  0  0  0  0  0  0  0  0  0  0
  1  2  1  0
  2  3  2  0
  3  4  1  0
  4  5  1  0
  4  6  2  0
  6  7  1  0
  7  8  1  0
  7  9  1  0
  7 10  1  0
 10 11  1  0
 10 12  1  0
 10 13  1  0
 13 14  2  0
 14 15  1  0
 14 16  1  0
 16 17  1  0
 16 18  2  0
 18 19  1  0
 19 20  2  0
 20 21  1  0
 19 22  1  0
 22 23  1  0
 22 24  2  0
 24 25  1  0
 24 26  1  0
 26 27  1  0
  6 28  1  0
 28 29  1  0
 28 30  2  0
 30 31  1  0
 30  2  1  0
 20 13  1  0
 26 18  1  0
M  END
>  <cnnaffinity>  (1) 
-4.82243

>  <filename>  (1) 
FC(F)(Cc1cccnc1)c1ccc2[nH]ccc2c1

$$$$
