
     RDKit          3D

 34 35  0  0  0  0  0  0  0  0999 V2000
    2.3120   -0.9649   29.2437 F   0  0  0  0  0  0  0  0  0  0  0  0
    3.1141   -0.5213   28.2527 C   0  0  0  0  0  0  0  0  0  0  0  0
    3.7826    0.5352   28.7551 F   0  0  0  0  0  0  0  0  0  0  0  0
    2.3056   -0.0433   27.2896 F   0  0  0  0  0  0  0  0  0  0  0  0
    4.0577   -1.5976   27.7356 C   0  0  0  0  0  0  0  0  0  0  0  0
    4.4646   -2.6128   28.6152 C   0  0  0  0  0  0  0  0  0  0  0  0
    5.3518   -3.5929   28.1785 C   0  0  0  0  0  0  0  0  0  0  0  0
    5.8473   -3.5600   26.8754 C   0  0  0  0  0  0  0  0  0  0  0  0
    5.4850   -2.5420   25.9830 C   0  0  0  0  0  0  0  0  0  0  0  0
    6.1016   -2.5547   24.5929 C   0  0  0  0  0  0  0  0  0  0  0  0
    7.2235   -1.5257   24.3832 C   0  0  0  0  0  0  0  0  0  0  0  0
    7.7158   -1.5364   23.0429 O   0  0  0  0  0  0  0  0  0  0  0  0
    6.8909   -0.8005   22.2197 N   0  0  0  0  0  0  0  0  0  0  0  0
    7.3580   -0.7206   21.0332 C   0  0  0  0  0  0  0  0  0  0  0  0
    6.6279   -0.0050   19.9741 C   0  0  0  0  0  0  0  0  0  0  0  0
    5.4065    0.6571   20.1872 C   0  0  0  0  0  0  0  0  0  0  0  0
    4.8044    1.3020   19.1103 C   0  0  0  0  0  0  0  0  0  0  0  0
    5.4407    1.2673   17.8622 C   0  0  0  0  0  0  0  0  0  0  0  0
    6.6030    0.6316   17.6386 N   0  0  0  0  0  0  0  0  0  0  0  0
    7.1741    0.0224   18.6814 C   0  0  0  0  0  0  0  0  0  0  0  0
    8.1255   -0.4691   18.4674 H   0  0  0  0  0  0  0  0  0  0  0  0
    4.9929    1.7707   17.0086 H   0  0  0  0  0  0  0  0  0  0  0  0
    3.8690    1.8428   19.2266 H   0  0  0  0  0  0  0  0  0  0  0  0
    4.9562    0.6672   21.1819 H   0  0  0  0  0  0  0  0  0  0  0  0
    8.3155   -1.1895   20.7906 H   0  0  0  0  0  0  0  0  0  0  0  0
    8.0962   -1.7919   24.9786 H   0  0  0  0  0  0  0  0  0  0  0  0
    6.9126   -0.5106   24.6571 H   0  0  0  0  0  0  0  0  0  0  0  0
    6.5282   -3.5482   24.4045 H   0  0  0  0  0  0  0  0  0  0  0  0
    5.3549   -2.4291   23.8088 H   0  0  0  0  0  0  0  0  0  0  0  0
    4.5626   -1.5701   26.4146 C   0  0  0  0  0  0  0  0  0  0  0  0
    4.2164   -0.7965   25.7274 H   0  0  0  0  0  0  0  0  0  0  0  0
    6.5261   -4.3394   26.5330 H   0  0  0  0  0  0  0  0  0  0  0  0
    5.6561   -4.3904   28.8480 H   0  0  0  0  0  0  0  0  0  0  0  0
    4.0780   -2.6659   29.6312 H   0  0  0  0  0  0  0  0  0  0  0  0
  1  2  1  0
  2  3  1  0
  2  4  1  0
  2  5  1  0
  5  6  2  0
  6  7  1  0
  7  8  2  0
  8  9  1  0
  9 10  1  0
 10 11  1  0
 11 12  1  0
 12 13  1  0
 13 14  2  3
 14 15  1  0
 15 16  2  0
 16 17  1  0
 17 18  2  0
 18 19  1  0
 19 20  2  0
 20 21  1  0
 18 22  1  0
 17 23  1  0
 16 24  1  0
 14 25  1  0
 11 26  1  0
 11 27  1  0
 10 28  1  0
 10 29  1  0
  9 30  2  0
 30 31  1  0
  8 32  1  0
  7 33  1  0
  6 34  1  0
 30  5  1  0
 20 15  1  0
M  END
>  <cnnaffinity>  (1) 
-4.53002

>  <filename>  (1) 
FC(F)(F)c1cccc(CCON=Cc2cccnc2)c1

$$$$
