
     RDKit          3D

 35 38  0  0  0  0  0  0  0  0999 V2000
   12.3439   -1.9521   22.4391 F   0  0  0  0  0  0  0  0  0  0  0  0
   11.1610   -1.3088   22.4446 C   0  0  0  0  0  0  0  0  0  0  0  0
   11.2071   -0.3607   21.5071 F   0  0  0  0  0  0  0  0  0  0  0  0
   11.0173   -0.7006   23.6345 F   0  0  0  0  0  0  0  0  0  0  0  0
   10.0890   -2.3600   22.2042 C   0  0  0  0  0  0  0  0  0  0  0  0
    8.7630   -1.8288   21.9876 N   0  0  0  0  0  0  0  0  0  0  0  0
    8.4858   -1.3501   20.7563 N   0  0  0  0  0  0  0  0  0  0  0  0
    7.3714   -0.6757   20.9520 C   0  0  0  0  0  0  0  0  0  0  0  0
    6.6586    0.0088   19.8920 C   0  0  0  0  0  0  0  0  0  0  0  0
    5.4420    0.6506   20.1524 C   0  0  0  0  0  0  0  0  0  0  0  0
    4.8136    1.2998   19.0981 C   0  0  0  0  0  0  0  0  0  0  0  0
    5.4224    1.2776   17.8378 C   0  0  0  0  0  0  0  0  0  0  0  0
    6.5831    0.6553   17.5813 N   0  0  0  0  0  0  0  0  0  0  0  0
    7.1923    0.0385   18.5971 C   0  0  0  0  0  0  0  0  0  0  0  0
    8.1444   -0.4425   18.3708 H   0  0  0  0  0  0  0  0  0  0  0  0
    4.9587    1.7866   16.9977 H   0  0  0  0  0  0  0  0  0  0  0  0
    3.8815    1.8339   19.2432 H   0  0  0  0  0  0  0  0  0  0  0  0
    5.0192    0.6389   21.1601 H   0  0  0  0  0  0  0  0  0  0  0  0
    6.9286   -0.6540   22.2317 N   0  0  0  0  0  0  0  0  0  0  0  0
    7.8107   -1.4012   22.8578 C   0  0  0  0  0  0  0  0  0  0  0  0
    7.8415   -1.8189   24.2365 C   0  0  0  0  0  0  0  0  0  0  0  0
    7.9424   -3.0718   24.8023 C   0  0  0  0  0  0  0  0  0  0  0  0
    8.0398   -4.4020   24.3166 C   0  0  0  0  0  0  0  0  0  0  0  0
    8.0532   -5.4371   25.2325 C   0  0  0  0  0  0  0  0  0  0  0  0
    7.9842   -5.1633   26.6373 C   0  0  0  0  0  0  0  0  0  0  0  0
    7.9132   -3.8938   27.1372 C   0  0  0  0  0  0  0  0  0  0  0  0
    7.8665   -2.7911   26.1997 C   0  0  0  0  0  0  0  0  0  0  0  0
    7.7316   -1.4949   26.4359 N   0  0  0  0  0  0  0  0  0  0  0  0
    7.7039   -0.9030   25.1979 O   0  0  0  0  0  0  0  0  0  0  0  0
    7.9208   -3.7467   28.2024 H   0  0  0  0  0  0  0  0  0  0  0  0
    7.9925   -5.9897   27.3419 H   0  0  0  0  0  0  0  0  0  0  0  0
    8.1340   -6.4670   24.9077 H   0  0  0  0  0  0  0  0  0  0  0  0
    8.0823   -4.5768   23.2501 H   0  0  0  0  0  0  0  0  0  0  0  0
   10.3382   -2.8609   21.2747 H   0  0  0  0  0  0  0  0  0  0  0  0
   10.1152   -3.0391   23.0592 H   0  0  0  0  0  0  0  0  0  0  0  0
  1  2  1  0
  2  3  1  0
  2  4  1  0
  2  5  1  0
  5  6  1  0
  6  7  1  0
  7  8  2  0
  8  9  1  0
  9 10  2  0
 10 11  1  0
 11 12  2  0
 12 13  1  0
 13 14  2  0
 14 15  1  0
 12 16  1  0
 11 17  1  0
 10 18  1  0
  8 19  1  0
 19 20  2  0
 20 21  1  0
 21 22  2  0
 22 23  1  0
 23 24  2  0
 24 25  1  0
 25 26  2  0
 26 27  1  0
 27 28  2  0
 28 29  1  0
 26 30  1  0
 25 31  1  0
 24 32  1  0
 23 33  1  0
  5 34  1  0
  5 35  1  0
 20  6  1  0
 29 21  1  0
 14  9  1  0
 27 22  1  0
M  END
>  <cnnaffinity>  (1) 
-6.01539

>  <filename>  (1) 
FC(F)(F)Cn1nc(-c2cccnc2)nc1-c1onc2ccccc12

$$$$
