
     RDKit          3D

 27 28  0  0  0  0  0  0  0  0999 V2000
    7.6378   -1.7632   20.7072 H   0  0  0  0  0  0  0  0  0  0  0  0
    7.3552   -0.7319   20.9064 C   0  0  0  0  0  0  0  0  0  0  0  0
    7.6836   -0.1852   22.1310 C   0  0  0  0  0  0  0  0  0  0  0  0
    7.3954    1.6965   22.4443 Br  0  0  0  0  0  0  0  0  0  0  0  0
    8.3334   -1.0243   23.1514 C   0  0  0  0  0  0  0  0  0  0  0  0
    8.2876   -2.3756   23.0488 N   0  0  0  0  0  0  0  0  0  0  0  0
    8.8801   -3.1665   23.9868 C   0  0  0  0  0  0  0  0  0  0  0  0
    8.8068   -4.7070   23.9489 C   0  0  0  0  0  0  0  0  0  0  0  0
    8.7136   -5.1914   22.6785 F   0  0  0  0  0  0  0  0  0  0  0  0
    7.7330   -5.1530   24.6670 F   0  0  0  0  0  0  0  0  0  0  0  0
    9.9229   -5.2563   24.5100 F   0  0  0  0  0  0  0  0  0  0  0  0
    9.5353   -2.5653   25.0763 C   0  0  0  0  0  0  0  0  0  0  0  0
    9.9811   -3.1897   25.8409 H   0  0  0  0  0  0  0  0  0  0  0  0
    9.6296   -1.1849   25.1860 C   0  0  0  0  0  0  0  0  0  0  0  0
   10.1587   -0.7237   26.0140 H   0  0  0  0  0  0  0  0  0  0  0  0
    9.0225   -0.4179   24.2020 C   0  0  0  0  0  0  0  0  0  0  0  0
    9.0863    0.6616   24.2400 H   0  0  0  0  0  0  0  0  0  0  0  0
    6.6794    0.0128   19.8473 C   0  0  0  0  0  0  0  0  0  0  0  0
    7.1736    0.0227   18.5298 C   0  0  0  0  0  0  0  0  0  0  0  0
    8.0966   -0.5084   18.3063 H   0  0  0  0  0  0  0  0  0  0  0  0
    6.5579    0.6665   17.5216 N   0  0  0  0  0  0  0  0  0  0  0  0
    5.4121    1.3195   17.7983 C   0  0  0  0  0  0  0  0  0  0  0  0
    4.9075    1.8545   17.0014 H   0  0  0  0  0  0  0  0  0  0  0  0
    4.8488    1.3395   19.0788 C   0  0  0  0  0  0  0  0  0  0  0  0
    3.9164    1.8674   19.2473 H   0  0  0  0  0  0  0  0  0  0  0  0
    5.4939    0.6912   20.1282 C   0  0  0  0  0  0  0  0  0  0  0  0
    5.0813    0.6861   21.1367 H   0  0  0  0  0  0  0  0  0  0  0  0
  1  2  1  0
  2  3  2  3
  3  4  1  0
  3  5  1  0
  5  6  2  0
  6  7  1  0
  7  8  1  0
  8  9  1  0
  8 10  1  0
  8 11  1  0
  7 12  2  0
 12 13  1  0
 12 14  1  0
 14 15  1  0
 14 16  2  0
 16 17  1  0
  2 18  1  0
 18 19  2  0
 19 20  1  0
 19 21  1  0
 21 22  2  0
 22 23  1  0
 22 24  1  0
 24 25  1  0
 24 26  2  0
 26 27  1  0
 16  5  1  0
 26 18  1  0
M  END
>  <cnnaffinity>  (1) 
-5.26354

>  <filename>  (1) 
FC(F)(F)c1cccc(C(Br)=Cc2cccnc2)n1

$$$$
