
     RDKit          3D

 39 42  0  0  0  0  0  0  0  0999 V2000
   10.2921    0.7027   23.0134 F   0  0  0  0  0  0  0  0  0  0  0  0
   11.1687   -0.2751   23.2939 C   0  0  0  0  0  0  0  0  0  0  0  0
   12.3797    0.3035   23.4210 F   0  0  0  0  0  0  0  0  0  0  0  0
   10.8383   -0.7686   24.4994 F   0  0  0  0  0  0  0  0  0  0  0  0
   11.2367   -1.3545   22.2320 C   0  0  0  0  0  0  0  0  0  0  0  0
   10.0835   -2.3599   22.1814 C   0  0  0  0  0  0  0  0  0  0  0  0
    8.7736   -1.7727   21.9670 N   0  0  0  0  0  0  0  0  0  0  0  0
    8.4561   -1.3140   20.7347 N   0  0  0  0  0  0  0  0  0  0  0  0
    7.3449   -0.6354   20.9544 C   0  0  0  0  0  0  0  0  0  0  0  0
    6.6205    0.0341   19.8951 C   0  0  0  0  0  0  0  0  0  0  0  0
    5.4001    0.6780   20.1282 C   0  0  0  0  0  0  0  0  0  0  0  0
    4.7968    1.3179   19.0520 C   0  0  0  0  0  0  0  0  0  0  0  0
    5.4303    1.2879   17.8020 C   0  0  0  0  0  0  0  0  0  0  0  0
    6.5893    0.6499   17.5721 N   0  0  0  0  0  0  0  0  0  0  0  0
    7.1667    0.0368   18.6071 C   0  0  0  0  0  0  0  0  0  0  0  0
    8.1071   -0.4800   18.4197 H   0  0  0  0  0  0  0  0  0  0  0  0
    4.9917    1.7970   16.9474 H   0  0  0  0  0  0  0  0  0  0  0  0
    3.8645    1.8570   19.1725 H   0  0  0  0  0  0  0  0  0  0  0  0
    4.9646    0.6735   21.1310 H   0  0  0  0  0  0  0  0  0  0  0  0
    6.9355   -0.6160   22.2454 N   0  0  0  0  0  0  0  0  0  0  0  0
    7.8238   -1.3810   22.8441 C   0  0  0  0  0  0  0  0  0  0  0  0
    7.8098   -1.7790   24.2305 C   0  0  0  0  0  0  0  0  0  0  0  0
    7.7443   -0.7825   25.1875 C   0  0  0  0  0  0  0  0  0  0  0  0
    7.8004   -1.0291   26.5079 N   0  0  0  0  0  0  0  0  0  0  0  0
    7.8813   -2.2942   26.9298 C   0  0  0  0  0  0  0  0  0  0  0  0
    7.8731   -3.3814   26.0304 C   0  0  0  0  0  0  0  0  0  0  0  0
    7.8619   -3.1286   24.6448 C   0  0  0  0  0  0  0  0  0  0  0  0
    7.8752   -4.4034   23.9984 C   0  0  0  0  0  0  0  0  0  0  0  0
    7.8838   -5.3561   24.9766 C   0  0  0  0  0  0  0  0  0  0  0  0
    7.8895   -4.7450   26.2089 N   0  0  0  0  0  0  0  0  0  0  0  0
    7.8177   -5.2248   27.0967 H   0  0  0  0  0  0  0  0  0  0  0  0
    7.9104   -6.4329   24.8878 H   0  0  0  0  0  0  0  0  0  0  0  0
    7.8772   -4.5898   22.9363 H   0  0  0  0  0  0  0  0  0  0  0  0
    7.9840   -2.4657   27.9899 H   0  0  0  0  0  0  0  0  0  0  0  0
    7.6828    0.2600   24.8635 H   0  0  0  0  0  0  0  0  0  0  0  0
   10.2282   -2.9762   21.3051 H   0  0  0  0  0  0  0  0  0  0  0  0
   10.0498   -2.9861   23.0786 H   0  0  0  0  0  0  0  0  0  0  0  0
   11.3453   -0.8566   21.2668 H   0  0  0  0  0  0  0  0  0  0  0  0
   12.1592   -1.9082   22.4224 H   0  0  0  0  0  0  0  0  0  0  0  0
  1  2  1  0
  2  3  1  0
  2  4  1  0
  2  5  1  0
  5  6  1  0
  6  7  1  0
  7  8  1  0
  8  9  2  0
  9 10  1  0
 10 11  2  0
 11 12  1  0
 12 13  2  0
 13 14  1  0
 14 15  2  0
 15 16  1  0
 13 17  1  0
 12 18  1  0
 11 19  1  0
  9 20  1  0
 20 21  2  0
 21 22  1  0
 22 23  2  0
 23 24  1  0
 24 25  2  0
 25 26  1  0
 26 27  2  0
 27 28  1  0
 28 29  2  0
 29 30  1  0
 30 31  1  0
 29 32  1  0
 28 33  1  0
 25 34  1  0
 23 35  1  0
  6 36  1  0
  6 37  1  0
  5 38  1  0
  5 39  1  0
 21  7  1  0
 27 22  1  0
 15 10  1  0
 30 26  1  0
M  END
>  <cnnaffinity>  (1) 
-6.43061

>  <filename>  (1) 
FC(F)(F)CCn1nc(-c2cccnc2)nc1-c1cncc2[nH]ccc12

$$$$
