
     RDKit          3D

 37 40  0  0  0  0  0  0  0  0999 V2000
   11.2357   -0.3915   21.4801 F   0  0  0  0  0  0  0  0  0  0  0  0
   11.1831   -1.3245   22.4338 C   0  0  0  0  0  0  0  0  0  0  0  0
   12.3530   -1.9933   22.4271 F   0  0  0  0  0  0  0  0  0  0  0  0
   11.0819   -0.6903   23.6132 F   0  0  0  0  0  0  0  0  0  0  0  0
   10.0947   -2.3673   22.2083 C   0  0  0  0  0  0  0  0  0  0  0  0
    8.7643   -1.8438   21.9943 N   0  0  0  0  0  0  0  0  0  0  0  0
    8.5029   -1.3498   20.7617 N   0  0  0  0  0  0  0  0  0  0  0  0
    7.3757   -0.6955   20.9477 C   0  0  0  0  0  0  0  0  0  0  0  0
    6.6654    0.0063   19.8951 C   0  0  0  0  0  0  0  0  0  0  0  0
    5.4466    0.6495   20.1563 C   0  0  0  0  0  0  0  0  0  0  0  0
    4.8159    1.2986   19.1026 C   0  0  0  0  0  0  0  0  0  0  0  0
    5.4208    1.2772   17.8405 C   0  0  0  0  0  0  0  0  0  0  0  0
    6.5821    0.6561   17.5821 N   0  0  0  0  0  0  0  0  0  0  0  0
    7.1932    0.0411   18.5983 C   0  0  0  0  0  0  0  0  0  0  0  0
    8.1446   -0.4404   18.3703 H   0  0  0  0  0  0  0  0  0  0  0  0
    4.9574    1.7845   16.9995 H   0  0  0  0  0  0  0  0  0  0  0  0
    3.8827    1.8323   19.2453 H   0  0  0  0  0  0  0  0  0  0  0  0
    5.0208    0.6360   21.1630 H   0  0  0  0  0  0  0  0  0  0  0  0
    6.9112   -0.7069   22.2174 N   0  0  0  0  0  0  0  0  0  0  0  0
    7.7876   -1.4473   22.8635 C   0  0  0  0  0  0  0  0  0  0  0  0
    7.7924   -1.7661   24.2757 C   0  0  0  0  0  0  0  0  0  0  0  0
    7.8671   -3.0638   24.7971 C   0  0  0  0  0  0  0  0  0  0  0  0
    7.9315   -4.3696   24.2373 C   0  0  0  0  0  0  0  0  0  0  0  0
    7.9204   -5.4735   25.0670 C   0  0  0  0  0  0  0  0  0  0  0  0
    7.8376   -5.3050   26.4849 C   0  0  0  0  0  0  0  0  0  0  0  0
    7.7867   -4.0457   27.0153 C   0  0  0  0  0  0  0  0  0  0  0  0
    7.8018   -2.9372   26.1857 N   0  0  0  0  0  0  0  0  0  0  0  0
    7.7103   -1.5989   26.5179 C   0  0  0  0  0  0  0  0  0  0  0  0
    7.6988   -0.8630   25.3649 C   0  0  0  0  0  0  0  0  0  0  0  0
    7.6486    0.2164   25.2746 H   0  0  0  0  0  0  0  0  0  0  0  0
    7.6329   -1.3014   27.5545 H   0  0  0  0  0  0  0  0  0  0  0  0
    7.7358   -3.8335   28.0719 H   0  0  0  0  0  0  0  0  0  0  0  0
    7.8147   -6.1611   27.1535 H   0  0  0  0  0  0  0  0  0  0  0  0
    7.9832   -6.4679   24.6458 H   0  0  0  0  0  0  0  0  0  0  0  0
    7.9660   -4.4713   23.1621 H   0  0  0  0  0  0  0  0  0  0  0  0
   10.1202   -3.0519   23.0576 H   0  0  0  0  0  0  0  0  0  0  0  0
   10.3487   -2.8620   21.2761 H   0  0  0  0  0  0  0  0  0  0  0  0
  1  2  1  0
  2  3  1  0
  2  4  1  0
  2  5  1  0
  5  6  1  0
  6  7  1  0
  7  8  2  0
  8  9  1  0
  9 10  2  0
 10 11  1  0
 11 12  2  0
 12 13  1  0
 13 14  2  0
 14 15  1  0
 12 16  1  0
 11 17  1  0
 10 18  1  0
  8 19  1  0
 19 20  2  0
 20 21  1  0
 21 22  2  0
 22 23  1  0
 23 24  2  0
 24 25  1  0
 25 26  2  0
 26 27  1  0
 27 28  1  0
 28 29  2  0
 29 30  1  0
 28 31  1  0
 26 32  1  0
 25 33  1  0
 24 34  1  0
 23 35  1  0
  5 36  1  0
  5 37  1  0
 20  6  1  0
 29 21  1  0
 14  9  1  0
 27 22  1  0
M  END
>  <cnnaffinity>  (1) 
-6.21845

>  <filename>  (1) 
FC(F)(F)Cn1nc(-c2cccnc2)nc1-c1ccn2ccccc12

$$$$
