
     RDKit          3D

 38 41  0  0  0  0  0  0  0  0999 V2000
    4.9342    1.8153   16.9982 H   0  0  0  0  0  0  0  0  0  0  0  0
    5.4107    1.3036   17.8308 C   0  0  0  0  0  0  0  0  0  0  0  0
    6.5764    0.6858   17.5631 N   0  0  0  0  0  0  0  0  0  0  0  0
    7.1880    0.0499   18.5721 C   0  0  0  0  0  0  0  0  0  0  0  0
    8.1322   -0.4346   18.3177 H   0  0  0  0  0  0  0  0  0  0  0  0
    6.6893   -0.0336   19.9044 C   0  0  0  0  0  0  0  0  0  0  0  0
    7.3556   -0.7393   20.9028 N   0  0  0  0  0  0  0  0  0  0  0  0
    6.7349   -1.2650   22.1426 C   0  0  0  0  0  0  0  0  0  0  0  0
    6.1592   -0.5065   22.6884 H   0  0  0  0  0  0  0  0  0  0  0  0
    6.0975   -2.1397   21.9574 H   0  0  0  0  0  0  0  0  0  0  0  0
    7.9852   -1.6632   22.9720 C   0  0  2  0  0  0  0  0  0  0  0  0
    7.7740   -2.3521   23.7896 H   0  0  0  0  0  0  0  0  0  0  0  0
    8.6715   -0.4536   23.4524 N   0  0  0  0  0  0  0  0  0  0  0  0
    8.3404    0.1747   24.6196 C   0  0  0  0  0  0  0  0  0  0  0  0
    7.4369   -0.4360   25.3984 N   0  0  0  0  0  0  0  0  0  0  0  0
    7.1131    0.1394   26.5680 C   0  0  0  0  0  0  0  0  0  0  0  0
    5.9469   -0.4591   27.4083 C   0  0  0  0  0  0  0  0  0  0  0  0
    5.5979   -1.7078   27.0823 F   0  0  0  0  0  0  0  0  0  0  0  0
    4.8426    0.3149   27.3001 F   0  0  0  0  0  0  0  0  0  0  0  0
    6.2521   -0.4682   28.7253 F   0  0  0  0  0  0  0  0  0  0  0  0
    7.7392    1.3049   27.0393 C   0  0  0  0  0  0  0  0  0  0  0  0
    7.5221    1.6933   28.0287 H   0  0  0  0  0  0  0  0  0  0  0  0
    8.6492    1.9586   26.1979 C   0  0  0  0  0  0  0  0  0  0  0  0
    9.1071    2.9007   26.4960 H   0  0  0  0  0  0  0  0  0  0  0  0
    8.9549    1.4005   24.9671 C   0  0  0  0  0  0  0  0  0  0  0  0
    9.6365    1.8533   24.2573 H   0  0  0  0  0  0  0  0  0  0  0  0
    9.1912    0.2403   22.2559 C   0  0  0  0  0  0  0  0  0  0  0  0
   10.2798    0.3734   22.3018 H   0  0  0  0  0  0  0  0  0  0  0  0
    8.7165    1.2181   22.1070 H   0  0  0  0  0  0  0  0  0  0  0  0
    8.8132   -0.7597   21.1287 C   0  0  1  0  0  0  0  0  0  0  0  0
    9.3912   -0.6158   20.2159 H   0  0  0  0  0  0  0  0  0  0  0  0
    8.9514   -2.1003   21.8680 C   0  0  0  0  0  0  0  0  0  0  0  0
    8.5958   -2.9460   21.2782 H   0  0  0  0  0  0  0  0  0  0  0  0
    9.9559   -2.3064   22.2435 H   0  0  0  0  0  0  0  0  0  0  0  0
    5.4602    0.6215   20.1431 C   0  0  0  0  0  0  0  0  0  0  0  0
    5.0328    0.6141   21.1443 H   0  0  0  0  0  0  0  0  0  0  0  0
    4.8216    1.2962   19.0979 C   0  0  0  0  0  0  0  0  0  0  0  0
    3.8833    1.8227   19.2599 H   0  0  0  0  0  0  0  0  0  0  0  0
  1  2  1  0
  2  3  2  0
  3  4  1  0
  4  5  1  0
  4  6  2  0
  6  7  1  0
  7  8  1  0
  8  9  1  0
  8 10  1  0
  8 11  1  0
 11 12  1  1
 11 13  1  0
 13 14  1  0
 14 15  2  0
 15 16  1  0
 16 17  1  0
 17 18  1  0
 17 19  1  0
 17 20  1  0
 16 21  2  0
 21 22  1  0
 21 23  1  0
 23 24  1  0
 23 25  2  0
 25 26  1  0
 13 27  1  0
 27 28  1  0
 27 29  1  0
 27 30  1  0
 30 31  1  6
 30 32  1  0
 32 33  1  0
 32 34  1  0
  6 35  1  0
 35 36  1  0
 35 37  2  0
 37 38  1  0
 37  2  1  0
 30  7  1  0
 32 11  1  0
 25 14  1  0
M  END
>  <cnnaffinity>  (1) 
-5.67055

>  <filename>  (1) 
FC(F)(F)c1cccc(N2C[C@H]3C[C@@H]2CN3c2cccnc2)n1

$$$$
