
     RDKit          3D

 28 29  0  0  0  0  0  0  0  0999 V2000
    4.9218    1.7893   16.9875 H   0  0  0  0  0  0  0  0  0  0  0  0
    5.3974    1.2953   17.8314 C   0  0  0  0  0  0  0  0  0  0  0  0
    6.5600    0.6790   17.5687 N   0  0  0  0  0  0  0  0  0  0  0  0
    7.1588    0.0612   18.5936 C   0  0  0  0  0  0  0  0  0  0  0  0
    8.1137   -0.4129   18.3752 H   0  0  0  0  0  0  0  0  0  0  0  0
    6.6397    0.0043   19.8979 C   0  0  0  0  0  0  0  0  0  0  0  0
    7.4241   -0.6431   21.0119 C   0  0  0  0  0  0  0  0  0  0  0  0
    6.7562   -0.9565   21.8197 H   0  0  0  0  0  0  0  0  0  0  0  0
    7.9720   -1.5231   20.6626 H   0  0  0  0  0  0  0  0  0  0  0  0
    8.4183    0.2499   21.5841 N   0  0  0  0  0  0  0  0  0  0  0  0
    9.6937    0.2208   21.1297 N   0  0  0  0  0  0  0  0  0  0  0  0
   10.2955    1.2230   21.7466 C   0  0  0  0  0  0  0  0  0  0  0  0
   11.3512    1.3805   21.5626 H   0  0  0  0  0  0  0  0  0  0  0  0
    9.4207    1.9481   22.5865 C   0  0  0  0  0  0  0  0  0  0  0  0
    9.6431    2.8131   23.1985 H   0  0  0  0  0  0  0  0  0  0  0  0
    8.2238    1.2907   22.4317 C   0  0  0  0  0  0  0  0  0  0  0  0
    6.9961    1.4566   22.9670 O   0  0  0  0  0  0  0  0  0  0  0  0
    6.7697    2.6602   23.6903 C   0  0  0  0  0  0  0  0  0  0  0  0
    7.5953    2.9341   24.3540 H   0  0  0  0  0  0  0  0  0  0  0  0
    5.8840    2.4795   24.2951 H   0  0  0  0  0  0  0  0  0  0  0  0
    6.4621    3.8746   22.8121 C   0  0  0  0  0  0  0  0  0  0  0  0
    5.4224    3.6486   22.0014 F   0  0  0  0  0  0  0  0  0  0  0  0
    7.5215    4.2418   22.0739 F   0  0  0  0  0  0  0  0  0  0  0  0
    6.1450    4.9175   23.6027 F   0  0  0  0  0  0  0  0  0  0  0  0
    5.4297    0.6550   20.1531 C   0  0  0  0  0  0  0  0  0  0  0  0
    5.0111    0.6601   21.1646 H   0  0  0  0  0  0  0  0  0  0  0  0
    4.7974    1.3117   19.0945 C   0  0  0  0  0  0  0  0  0  0  0  0
    3.8671    1.8469   19.2416 H   0  0  0  0  0  0  0  0  0  0  0  0
  1  2  1  0
  2  3  2  0
  3  4  1  0
  4  5  1  0
  4  6  2  0
  6  7  1  0
  7  8  1  0
  7  9  1  0
  7 10  1  0
 10 11  1  0
 11 12  2  0
 12 13  1  0
 12 14  1  0
 14 15  1  0
 14 16  2  0
 16 17  1  0
 17 18  1  0
 18 19  1  0
 18 20  1  0
 18 21  1  0
 21 22  1  0
 21 23  1  0
 21 24  1  0
  6 25  1  0
 25 26  1  0
 25 27  2  0
 27 28  1  0
 27  2  1  0
 16 10  1  0
M  END
>  <cnnaffinity>  (1) 
-4.50821

>  <filename>  (1) 
FC(F)(F)COc1ccnn1Cc1cccnc1

$$$$
