
     RDKit          3D

 33 35  0  0  0  0  0  0  0  0999 V2000
    4.4709    2.2968   28.1907 F   0  0  0  0  0  0  0  0  0  0  0  0
    5.6373    1.6362   28.1903 C   0  0  0  0  0  0  0  0  0  0  0  0
    5.4635    0.5180   28.9235 F   0  0  0  0  0  0  0  0  0  0  0  0
    6.5488    2.3898   28.8208 F   0  0  0  0  0  0  0  0  0  0  0  0
    6.0825    1.2114   26.7786 C   0  0  0  0  0  0  0  0  0  0  0  0
    6.2801    2.3555   25.9445 O   0  0  0  0  0  0  0  0  0  0  0  0
    6.6768    2.2304   24.6512 C   0  0  0  0  0  0  0  0  0  0  0  0
    6.8485    3.4491   23.9194 C   0  0  0  0  0  0  0  0  0  0  0  0
    7.2551    3.4503   22.6532 N   0  0  0  0  0  0  0  0  0  0  0  0
    7.4753    2.2283   22.1046 C   0  0  0  0  0  0  0  0  0  0  0  0
    7.2804    1.0303   22.8192 C   0  0  0  0  0  0  0  0  0  0  0  0
    7.5501   -0.3004   22.2639 C   0  0  0  0  0  0  0  0  0  0  0  0
    8.1593   -1.3635   22.8907 C   0  0  0  0  0  0  0  0  0  0  0  0
    8.2951   -2.3372   21.8918 C   0  0  0  0  0  0  0  0  0  0  0  0
    7.8152   -1.9211   20.7291 N   0  0  0  0  0  0  0  0  0  0  0  0
    7.3479   -0.6798   20.9537 N   0  0  0  0  0  0  0  0  0  0  0  0
    6.6506    0.0020   19.9216 C   0  0  0  0  0  0  0  0  0  0  0  0
    5.4272    0.6401   20.1673 C   0  0  0  0  0  0  0  0  0  0  0  0
    4.8088    1.3025   19.1074 C   0  0  0  0  0  0  0  0  0  0  0  0
    5.4089    1.2904   17.8457 C   0  0  0  0  0  0  0  0  0  0  0  0
    6.5767    0.6692   17.6033 N   0  0  0  0  0  0  0  0  0  0  0  0
    7.1778    0.0385   18.6162 C   0  0  0  0  0  0  0  0  0  0  0  0
    8.1240   -0.4434   18.3838 H   0  0  0  0  0  0  0  0  0  0  0  0
    4.9314    1.7801   16.9996 H   0  0  0  0  0  0  0  0  0  0  0  0
    3.8808    1.8377   19.2565 H   0  0  0  0  0  0  0  0  0  0  0  0
    4.9993    0.6365   21.1696 H   0  0  0  0  0  0  0  0  0  0  0  0
    8.7128   -3.3333   21.9810 H   0  0  0  0  0  0  0  0  0  0  0  0
    8.4711   -1.4012   23.9255 H   0  0  0  0  0  0  0  0  0  0  0  0
    6.9011    1.0401   24.1264 N   0  0  0  0  0  0  0  0  0  0  0  0
    7.8146    2.2026   21.0790 H   0  0  0  0  0  0  0  0  0  0  0  0
    6.6588    4.4016   24.4045 H   0  0  0  0  0  0  0  0  0  0  0  0
    5.3029    0.5517   26.3815 H   0  0  0  0  0  0  0  0  0  0  0  0
    7.0035    0.6275   26.8922 H   0  0  0  0  0  0  0  0  0  0  0  0
  1  2  1  0
  2  3  1  0
  2  4  1  0
  2  5  1  0
  5  6  1  0
  6  7  1  0
  7  8  2  0
  8  9  1  0
  9 10  2  0
 10 11  1  0
 11 12  1  0
 12 13  2  0
 13 14  1  0
 14 15  2  0
 15 16  1  0
 16 17  1  0
 17 18  2  0
 18 19  1  0
 19 20  2  0
 20 21  1  0
 21 22  2  0
 22 23  1  0
 20 24  1  0
 19 25  1  0
 18 26  1  0
 14 27  1  0
 13 28  1  0
 11 29  2  0
 10 30  1  0
  8 31  1  0
  5 32  1  0
  5 33  1  0
 29  7  1  0
 16 12  1  0
 22 17  1  0
M  END
>  <cnnaffinity>  (1) 
-5.63605

>  <filename>  (1) 
FC(F)(F)COc1cncc(-c2ccnn2-c2cccnc2)n1

$$$$
