
     RDKit          3D

 31 33  0  0  0  0  0  0  0  0999 V2000
    4.9217    1.7997   16.9719 H   0  0  0  0  0  0  0  0  0  0  0  0
    5.3956    1.3027   17.8187 C   0  0  0  0  0  0  0  0  0  0  0  0
    6.5612    0.6827   17.5680 N   0  0  0  0  0  0  0  0  0  0  0  0
    7.1738    0.0706   18.5898 C   0  0  0  0  0  0  0  0  0  0  0  0
    8.1090   -0.4231   18.3300 H   0  0  0  0  0  0  0  0  0  0  0  0
    6.6694    0.0217   19.9039 C   0  0  0  0  0  0  0  0  0  0  0  0
    7.3288   -0.7016   20.9997 C   0  0  0  0  0  0  0  0  0  0  0  0
    6.7979   -1.2518   22.1070 C   0  0  0  0  0  0  0  0  0  0  0  0
    5.7705   -1.3445   22.3884 H   0  0  0  0  0  0  0  0  0  0  0  0
    7.8096   -1.8482   22.8485 N   0  0  0  0  0  0  0  0  0  0  0  0
    7.6236   -2.5151   24.0864 C   0  0  0  0  0  0  0  0  0  0  0  0
    6.5208   -3.2547   24.1666 N   0  0  0  0  0  0  0  0  0  0  0  0
    6.2778   -3.9216   25.3103 C   0  0  0  0  0  0  0  0  0  0  0  0
    5.0070   -4.8052   25.4419 C   0  0  0  0  0  0  0  0  0  0  0  0
    4.2324   -4.3753   26.4613 F   0  0  0  0  0  0  0  0  0  0  0  0
    5.3418   -6.0786   25.7414 F   0  0  0  0  0  0  0  0  0  0  0  0
    4.2368   -4.8463   24.3532 F   0  0  0  0  0  0  0  0  0  0  0  0
    7.1340   -3.8333   26.4147 C   0  0  0  0  0  0  0  0  0  0  0  0
    6.9083   -4.3850   27.3167 H   0  0  0  0  0  0  0  0  0  0  0  0
    8.2729   -3.0230   26.3289 C   0  0  0  0  0  0  0  0  0  0  0  0
    8.9545   -2.9363   27.1733 H   0  0  0  0  0  0  0  0  0  0  0  0
    8.5265   -2.3398   25.1430 C   0  0  0  0  0  0  0  0  0  0  0  0
    9.3845   -1.6951   24.9927 H   0  0  0  0  0  0  0  0  0  0  0  0
    9.0034   -1.7046   22.1801 C   0  0  0  0  0  0  0  0  0  0  0  0
   10.5303   -2.2392   22.5285 S   0  0  0  0  0  0  0  0  0  0  0  0
    8.6792   -1.0087   21.0604 N   0  0  0  0  0  0  0  0  0  0  0  0
    9.4178   -0.7479   20.4340 H   0  0  0  0  0  0  0  0  0  0  0  0
    5.4415    0.6687   20.1359 C   0  0  0  0  0  0  0  0  0  0  0  0
    5.0099    0.6653   21.1362 H   0  0  0  0  0  0  0  0  0  0  0  0
    4.8003    1.3212   19.0842 C   0  0  0  0  0  0  0  0  0  0  0  0
    3.8645    1.8507   19.2308 H   0  0  0  0  0  0  0  0  0  0  0  0
  1  2  1  0
  2  3  2  0
  3  4  1  0
  4  5  1  0
  4  6  2  0
  6  7  1  0
  7  8  2  0
  8  9  1  0
  8 10  1  0
 10 11  1  0
 11 12  2  0
 12 13  1  0
 13 14  1  0
 14 15  1  0
 14 16  1  0
 14 17  1  0
 13 18  2  0
 18 19  1  0
 18 20  1  0
 20 21  1  0
 20 22  2  0
 22 23  1  0
 10 24  1  0
 24 25  2  0
 24 26  1  0
 26 27  1  0
  6 28  1  0
 28 29  1  0
 28 30  2  0
 30 31  1  0
 30  2  1  0
 26  7  1  0
 22 11  1  0
M  END
>  <cnnaffinity>  (1) 
-5.72824

>  <filename>  (1) 
FC(F)(F)c1cccc(-n2cc(-c3cccnc3)[nH]c2=S)n1

$$$$
