
     RDKit          3D

 33 34  0  0  0  0  0  0  0  0999 V2000
    5.1356    1.6832   16.9003 H   0  0  0  0  0  0  0  0  0  0  0  0
    5.5289    1.2414   17.8156 C   0  0  0  0  0  0  0  0  0  0  0  0
    6.6953    0.5924   17.7062 N   0  0  0  0  0  0  0  0  0  0  0  0
    7.2215    0.0601   18.8210 C   0  0  0  0  0  0  0  0  0  0  0  0
    8.1784   -0.4467   18.6955 H   0  0  0  0  0  0  0  0  0  0  0  0
    6.6270    0.1298   20.0935 C   0  0  0  0  0  0  0  0  0  0  0  0
    7.2097   -0.4609   21.3857 C   0  0  1  0  0  0  0  0  0  0  0  0
    6.9929    0.2863   22.1559 H   0  0  0  0  0  0  0  0  0  0  0  0
    6.4789   -1.7568   21.8453 C   0  0  0  0  0  0  0  0  0  0  0  0
    5.4363   -1.7218   21.5153 H   0  0  0  0  0  0  0  0  0  0  0  0
    6.4638   -1.7871   22.9416 H   0  0  0  0  0  0  0  0  0  0  0  0
    7.0232   -3.0194   21.3627 N   0  0  0  0  0  0  0  0  0  0  0  0
    6.8776   -3.0874   20.3588 H   0  0  0  0  0  0  0  0  0  0  0  0
    8.4532   -3.1414   21.5912 C   0  0  0  0  0  0  0  0  0  0  0  0
    8.6381   -3.1750   22.6730 H   0  0  0  0  0  0  0  0  0  0  0  0
    8.7278   -4.1138   21.1903 H   0  0  0  0  0  0  0  0  0  0  0  0
    9.2665   -2.0033   20.9632 C   0  0  0  0  0  0  0  0  0  0  0  0
   10.3156   -2.1256   21.2504 H   0  0  0  0  0  0  0  0  0  0  0  0
    9.2442   -2.0227   19.8707 H   0  0  0  0  0  0  0  0  0  0  0  0
    8.7465   -0.6328   21.4306 C   0  0  2  0  0  0  0  0  0  0  0  0
    9.1806    0.1860   20.8416 H   0  0  0  0  0  0  0  0  0  0  0  0
    9.1492   -0.4511   22.8023 O   0  0  0  0  0  0  0  0  0  0  0  0
   10.5262   -0.2052   23.0035 C   0  0  0  0  0  0  0  0  0  0  0  0
   10.8508   -0.7513   23.8950 H   0  0  0  0  0  0  0  0  0  0  0  0
   11.1574   -0.5096   22.1571 H   0  0  0  0  0  0  0  0  0  0  0  0
   10.8887    1.2671   23.1959 C   0  0  0  0  0  0  0  0  0  0  0  0
   10.4946    1.7584   24.3739 F   0  0  0  0  0  0  0  0  0  0  0  0
   10.3741    2.0455   22.2304 F   0  0  0  0  0  0  0  0  0  0  0  0
   12.2354    1.3582   23.1339 F   0  0  0  0  0  0  0  0  0  0  0  0
    5.3854    0.7851   20.1693 C   0  0  0  0  0  0  0  0  0  0  0  0
    4.8658    0.8472   21.1277 H   0  0  0  0  0  0  0  0  0  0  0  0
    4.8290    1.3580   19.0231 C   0  0  0  0  0  0  0  0  0  0  0  0
    3.8870    1.8939   19.0500 H   0  0  0  0  0  0  0  0  0  0  0  0
  1  2  1  0
  2  3  2  0
  3  4  1  0
  4  5  1  0
  4  6  2  0
  6  7  1  0
  7  8  1  1
  7  9  1  0
  9 10  1  0
  9 11  1  0
  9 12  1  0
 12 13  1  0
 12 14  1  0
 14 15  1  0
 14 16  1  0
 14 17  1  0
 17 18  1  0
 17 19  1  0
 17 20  1  0
 20 21  1  6
 20 22  1  0
 22 23  1  0
 23 24  1  0
 23 25  1  0
 23 26  1  0
 26 27  1  0
 26 28  1  0
 26 29  1  0
  6 30  1  0
 30 31  1  0
 30 32  2  0
 32 33  1  0
 32  2  1  0
 20  7  1  0
M  END
>  <cnnaffinity>  (1) 
-4.83766

>  <filename>  (1) 
FC(F)(F)CO[C@H]1CCNC[C@@H]1c1cccnc1

$$$$
