
     RDKit          3D

 31 33  0  0  0  0  0  0  0  0999 V2000
    4.9201    1.7988   16.9738 H   0  0  0  0  0  0  0  0  0  0  0  0
    5.3949    1.3011   17.8206 C   0  0  0  0  0  0  0  0  0  0  0  0
    6.5596    0.6824   17.5694 N   0  0  0  0  0  0  0  0  0  0  0  0
    7.1743    0.0673   18.5893 C   0  0  0  0  0  0  0  0  0  0  0  0
    8.1101   -0.4239   18.3308 H   0  0  0  0  0  0  0  0  0  0  0  0
    6.6701    0.0149   19.9040 C   0  0  0  0  0  0  0  0  0  0  0  0
    7.3392   -0.6967   20.9975 C   0  0  0  0  0  0  0  0  0  0  0  0
    6.8074   -1.2163   22.1205 C   0  0  0  0  0  0  0  0  0  0  0  0
    5.7888   -1.2729   22.4145 H   0  0  0  0  0  0  0  0  0  0  0  0
    7.8235   -1.7955   22.8757 N   0  0  0  0  0  0  0  0  0  0  0  0
    7.6958   -2.4078   24.1448 C   0  0  0  0  0  0  0  0  0  0  0  0
    8.3701   -1.8136   25.1180 N   0  0  0  0  0  0  0  0  0  0  0  0
    8.2326   -2.2881   26.3579 C   0  0  0  0  0  0  0  0  0  0  0  0
    8.8003   -1.7673   27.1249 H   0  0  0  0  0  0  0  0  0  0  0  0
    7.4271   -3.3789   26.6800 C   0  0  0  0  0  0  0  0  0  0  0  0
    7.3716   -3.7287   27.7014 H   0  0  0  0  0  0  0  0  0  0  0  0
    6.7339   -4.0187   25.6616 C   0  0  0  0  0  0  0  0  0  0  0  0
    6.1022   -4.8822   25.8762 H   0  0  0  0  0  0  0  0  0  0  0  0
    6.8850   -3.5380   24.3554 C   0  0  0  0  0  0  0  0  0  0  0  0
    6.1590   -4.2035   23.2294 C   0  0  0  0  0  0  0  0  0  0  0  0
    5.0069   -3.5548   22.9408 F   0  0  0  0  0  0  0  0  0  0  0  0
    6.8797   -4.2663   22.1016 F   0  0  0  0  0  0  0  0  0  0  0  0
    5.8235   -5.4696   23.5504 F   0  0  0  0  0  0  0  0  0  0  0  0
    9.0270   -1.6220   22.2276 C   0  0  0  0  0  0  0  0  0  0  0  0
   10.5595   -2.0999   22.6025 S   0  0  0  0  0  0  0  0  0  0  0  0
    8.6902   -0.9739   21.0747 N   0  0  0  0  0  0  0  0  0  0  0  0
    9.4232   -0.7008   20.4430 H   0  0  0  0  0  0  0  0  0  0  0  0
    5.4426    0.6623   20.1380 C   0  0  0  0  0  0  0  0  0  0  0  0
    5.0092    0.6603   21.1368 H   0  0  0  0  0  0  0  0  0  0  0  0
    4.8008    1.3189   19.0864 C   0  0  0  0  0  0  0  0  0  0  0  0
    3.8674    1.8491   19.2349 H   0  0  0  0  0  0  0  0  0  0  0  0
  1  2  1  0
  2  3  2  0
  3  4  1  0
  4  5  1  0
  4  6  2  0
  6  7  1  0
  7  8  2  0
  8  9  1  0
  8 10  1  0
 10 11  1  0
 11 12  2  0
 12 13  1  0
 13 14  1  0
 13 15  2  0
 15 16  1  0
 15 17  1  0
 17 18  1  0
 17 19  2  0
 19 20  1  0
 20 21  1  0
 20 22  1  0
 20 23  1  0
 10 24  1  0
 24 25  2  0
 24 26  1  0
 26 27  1  0
  6 28  1  0
 28 29  1  0
 28 30  2  0
 30 31  1  0
 30  2  1  0
 26  7  1  0
 19 11  1  0
M  END
>  <cnnaffinity>  (1) 
-5.81677

>  <filename>  (1) 
FC(F)(F)c1cccnc1-n1cc(-c2cccnc2)[nH]c1=S

$$$$
