
     RDKit          3D

 23 24  0  0  0  0  0  0  0  0999 V2000
    5.0410    1.7947   16.7758 H   0  0  0  0  0  0  0  0  0  0  0  0
    5.4128    1.3475   17.6937 C   0  0  0  0  0  0  0  0  0  0  0  0
    6.5723    0.6806   17.5969 N   0  0  0  0  0  0  0  0  0  0  0  0
    7.0484    0.1325   18.7134 C   0  0  0  0  0  0  0  0  0  0  0  0
    7.9689   -0.4362   18.6185 H   0  0  0  0  0  0  0  0  0  0  0  0
    6.4308    0.2325   19.9727 C   0  0  0  0  0  0  0  0  0  0  0  0
    7.1679   -0.4022   21.0614 C   0  0  0  0  0  0  0  0  0  0  0  0
    8.2392   -1.1491   20.8492 N   0  0  0  0  0  0  0  0  0  0  0  0
    8.5828   -1.5735   22.0782 C   0  0  0  0  0  0  0  0  0  0  0  0
    9.7100   -2.4911   22.2447 C   0  0  0  0  0  0  0  0  0  0  0  0
    9.5718   -3.1324   23.1105 H   0  0  0  0  0  0  0  0  0  0  0  0
    9.7797   -3.0742   21.3293 H   0  0  0  0  0  0  0  0  0  0  0  0
   10.9954   -1.7377   22.3836 C   0  0  0  0  0  0  0  0  0  0  0  0
   11.3224   -1.0825   21.2637 F   0  0  0  0  0  0  0  0  0  0  0  0
   10.9683   -0.8459   23.3852 F   0  0  0  0  0  0  0  0  0  0  0  0
   11.9733   -2.6276   22.6253 F   0  0  0  0  0  0  0  0  0  0  0  0
    7.8385   -1.1276   23.0589 N   0  0  0  0  0  0  0  0  0  0  0  0
    6.9264   -0.3706   22.3880 N   0  0  0  0  0  0  0  0  0  0  0  0
    6.1849    0.1075   22.8796 H   0  0  0  0  0  0  0  0  0  0  0  0
    5.1852    0.8794   20.0478 C   0  0  0  0  0  0  0  0  0  0  0  0
    4.6122    0.9075   20.9758 H   0  0  0  0  0  0  0  0  0  0  0  0
    4.6770    1.4517   18.8793 C   0  0  0  0  0  0  0  0  0  0  0  0
    3.7240    1.9688   18.8704 H   0  0  0  0  0  0  0  0  0  0  0  0
  1  2  1  0
  2  3  2  0
  3  4  1  0
  4  5  1  0
  4  6  2  0
  6  7  1  0
  7  8  2  0
  8  9  1  0
  9 10  1  0
 10 11  1  0
 10 12  1  0
 10 13  1  0
 13 14  1  0
 13 15  1  0
 13 16  1  0
  9 17  2  0
 17 18  1  0
 18 19  1  0
  6 20  1  0
 20 21  1  0
 20 22  2  0
 22 23  1  0
 22  2  1  0
 18  7  1  0
M  END
>  <cnnaffinity>  (1) 
-4.77505

>  <filename>  (1) 
FC(F)(F)Cc1n[nH]c(-c2cccnc2)n1

$$$$
