
     RDKit          3D

 28 29  0  0  0  0  0  0  0  0999 V2000
    4.9675    1.7913   16.9890 H   0  0  0  0  0  0  0  0  0  0  0  0
    5.4445    1.2897   17.8310 C   0  0  0  0  0  0  0  0  0  0  0  0
    6.6129    0.6798   17.5710 N   0  0  0  0  0  0  0  0  0  0  0  0
    7.2217    0.0629   18.5930 C   0  0  0  0  0  0  0  0  0  0  0  0
    8.1634   -0.4358   18.3851 H   0  0  0  0  0  0  0  0  0  0  0  0
    6.7080    0.0148   19.9001 C   0  0  0  0  0  0  0  0  0  0  0  0
    7.4224   -0.6509   20.9410 N   0  0  0  0  0  0  0  0  0  0  0  0
    8.2723   -0.1985   21.2544 H   0  0  0  0  0  0  0  0  0  0  0  0
    6.9314   -1.6148   21.7616 C   0  0  0  0  0  0  0  0  0  0  0  0
    5.6513   -2.5850   21.3706 S   0  0  0  0  0  0  0  0  0  0  0  0
    7.6977   -1.7508   23.0633 C   0  0  0  0  0  0  0  0  0  0  0  0
    7.9551   -3.0608   23.5149 C   0  0  0  0  0  0  0  0  0  0  0  0
    7.5937   -3.8969   22.9171 H   0  0  0  0  0  0  0  0  0  0  0  0
    8.6430   -3.3012   24.7050 C   0  0  0  0  0  0  0  0  0  0  0  0
    8.8518   -4.3276   25.0049 H   0  0  0  0  0  0  0  0  0  0  0  0
    9.0669   -2.2261   25.4882 C   0  0  0  0  0  0  0  0  0  0  0  0
    9.5648   -2.4008   26.4394 H   0  0  0  0  0  0  0  0  0  0  0  0
    8.8101   -0.9192   25.0756 C   0  0  0  0  0  0  0  0  0  0  0  0
    9.1474   -0.0941   25.7030 H   0  0  0  0  0  0  0  0  0  0  0  0
    8.1056   -0.6528   23.8868 C   0  0  0  0  0  0  0  0  0  0  0  0
    7.7887    0.8197   23.5953 C   0  0  0  0  0  0  0  0  0  0  0  0
    8.5594    1.3117   22.5917 F   0  0  0  0  0  0  0  0  0  0  0  0
    6.5055    1.0138   23.2328 F   0  0  0  0  0  0  0  0  0  0  0  0
    8.0151    1.6296   24.6456 F   0  0  0  0  0  0  0  0  0  0  0  0
    5.4870    0.6416   20.1616 C   0  0  0  0  0  0  0  0  0  0  0  0
    5.0850    0.6253   21.1751 H   0  0  0  0  0  0  0  0  0  0  0  0
    4.8520    1.2913   19.0961 C   0  0  0  0  0  0  0  0  0  0  0  0
    3.9127    1.8089   19.2429 H   0  0  0  0  0  0  0  0  0  0  0  0
  1  2  1  0
  2  3  2  0
  3  4  1  0
  4  5  1  0
  4  6  2  0
  6  7  1  0
  7  8  1  0
  7  9  1  0
  9 10  2  0
  9 11  1  0
 11 12  2  0
 12 13  1  0
 12 14  1  0
 14 15  1  0
 14 16  2  0
 16 17  1  0
 16 18  1  0
 18 19  1  0
 18 20  2  0
 20 21  1  0
 21 22  1  0
 21 23  1  0
 21 24  1  0
  6 25  1  0
 25 26  1  0
 25 27  2  0
 27 28  1  0
 27  2  1  0
 20 11  1  0
M  END
>  <cnnaffinity>  (1) 
-4.9523

>  <filename>  (1) 
FC(F)(F)c1ccccc1C(=S)Nc1cccnc1

$$$$
