
     RDKit          3D

 38 40  0  0  0  0  0  0  0  0999 V2000
    7.2308    1.8856   25.4241 H   0  0  0  0  0  0  0  0  0  0  0  0
    7.5715    2.1398   24.4234 C   0  0  0  0  0  0  0  0  0  0  0  0
    7.9166    1.1227   23.6387 N   0  0  0  0  0  0  0  0  0  0  0  0
    8.3158    1.4302   22.3949 C   0  0  0  0  0  0  0  0  0  0  0  0
    8.6944    0.2616   21.5013 C   0  0  1  0  0  0  0  0  0  0  0  0
    9.1363    0.7182   20.6149 H   0  0  0  0  0  0  0  0  0  0  0  0
    9.7601   -0.6896   22.1433 C   0  0  0  0  0  0  0  0  0  0  0  0
   10.4214   -0.1285   22.8111 H   0  0  0  0  0  0  0  0  0  0  0  0
   10.4056   -1.0942   21.3437 H   0  0  0  0  0  0  0  0  0  0  0  0
    9.1005   -1.8491   22.9145 C   0  0  0  0  0  0  0  0  0  0  0  0
    9.8641   -2.4360   23.4380 H   0  0  0  0  0  0  0  0  0  0  0  0
    8.4547   -1.4149   23.6891 H   0  0  0  0  0  0  0  0  0  0  0  0
    8.2399   -2.7443   21.9879 C   0  0  0  0  0  0  0  0  0  0  0  0
    7.3855   -3.1378   22.5546 H   0  0  0  0  0  0  0  0  0  0  0  0
    8.8125   -3.6128   21.6404 H   0  0  0  0  0  0  0  0  0  0  0  0
    7.7257   -1.9713   20.7574 C   0  0  0  0  0  0  0  0  0  0  0  0
    8.5201   -1.9249   20.0039 H   0  0  0  0  0  0  0  0  0  0  0  0
    6.8580   -2.4655   20.3036 H   0  0  0  0  0  0  0  0  0  0  0  0
    7.3887   -0.5156   21.0958 C   0  0  2  0  0  0  0  0  0  0  0  0
    6.7212   -0.5235   21.9701 H   0  0  0  0  0  0  0  0  0  0  0  0
    6.6517    0.1423   19.9503 C   0  0  0  0  0  0  0  0  0  0  0  0
    7.1620    0.1170   18.6398 C   0  0  0  0  0  0  0  0  0  0  0  0
    8.1024   -0.4000   18.4325 H   0  0  0  0  0  0  0  0  0  0  0  0
    6.5711    0.6876   17.5824 N   0  0  0  0  0  0  0  0  0  0  0  0
    5.4104    1.3233   17.8013 C   0  0  0  0  0  0  0  0  0  0  0  0
    4.9558    1.7942   16.9307 H   0  0  0  0  0  0  0  0  0  0  0  0
    4.7956    1.3916   19.0547 C   0  0  0  0  0  0  0  0  0  0  0  0
    3.8565    1.9223   19.1678 H   0  0  0  0  0  0  0  0  0  0  0  0
    5.4194    0.7830   20.1460 C   0  0  0  0  0  0  0  0  0  0  0  0
    4.9694    0.7935   21.1411 H   0  0  0  0  0  0  0  0  0  0  0  0
    8.4069    2.6679   21.8915 N   0  0  0  0  0  0  0  0  0  0  0  0
    8.0679    3.6937   22.6988 C   0  0  0  0  0  0  0  0  0  0  0  0
    8.1814    5.1760   22.2117 C   0  0  0  0  0  0  0  0  0  0  0  0
    7.8768    5.3809   20.9306 F   0  0  0  0  0  0  0  0  0  0  0  0
    9.4171    5.6704   22.4169 F   0  0  0  0  0  0  0  0  0  0  0  0
    7.3324    5.9590   22.9213 F   0  0  0  0  0  0  0  0  0  0  0  0
    7.6328    3.4565   24.0011 C   0  0  0  0  0  0  0  0  0  0  0  0
    7.3399    4.2716   24.6467 H   0  0  0  0  0  0  0  0  0  0  0  0
  1  2  1  0
  2  3  2  0
  3  4  1  0
  4  5  1  0
  5  6  1  6
  5  7  1  0
  7  8  1  0
  7  9  1  0
  7 10  1  0
 10 11  1  0
 10 12  1  0
 10 13  1  0
 13 14  1  0
 13 15  1  0
 13 16  1  0
 16 17  1  0
 16 18  1  0
 16 19  1  0
 19 20  1  1
 19 21  1  0
 21 22  2  0
 22 23  1  0
 22 24  1  0
 24 25  2  0
 25 26  1  0
 25 27  1  0
 27 28  1  0
 27 29  2  0
 29 30  1  0
  4 31  2  0
 31 32  1  0
 32 33  1  0
 33 34  1  0
 33 35  1  0
 33 36  1  0
 32 37  2  0
 37 38  1  0
 37  2  1  0
 19  5  1  0
 29 21  1  0
M  END
>  <cnnaffinity>  (1) 
-5.04153

>  <filename>  (1) 
FC(F)(F)c1ccnc([C@H]2CCCC[C@@H]2c2cccnc2)n1

$$$$
