
     RDKit          3D

 21 22  0  0  0  0  0  0  0  0999 V2000
    4.9257    1.7758   17.0013 H   0  0  0  0  0  0  0  0  0  0  0  0
    5.4081    1.2858   17.8445 C   0  0  0  0  0  0  0  0  0  0  0  0
    6.5704    0.6675   17.5884 N   0  0  0  0  0  0  0  0  0  0  0  0
    7.1866    0.0595   18.6091 C   0  0  0  0  0  0  0  0  0  0  0  0
    8.1298   -0.4276   18.3759 H   0  0  0  0  0  0  0  0  0  0  0  0
    6.6746    0.0102   19.9166 C   0  0  0  0  0  0  0  0  0  0  0  0
    7.4150   -0.7034   20.9681 C   0  0  0  0  0  0  0  0  0  0  0  0
    8.7610   -0.9650   20.8504 N   0  0  0  0  0  0  0  0  0  0  0  0
    9.1916   -1.6213   21.8786 C   0  0  0  0  0  0  0  0  0  0  0  0
   10.8617   -2.0863   22.0660 S   0  0  0  0  0  0  0  0  0  0  0  0
   11.4335   -0.5198   22.8750 C   0  0  0  0  0  0  0  0  0  0  0  0
   11.2138    0.5337   22.1008 F   0  0  0  0  0  0  0  0  0  0  0  0
   12.7425   -0.5937   23.1046 F   0  0  0  0  0  0  0  0  0  0  0  0
   10.7896   -0.3648   24.0326 F   0  0  0  0  0  0  0  0  0  0  0  0
    7.9965   -1.9856   23.0876 S   0  0  0  0  0  0  0  0  0  0  0  0
    6.8520   -1.1837   22.1046 C   0  0  0  0  0  0  0  0  0  0  0  0
    5.8204   -1.1159   22.3601 H   0  0  0  0  0  0  0  0  0  0  0  0
    5.4437    0.6500   20.1609 C   0  0  0  0  0  0  0  0  0  0  0  0
    4.9942    0.6513   21.1568 H   0  0  0  0  0  0  0  0  0  0  0  0
    4.8118    1.3062   19.1092 C   0  0  0  0  0  0  0  0  0  0  0  0
    3.8799    1.8383   19.2596 H   0  0  0  0  0  0  0  0  0  0  0  0
  1  2  1  0
  2  3  2  0
  3  4  1  0
  4  5  1  0
  4  6  2  0
  6  7  1  0
  7  8  1  0
  8  9  2  0
  9 10  1  0
 10 11  1  0
 11 12  1  0
 11 13  1  0
 11 14  1  0
  9 15  1  0
 15 16  1  0
 16 17  1  0
  6 18  1  0
 18 19  1  0
 18 20  2  0
 20 21  1  0
 20  2  1  0
 16  7  2  0
M  END
>  <cnnaffinity>  (1) 
-4.91675

>  <filename>  (1) 
FC(F)(F)Sc1nc(-c2cccnc2)cs1

$$$$
