
     RDKit          3D

 22 23  0  0  0  0  0  0  0  0999 V2000
    4.9291    1.7792   16.9959 H   0  0  0  0  0  0  0  0  0  0  0  0
    5.4072    1.2913   17.8420 C   0  0  0  0  0  0  0  0  0  0  0  0
    6.5684    0.6735   17.5863 N   0  0  0  0  0  0  0  0  0  0  0  0
    7.1667    0.0536   18.6057 C   0  0  0  0  0  0  0  0  0  0  0  0
    8.1142   -0.4308   18.3726 H   0  0  0  0  0  0  0  0  0  0  0  0
    6.6354    0.0061   19.9004 C   0  0  0  0  0  0  0  0  0  0  0  0
    7.4359   -0.6337   20.9941 C   0  0  0  0  0  0  0  0  0  0  0  0
    8.0363   -1.7750   20.5350 F   0  0  0  0  0  0  0  0  0  0  0  0
    6.6164   -1.0335   22.0078 F   0  0  0  0  0  0  0  0  0  0  0  0
    8.5346    0.2484   21.5659 C   0  0  0  0  0  0  0  0  0  0  0  0
    9.0779   -0.3235   22.3168 H   0  0  0  0  0  0  0  0  0  0  0  0
    9.2046    0.5100   20.7490 H   0  0  0  0  0  0  0  0  0  0  0  0
    7.9805    1.4831   22.1652 C   0  0  0  0  0  0  0  0  0  0  0  0
    7.4789    1.5562   23.4173 N   0  0  0  0  0  0  0  0  0  0  0  0
    7.0474    2.7729   23.5702 N   0  0  0  0  0  0  0  0  0  0  0  0
    7.2924    3.3810   22.4324 N   0  0  0  0  0  0  0  0  0  0  0  0
    7.0521    4.3527   22.3029 H   0  0  0  0  0  0  0  0  0  0  0  0
    7.8825    2.6286   21.5156 N   0  0  0  0  0  0  0  0  0  0  0  0
    5.4189    0.6533   20.1640 C   0  0  0  0  0  0  0  0  0  0  0  0
    4.9971    0.6399   21.1726 H   0  0  0  0  0  0  0  0  0  0  0  0
    4.8018    1.3130   19.1034 C   0  0  0  0  0  0  0  0  0  0  0  0
    3.8710    1.8451   19.2506 H   0  0  0  0  0  0  0  0  0  0  0  0
  1  2  1  0
  2  3  2  0
  3  4  1  0
  4  5  1  0
  4  6  2  0
  6  7  1  0
  7  8  1  0
  7  9  1  0
  7 10  1  0
 10 11  1  0
 10 12  1  0
 10 13  1  0
 13 14  1  0
 14 15  2  0
 15 16  1  0
 16 17  1  0
 16 18  1  0
  6 19  1  0
 19 20  1  0
 19 21  2  0
 21 22  1  0
 21  2  1  0
 18 13  2  0
M  END
>  <cnnaffinity>  (1) 
-4.15132

>  <filename>  (1) 
FC(F)(Cc1nn[nH]n1)c1cccnc1

$$$$
