
     RDKit          3D

 40 43  0  0  0  0  0  0  0  0999 V2000
   11.4849   -0.7673   21.1829 F   0  0  0  0  0  0  0  0  0  0  0  0
   11.2947   -1.4786   22.2939 C   0  0  0  0  0  0  0  0  0  0  0  0
   11.3278   -0.6280   23.3434 F   0  0  0  0  0  0  0  0  0  0  0  0
   12.3441   -2.3101   22.4196 F   0  0  0  0  0  0  0  0  0  0  0  0
   10.0371   -2.3317   22.2651 C   0  0  0  0  0  0  0  0  0  0  0  0
    8.8042   -1.5882   22.1226 N   0  0  0  0  0  0  0  0  0  0  0  0
    8.5351   -1.0878   20.8906 N   0  0  0  0  0  0  0  0  0  0  0  0
    7.3151   -0.5935   21.0251 C   0  0  0  0  0  0  0  0  0  0  0  0
    6.5925    0.0686   19.9339 C   0  0  0  0  0  0  0  0  0  0  0  0
    5.3567    0.7217   20.1011 C   0  0  0  0  0  0  0  0  0  0  0  0
    4.7933    1.3484   18.9918 C   0  0  0  0  0  0  0  0  0  0  0  0
    5.4602    1.2841   17.7641 C   0  0  0  0  0  0  0  0  0  0  0  0
    6.6174    0.6300   17.5867 N   0  0  0  0  0  0  0  0  0  0  0  0
    7.1650    0.0408   18.6528 C   0  0  0  0  0  0  0  0  0  0  0  0
    8.1006   -0.4906   18.4767 H   0  0  0  0  0  0  0  0  0  0  0  0
    5.0439    1.7725   16.8860 H   0  0  0  0  0  0  0  0  0  0  0  0
    3.8536    1.8853   19.0601 H   0  0  0  0  0  0  0  0  0  0  0  0
    4.8477    0.7288   21.0688 H   0  0  0  0  0  0  0  0  0  0  0  0
    6.7832   -0.7623   22.2605 N   0  0  0  0  0  0  0  0  0  0  0  0
    7.7319   -1.3829   22.9285 C   0  0  0  0  0  0  0  0  0  0  0  0
    7.6866   -1.8371   24.3640 C   0  0  0  0  0  0  0  0  0  0  0  0
    8.7944   -1.1781   25.2477 C   0  0  0  0  0  0  0  0  0  0  0  0
    8.9410   -1.8228   26.6408 C   0  0  0  0  0  0  0  0  0  0  0  0
    9.2194   -3.3414   26.5764 C   0  0  0  0  0  0  0  0  0  0  0  0
    8.4082   -4.0244   25.5140 C   0  0  0  0  0  0  0  0  0  0  0  0
    7.7771   -3.3364   24.5080 C   0  0  0  0  0  0  0  0  0  0  0  0
    7.2129   -4.2749   23.7090 N   0  0  0  0  0  0  0  0  0  0  0  0
    7.4451   -5.5318   24.1150 N   0  0  0  0  0  0  0  0  0  0  0  0
    8.1799   -5.3799   25.2193 C   0  0  0  0  0  0  0  0  0  0  0  0
    8.5406   -6.2393   25.7689 H   0  0  0  0  0  0  0  0  0  0  0  0
    6.6902   -4.0910   22.8677 H   0  0  0  0  0  0  0  0  0  0  0  0
    9.0317   -3.8033   27.5491 H   0  0  0  0  0  0  0  0  0  0  0  0
   10.2761   -3.5407   26.3662 H   0  0  0  0  0  0  0  0  0  0  0  0
    9.7592   -1.3175   27.1733 H   0  0  0  0  0  0  0  0  0  0  0  0
    8.0387   -1.6365   27.2359 H   0  0  0  0  0  0  0  0  0  0  0  0
    9.7676   -1.2513   24.7565 H   0  0  0  0  0  0  0  0  0  0  0  0
    8.5828   -0.1072   25.3413 H   0  0  0  0  0  0  0  0  0  0  0  0
    6.6944   -1.5176   24.7185 H   0  0  0  0  0  0  0  0  0  0  0  0
   10.0291   -2.9879   23.1343 H   0  0  0  0  0  0  0  0  0  0  0  0
   10.1094   -2.9451   21.3729 H   0  0  0  0  0  0  0  0  0  0  0  0
  1  2  1  0
  2  3  1  0
  2  4  1  0
  2  5  1  0
  5  6  1  0
  6  7  1  0
  7  8  2  0
  8  9  1  0
  9 10  2  0
 10 11  1  0
 11 12  2  0
 12 13  1  0
 13 14  2  0
 14 15  1  0
 12 16  1  0
 11 17  1  0
 10 18  1  0
  8 19  1  0
 19 20  2  0
 20 21  1  0
 21 22  1  0
 22 23  1  0
 23 24  1  0
 24 25  1  0
 25 26  2  0
 26 27  1  0
 27 28  1  0
 28 29  2  0
 29 30  1  0
 27 31  1  0
 24 32  1  0
 24 33  1  0
 23 34  1  0
 23 35  1  0
 22 36  1  0
 22 37  1  0
 21 38  1  0
  5 39  1  0
  5 40  1  0
 20  6  1  0
 26 21  1  0
 14  9  1  0
 29 25  1  0
M  END
>  <cnnaffinity>  (1) 
-6.13246

>  <filename>  (1) 
FC(F)(F)Cn1nc(-c2cccnc2)nc1C1CCCc2cn[nH]c21

$$$$
