
     RDKit          3D

 24 25  0  0  0  0  0  0  0  0999 V2000
    4.2711   -3.6883   22.3244 H   0  0  0  0  0  0  0  0  0  0  0  0
    5.2070   -3.1705   22.5092 C   0  0  0  0  0  0  0  0  0  0  0  0
    5.6378   -2.3876   21.5260 N   0  0  0  0  0  0  0  0  0  0  0  0
    6.7829   -1.7708   21.7763 C   0  0  0  0  0  0  0  0  0  0  0  0
    7.3383   -0.9140   20.8691 N   0  0  0  0  0  0  0  0  0  0  0  0
    8.1045   -0.5381   21.4050 H   0  0  0  0  0  0  0  0  0  0  0  0
    6.6740   -0.1075   19.8819 C   0  0  0  0  0  0  0  0  0  0  0  0
    7.2126    0.0279   18.5762 C   0  0  0  0  0  0  0  0  0  0  0  0
    8.1606   -0.4533   18.3539 H   0  0  0  0  0  0  0  0  0  0  0  0
    6.6273    0.6920   17.5709 N   0  0  0  0  0  0  0  0  0  0  0  0
    5.4608    1.3033   17.8338 C   0  0  0  0  0  0  0  0  0  0  0  0
    4.9854    1.8247   17.0031 H   0  0  0  0  0  0  0  0  0  0  0  0
    4.8691    1.2860   19.0993 C   0  0  0  0  0  0  0  0  0  0  0  0
    3.9382    1.8138   19.2573 H   0  0  0  0  0  0  0  0  0  0  0  0
    5.4799    0.5770   20.1473 C   0  0  0  0  0  0  0  0  0  0  0  0
    5.0423    0.5491   21.1461 H   0  0  0  0  0  0  0  0  0  0  0  0
    7.5813   -1.9455   22.8364 N   0  0  0  0  0  0  0  0  0  0  0  0
    7.1192   -2.7305   23.8203 C   0  0  0  0  0  0  0  0  0  0  0  0
    7.9598   -3.0443   25.0953 C   0  0  0  0  0  0  0  0  0  0  0  0
    7.3407   -2.5826   26.2025 F   0  0  0  0  0  0  0  0  0  0  0  0
    8.0833   -4.3810   25.2724 F   0  0  0  0  0  0  0  0  0  0  0  0
    9.1826   -2.5190   25.0563 F   0  0  0  0  0  0  0  0  0  0  0  0
    5.8573   -3.3200   23.7236 C   0  0  0  0  0  0  0  0  0  0  0  0
    5.3957   -3.8501   24.5428 H   0  0  0  0  0  0  0  0  0  0  0  0
  1  2  1  0
  2  3  2  0
  3  4  1  0
  4  5  1  0
  5  6  1  0
  5  7  1  0
  7  8  2  0
  8  9  1  0
  8 10  1  0
 10 11  2  0
 11 12  1  0
 11 13  1  0
 13 14  1  0
 13 15  2  0
 15 16  1  0
  4 17  2  0
 17 18  1  0
 18 19  1  0
 19 20  1  0
 19 21  1  0
 19 22  1  0
 18 23  2  0
 23 24  1  0
 23  2  1  0
 15  7  1  0
M  END
>  <cnnaffinity>  (1) 
-4.79469

>  <filename>  (1) 
FC(F)(F)c1ccnc(Nc2cccnc2)n1

$$$$
