
     RDKit          3D

 40 43  0  0  0  0  0  0  0  0999 V2000
   12.3821   -2.2269   22.2933 F   0  0  0  0  0  0  0  0  0  0  0  0
   11.3176   -1.4111   22.1709 C   0  0  0  0  0  0  0  0  0  0  0  0
   11.2651   -0.6452   23.2819 F   0  0  0  0  0  0  0  0  0  0  0  0
   11.5349   -0.6222   21.1174 F   0  0  0  0  0  0  0  0  0  0  0  0
   10.0751   -2.2692   22.0405 C   0  0  0  0  0  0  0  0  0  0  0  0
    8.8369   -1.5174   21.9604 N   0  0  0  0  0  0  0  0  0  0  0  0
    8.5225   -1.0329   20.7367 N   0  0  0  0  0  0  0  0  0  0  0  0
    7.3310   -0.4953   20.9197 C   0  0  0  0  0  0  0  0  0  0  0  0
    6.5710    0.1186   19.8383 C   0  0  0  0  0  0  0  0  0  0  0  0
    5.3321    0.7507   20.0316 C   0  0  0  0  0  0  0  0  0  0  0  0
    4.7502    1.3779   18.9339 C   0  0  0  0  0  0  0  0  0  0  0  0
    5.4067    1.3288   17.6979 C   0  0  0  0  0  0  0  0  0  0  0  0
    6.5610    0.6765   17.4959 N   0  0  0  0  0  0  0  0  0  0  0  0
    7.1244    0.0837   18.5498 C   0  0  0  0  0  0  0  0  0  0  0  0
    8.0580   -0.4478   18.3639 H   0  0  0  0  0  0  0  0  0  0  0  0
    4.9870    1.8353   16.8332 H   0  0  0  0  0  0  0  0  0  0  0  0
    3.8149    1.9195   19.0222 H   0  0  0  0  0  0  0  0  0  0  0  0
    4.8486    0.7508   21.0130 H   0  0  0  0  0  0  0  0  0  0  0  0
    6.8639   -0.5919   22.1840 N   0  0  0  0  0  0  0  0  0  0  0  0
    7.8229   -1.2289   22.8238 C   0  0  0  0  0  0  0  0  0  0  0  0
    7.6948   -1.7944   24.2041 C   0  0  0  0  0  0  0  0  0  0  0  0
    8.8719   -1.5206   25.1853 C   0  0  0  0  0  0  0  0  0  0  0  0
    8.5371   -2.0055   26.6154 C   0  0  0  0  0  0  0  0  0  0  0  0
    7.9894   -3.4122   26.5722 C   0  0  0  0  0  0  0  0  0  0  0  0
    7.4591   -3.9647   25.4277 C   0  0  0  0  0  0  0  0  0  0  0  0
    7.4086   -3.3240   24.0838 C   0  0  0  0  0  0  0  0  0  0  0  0
    8.1556   -3.7908   23.4273 H   0  0  0  0  0  0  0  0  0  0  0  0
    6.4444   -3.5000   23.5923 H   0  0  0  0  0  0  0  0  0  0  0  0
    7.0219   -5.2006   25.7623 N   0  0  0  0  0  0  0  0  0  0  0  0
    7.2099   -5.4884   27.0603 N   0  0  0  0  0  0  0  0  0  0  0  0
    7.7996   -4.4056   27.5521 C   0  0  0  0  0  0  0  0  0  0  0  0
    8.0454   -4.3523   28.6033 H   0  0  0  0  0  0  0  0  0  0  0  0
    6.5490   -5.8716   25.1715 H   0  0  0  0  0  0  0  0  0  0  0  0
    9.4284   -1.9604   27.2526 H   0  0  0  0  0  0  0  0  0  0  0  0
    7.8015   -1.3355   27.0877 H   0  0  0  0  0  0  0  0  0  0  0  0
    9.7541   -2.0757   24.8490 H   0  0  0  0  0  0  0  0  0  0  0  0
    9.1533   -0.4598   25.1946 H   0  0  0  0  0  0  0  0  0  0  0  0
    6.7959   -1.3052   24.6004 H   0  0  0  0  0  0  0  0  0  0  0  0
   10.0865   -2.9779   22.8667 H   0  0  0  0  0  0  0  0  0  0  0  0
   10.1373   -2.8224   21.1089 H   0  0  0  0  0  0  0  0  0  0  0  0
  1  2  1  0
  2  3  1  0
  2  4  1  0
  2  5  1  0
  5  6  1  0
  6  7  1  0
  7  8  2  0
  8  9  1  0
  9 10  2  0
 10 11  1  0
 11 12  2  0
 12 13  1  0
 13 14  2  0
 14 15  1  0
 12 16  1  0
 11 17  1  0
 10 18  1  0
  8 19  1  0
 19 20  2  0
 20 21  1  0
 21 22  1  0
 22 23  1  0
 23 24  1  0
 24 25  2  0
 25 26  1  0
 26 27  1  0
 26 28  1  0
 25 29  1  0
 29 30  1  0
 30 31  2  0
 31 32  1  0
 29 33  1  0
 23 34  1  0
 23 35  1  0
 22 36  1  0
 22 37  1  0
 21 38  1  0
  5 39  1  0
  5 40  1  0
 20  6  1  0
 26 21  1  0
 14  9  1  0
 31 24  1  0
M  END
>  <cnnaffinity>  (1) 
-6.00901

>  <filename>  (1) 
FC(F)(F)Cn1nc(-c2cccnc2)nc1C1CCc2cn[nH]c2C1

$$$$
