
     RDKit          3D

 38 40  0  0  0  0  0  0  0  0999 V2000
    5.1025   -3.5492   17.9478 H   0  0  0  0  0  0  0  0  0  0  0  0
    5.4499   -3.8357   18.9373 C   0  0  0  0  0  0  0  0  0  0  0  0
    5.7129   -2.8117   19.7419 N   0  0  0  0  0  0  0  0  0  0  0  0
    6.2489   -3.0436   20.9453 C   0  0  0  0  0  0  0  0  0  0  0  0
    6.4813   -1.7869   21.7482 C   0  0  0  0  0  0  0  0  0  0  0  0
    6.7721   -2.0191   22.7697 H   0  0  0  0  0  0  0  0  0  0  0  0
    5.5024   -1.3203   21.7847 H   0  0  0  0  0  0  0  0  0  0  0  0
    7.4202   -0.6997   21.1329 C   0  0  1  0  0  0  0  0  0  0  0  0
    6.7334    0.0053   19.9439 C   0  0  0  0  0  0  0  0  0  0  0  0
    7.2490    0.0084   18.6338 C   0  0  0  0  0  0  0  0  0  0  0  0
    8.1859   -0.4984   18.4121 H   0  0  0  0  0  0  0  0  0  0  0  0
    6.6767    0.6133   17.5816 N   0  0  0  0  0  0  0  0  0  0  0  0
    5.5251    1.2575   17.8014 C   0  0  0  0  0  0  0  0  0  0  0  0
    5.0807    1.7461   16.9399 H   0  0  0  0  0  0  0  0  0  0  0  0
    4.9004    1.3105   19.0522 C   0  0  0  0  0  0  0  0  0  0  0  0
    3.9612    1.8400   19.1631 H   0  0  0  0  0  0  0  0  0  0  0  0
    5.5121    0.6748   20.1327 C   0  0  0  0  0  0  0  0  0  0  0  0
    5.0452    0.7102   21.1214 H   0  0  0  0  0  0  0  0  0  0  0  0
    7.8013    0.3243   22.2568 C   0  0  0  0  0  0  0  0  0  0  0  0
    7.0456    1.1095   22.3855 H   0  0  0  0  0  0  0  0  0  0  0  0
    7.8604   -0.2268   23.2082 H   0  0  0  0  0  0  0  0  0  0  0  0
    9.1280    0.8778   21.9329 N   0  0  0  0  0  0  0  0  0  0  0  0
    9.7167    0.7916   22.7541 H   0  0  0  0  0  0  0  0  0  0  0  0
    9.6942    0.0644   20.8505 C   0  0  0  0  0  0  0  0  0  0  0  0
    9.6072    0.6162   19.9043 H   0  0  0  0  0  0  0  0  0  0  0  0
   10.7601   -0.1419   21.0072 H   0  0  0  0  0  0  0  0  0  0  0  0
    8.8407   -1.2046   20.8037 C   0  0  0  0  0  0  0  0  0  0  0  0
    9.1620   -1.9120   21.5769 H   0  0  0  0  0  0  0  0  0  0  0  0
    8.9013   -1.7141   19.8440 H   0  0  0  0  0  0  0  0  0  0  0  0
    6.4629   -4.3597   21.4014 C   0  0  0  0  0  0  0  0  0  0  0  0
    7.1207   -4.5714   22.7262 C   0  0  0  0  0  0  0  0  0  0  0  0
    8.3161   -3.9411   22.7978 F   0  0  0  0  0  0  0  0  0  0  0  0
    6.3716   -4.0869   23.7386 F   0  0  0  0  0  0  0  0  0  0  0  0
    7.3455   -5.8694   22.9985 F   0  0  0  0  0  0  0  0  0  0  0  0
    6.1076   -5.4466   20.5906 C   0  0  0  0  0  0  0  0  0  0  0  0
    6.2097   -6.4723   20.9546 H   0  0  0  0  0  0  0  0  0  0  0  0
    5.6172   -5.1738   19.3198 C   0  0  0  0  0  0  0  0  0  0  0  0
    5.3954   -5.9849   18.6368 H   0  0  0  0  0  0  0  0  0  0  0  0
  1  2  1  0
  2  3  2  0
  3  4  1  0
  4  5  1  0
  5  6  1  0
  5  7  1  0
  8  5  1  1
  8  9  1  0
  9 10  2  0
 10 11  1  0
 10 12  1  0
 12 13  2  0
 13 14  1  0
 13 15  1  0
 15 16  1  0
 15 17  2  0
 17 18  1  0
  8 19  1  0
 19 20  1  0
 19 21  1  0
 19 22  1  0
 22 23  1  0
 22 24  1  0
 24 25  1  0
 24 26  1  0
 24 27  1  0
 27 28  1  0
 27 29  1  0
  4 30  2  0
 30 31  1  0
 31 32  1  0
 31 33  1  0
 31 34  1  0
 30 35  1  0
 35 36  1  0
 35 37  2  0
 37 38  1  0
 37  2  1  0
 27  8  1  0
 17  9  1  0
M  END
>  <cnnaffinity>  (1) 
-5.29851

>  <filename>  (1) 
FC(F)(F)c1cccnc1C[C@]1(c2cccnc2)CCNC1

$$$$
