
     RDKit          3D

 42 45  0  0  0  0  0  0  0  0999 V2000
   13.3124    3.8628   23.6168 F   0  0  0  0  0  0  0  0  0  0  0  0
   13.1104    2.6043   23.1705 C   0  0  0  0  0  0  0  0  0  0  0  0
   13.6225    1.7384   24.0619 F   0  0  0  0  0  0  0  0  0  0  0  0
   11.7655    2.3771   23.0831 O   0  0  0  0  0  0  0  0  0  0  0  0
   11.2213    2.2116   21.7748 C   0  0  0  0  0  0  0  0  0  0  0  0
    9.8855    1.5446   21.8492 C   0  0  0  0  0  0  0  0  0  0  0  0
    9.4452    0.6160   21.0193 N   0  0  0  0  0  0  0  0  0  0  0  0
    8.2510    0.2634   21.5642 C   0  0  0  0  0  0  0  0  0  0  0  0
    7.3300   -0.7391   20.9330 C   0  0  0  0  0  0  0  0  0  0  0  0
    6.5516   -0.0967   19.7995 C   0  0  0  0  0  0  0  0  0  0  0  0
    5.3704    0.6051   20.0545 C   0  0  0  0  0  0  0  0  0  0  0  0
    4.7702    1.3211   19.0165 C   0  0  0  0  0  0  0  0  0  0  0  0
    5.3885    1.3130   17.7623 C   0  0  0  0  0  0  0  0  0  0  0  0
    6.5241    0.6485   17.4955 N   0  0  0  0  0  0  0  0  0  0  0  0
    7.0839   -0.0314   18.5020 C   0  0  0  0  0  0  0  0  0  0  0  0
    8.0287   -0.5364   18.2913 H   0  0  0  0  0  0  0  0  0  0  0  0
    4.9552    1.8606   16.9285 H   0  0  0  0  0  0  0  0  0  0  0  0
    3.8610    1.8938   19.1699 H   0  0  0  0  0  0  0  0  0  0  0  0
    4.9539    0.6014   21.0628 H   0  0  0  0  0  0  0  0  0  0  0  0
    6.6582   -1.1104   21.7134 H   0  0  0  0  0  0  0  0  0  0  0  0
    7.9179   -1.5861   20.5614 H   0  0  0  0  0  0  0  0  0  0  0  0
    7.9233    0.9334   22.6505 N   0  0  0  0  0  0  0  0  0  0  0  0
    8.9789    1.7786   22.8333 N   0  0  0  0  0  0  0  0  0  0  0  0
    9.0001    2.7650   23.8707 C   0  0  0  0  0  0  0  0  0  0  0  0
    9.2924    4.0790   23.5708 C   0  0  0  0  0  0  0  0  0  0  0  0
    9.1673    5.0979   24.5473 C   0  0  0  0  0  0  0  0  0  0  0  0
    8.7106    4.7992   25.8104 C   0  0  0  0  0  0  0  0  0  0  0  0
    8.4210    3.4493   26.1626 C   0  0  0  0  0  0  0  0  0  0  0  0
    7.9339    3.2122   27.4198 N   0  0  0  0  0  0  0  0  0  0  0  0
    7.8266    1.9614   27.8013 C   0  0  0  0  0  0  0  0  0  0  0  0
    8.1712    0.8390   27.0009 C   0  0  0  0  0  0  0  0  0  0  0  0
    8.5886    1.0540   25.7112 C   0  0  0  0  0  0  0  0  0  0  0  0
    8.6624    2.3944   25.2182 C   0  0  0  0  0  0  0  0  0  0  0  0
    8.8275    0.2297   25.0390 H   0  0  0  0  0  0  0  0  0  0  0  0
    8.0974   -0.1586   27.4191 H   0  0  0  0  0  0  0  0  0  0  0  0
    7.4463    1.7950   28.8067 H   0  0  0  0  0  0  0  0  0  0  0  0
    8.5399    5.5570   26.5669 H   0  0  0  0  0  0  0  0  0  0  0  0
    9.4180    6.1188   24.2703 H   0  0  0  0  0  0  0  0  0  0  0  0
    9.5691    4.3635   22.5611 H   0  0  0  0  0  0  0  0  0  0  0  0
   11.8412    1.5713   21.1283 H   0  0  0  0  0  0  0  0  0  0  0  0
   11.1400    3.1927   21.2892 H   0  0  0  0  0  0  0  0  0  0  0  0
   13.6610    2.4897   22.2243 H   0  0  0  0  0  0  0  0  0  0  0  0
  1  2  1  0
  2  3  1  0
  2  4  1  0
  4  5  1  0
  5  6  1  0
  6  7  2  0
  7  8  1  0
  8  9  1  0
  9 10  1  0
 10 11  2  0
 11 12  1  0
 12 13  2  0
 13 14  1  0
 14 15  2  0
 15 16  1  0
 13 17  1  0
 12 18  1  0
 11 19  1  0
  9 20  1  0
  9 21  1  0
  8 22  2  0
 22 23  1  0
 23 24  1  0
 24 25  2  0
 25 26  1  0
 26 27  2  0
 27 28  1  0
 28 29  2  0
 29 30  1  0
 30 31  2  0
 31 32  1  0
 32 33  2  0
 32 34  1  0
 31 35  1  0
 30 36  1  0
 27 37  1  0
 26 38  1  0
 25 39  1  0
  5 40  1  0
  5 41  1  0
  2 42  1  0
 23  6  1  0
 33 24  1  0
 15 10  1  0
 33 28  1  0
M  END
>  <cnnaffinity>  (1) 
-5.75824

>  <filename>  (1) 
FC(F)OCc1nc(Cc2cccnc2)nn1-c1cccc2ncccc12

$$$$
