
     RDKit          3D

 32 34  0  0  0  0  0  0  0  0999 V2000
    4.9160    1.7933   16.9871 H   0  0  0  0  0  0  0  0  0  0  0  0
    5.3920    1.2978   17.8296 C   0  0  0  0  0  0  0  0  0  0  0  0
    6.5553    0.6844   17.5631 N   0  0  0  0  0  0  0  0  0  0  0  0
    7.1563    0.0568   18.5820 C   0  0  0  0  0  0  0  0  0  0  0  0
    8.1147   -0.4115   18.3623 H   0  0  0  0  0  0  0  0  0  0  0  0
    6.6396   -0.0154   19.8918 C   0  0  0  0  0  0  0  0  0  0  0  0
    7.4103   -0.7046   20.9974 C   0  0  0  0  0  0  0  0  0  0  0  0
    7.9429   -1.5888   20.6275 H   0  0  0  0  0  0  0  0  0  0  0  0
    6.7352   -1.0339   21.7968 H   0  0  0  0  0  0  0  0  0  0  0  0
    8.4635    0.1941   21.6751 C   0  0  0  0  0  0  0  0  0  0  0  0
    9.3706    0.5850   20.7118 F   0  0  0  0  0  0  0  0  0  0  0  0
    9.1797   -0.5536   22.5602 F   0  0  0  0  0  0  0  0  0  0  0  0
    7.8340    1.4381   22.3519 C   0  0  0  0  0  0  0  0  0  0  0  0
    7.2758    1.2816   23.5299 N   0  0  0  0  0  0  0  0  0  0  0  0
    6.6787    2.3673   24.1146 C   0  0  0  0  0  0  0  0  0  0  0  0
    6.1260    2.2032   25.4221 C   0  0  0  0  0  0  0  0  0  0  0  0
    6.2360    1.2215   25.8730 H   0  0  0  0  0  0  0  0  0  0  0  0
    5.4943    3.2579   26.0413 C   0  0  0  0  0  0  0  0  0  0  0  0
    5.0695    3.1360   27.0348 H   0  0  0  0  0  0  0  0  0  0  0  0
    5.3844    4.5243   25.3880 C   0  0  0  0  0  0  0  0  0  0  0  0
    4.8792    5.3431   25.8952 H   0  0  0  0  0  0  0  0  0  0  0  0
    5.9083    4.7111   24.1315 C   0  0  0  0  0  0  0  0  0  0  0  0
    5.8333    5.6691   23.6160 H   0  0  0  0  0  0  0  0  0  0  0  0
    6.5717    3.6400   23.4615 C   0  0  0  0  0  0  0  0  0  0  0  0
    7.1449    3.7631   22.1605 C   0  0  0  0  0  0  0  0  0  0  0  0
    7.0546    4.7197   21.6333 H   0  0  0  0  0  0  0  0  0  0  0  0
    7.7847    2.6724   21.6194 C   0  0  0  0  0  0  0  0  0  0  0  0
    8.2392    2.6766   20.6383 H   0  0  0  0  0  0  0  0  0  0  0  0
    5.4254    0.6362   20.1455 C   0  0  0  0  0  0  0  0  0  0  0  0
    5.0164    0.6360   21.1624 H   0  0  0  0  0  0  0  0  0  0  0  0
    4.7957    1.3099   19.0950 C   0  0  0  0  0  0  0  0  0  0  0  0
    3.8699    1.8468   19.2450 H   0  0  0  0  0  0  0  0  0  0  0  0
  1  2  1  0
  2  3  2  0
  3  4  1  0
  4  5  1  0
  4  6  2  0
  6  7  1  0
  7  8  1  0
  7  9  1  0
  7 10  1  0
 10 11  1  0
 10 12  1  0
 10 13  1  0
 13 14  2  0
 14 15  1  0
 15 16  2  0
 16 17  1  0
 16 18  1  0
 18 19  1  0
 18 20  2  0
 20 21  1  0
 20 22  1  0
 22 23  1  0
 22 24  2  0
 24 25  1  0
 25 26  1  0
 25 27  2  0
 27 28  1  0
  6 29  1  0
 29 30  1  0
 29 31  2  0
 31 32  1  0
 31  2  1  0
 27 13  1  0
 24 15  1  0
M  END
>  <cnnaffinity>  (1) 
-4.9958

>  <filename>  (1) 
FC(F)(Cc1cccnc1)c1ccc2ccccc2n1

$$$$
