
     RDKit          3D

 36 39  0  0  0  0  0  0  0  0999 V2000
   11.6499   -0.7871   21.2111 F   0  0  0  0  0  0  0  0  0  0  0  0
   11.3505   -1.5455   22.2665 C   0  0  0  0  0  0  0  0  0  0  0  0
   12.3577   -2.4218   22.4271 F   0  0  0  0  0  0  0  0  0  0  0  0
   11.3163   -0.7524   23.3563 F   0  0  0  0  0  0  0  0  0  0  0  0
   10.0666   -2.3439   22.1098 C   0  0  0  0  0  0  0  0  0  0  0  0
    8.8434   -1.5644   22.0583 N   0  0  0  0  0  0  0  0  0  0  0  0
    8.5463   -1.0083   20.8629 N   0  0  0  0  0  0  0  0  0  0  0  0
    7.3086   -0.5738   21.0258 C   0  0  0  0  0  0  0  0  0  0  0  0
    6.5753    0.0803   19.9424 C   0  0  0  0  0  0  0  0  0  0  0  0
    5.3425    0.7351   20.1112 C   0  0  0  0  0  0  0  0  0  0  0  0
    4.7788    1.3559   18.9971 C   0  0  0  0  0  0  0  0  0  0  0  0
    5.4460    1.2901   17.7692 C   0  0  0  0  0  0  0  0  0  0  0  0
    6.6024    0.6349   17.5914 N   0  0  0  0  0  0  0  0  0  0  0  0
    7.1462    0.0479   18.6602 C   0  0  0  0  0  0  0  0  0  0  0  0
    8.0821   -0.4829   18.4883 H   0  0  0  0  0  0  0  0  0  0  0  0
    5.0315    1.7761   16.8878 H   0  0  0  0  0  0  0  0  0  0  0  0
    3.8384    1.8930   19.0617 H   0  0  0  0  0  0  0  0  0  0  0  0
    4.8398    0.7562   21.0811 H   0  0  0  0  0  0  0  0  0  0  0  0
    6.7815   -0.8337   22.2405 N   0  0  0  0  0  0  0  0  0  0  0  0
    7.7638   -1.4435   22.8885 C   0  0  0  0  0  0  0  0  0  0  0  0
    7.8013   -1.8874   24.2725 C   0  0  0  0  0  0  0  0  0  0  0  0
    6.6748   -2.2973   25.0136 C   0  0  0  0  0  0  0  0  0  0  0  0
    5.3315   -2.6741   24.7358 C   0  0  0  0  0  0  0  0  0  0  0  0
    4.4691   -2.8336   25.7954 C   0  0  0  0  0  0  0  0  0  0  0  0
    4.9806   -2.6719   27.1345 C   0  0  0  0  0  0  0  0  0  0  0  0
    6.2414   -2.4467   27.4175 N   0  0  0  0  0  0  0  0  0  0  0  0
    7.0651   -2.3052   26.3529 N   0  0  0  0  0  0  0  0  0  0  0  0
    8.4126   -2.0617   26.4470 C   0  0  0  0  0  0  0  0  0  0  0  0
    8.8939   -1.8146   25.1882 C   0  0  0  0  0  0  0  0  0  0  0  0
    9.9053   -1.5196   24.9423 H   0  0  0  0  0  0  0  0  0  0  0  0
    8.8577   -2.0732   27.4290 H   0  0  0  0  0  0  0  0  0  0  0  0
    4.3130   -2.7294   27.9965 H   0  0  0  0  0  0  0  0  0  0  0  0
    3.4224   -3.0795   25.6588 H   0  0  0  0  0  0  0  0  0  0  0  0
    5.0239   -2.7889   23.7002 H   0  0  0  0  0  0  0  0  0  0  0  0
   10.1421   -2.8483   21.1516 H   0  0  0  0  0  0  0  0  0  0  0  0
   10.0391   -3.0879   22.9081 H   0  0  0  0  0  0  0  0  0  0  0  0
  1  2  1  0
  2  3  1  0
  2  4  1  0
  2  5  1  0
  5  6  1  0
  6  7  1  0
  7  8  2  0
  8  9  1  0
  9 10  2  0
 10 11  1  0
 11 12  2  0
 12 13  1  0
 13 14  2  0
 14 15  1  0
 12 16  1  0
 11 17  1  0
 10 18  1  0
  8 19  1  0
 19 20  2  0
 20 21  1  0
 21 22  2  0
 22 23  1  0
 23 24  2  0
 24 25  1  0
 25 26  2  0
 26 27  1  0
 27 28  1  0
 28 29  2  0
 29 30  1  0
 28 31  1  0
 25 32  1  0
 24 33  1  0
 23 34  1  0
  5 35  1  0
  5 36  1  0
 20  6  1  0
 29 21  1  0
 14  9  1  0
 27 22  1  0
M  END
>  <cnnaffinity>  (1) 
-5.94817

>  <filename>  (1) 
FC(F)(F)Cn1nc(-c2cccnc2)nc1-c1ccn2ncccc12

$$$$
