
     RDKit          3D

 27 28  0  0  0  0  0  0  0  0999 V2000
   11.5507    5.1031   23.0202 F   0  0  0  0  0  0  0  0  0  0  0  0
   10.2525    4.8567   23.1812 C   0  0  0  0  0  0  0  0  0  0  0  0
    9.9846    4.9596   24.5037 F   0  0  0  0  0  0  0  0  0  0  0  0
    9.5717    5.8713   22.6038 F   0  0  0  0  0  0  0  0  0  0  0  0
    9.7936    3.4945   22.6390 C   0  0  0  0  0  0  0  0  0  0  0  0
    8.4204    3.1420   22.7477 C   0  0  0  0  0  0  0  0  0  0  0  0
    8.0347    1.9169   22.2557 C   0  0  0  0  0  0  0  0  0  0  0  0
    9.0262    1.0966   21.6689 C   0  0  0  0  0  0  0  0  0  0  0  0
    8.7477   -0.1367   21.1753 N   0  0  0  0  0  0  0  0  0  0  0  0
    7.4290   -0.6882   20.9912 C   0  0  0  0  0  0  0  0  0  0  0  0
    6.6519    0.0210   19.9159 C   0  0  0  0  0  0  0  0  0  0  0  0
    5.4280    0.6528   20.1564 C   0  0  0  0  0  0  0  0  0  0  0  0
    4.7978    1.3107   19.0988 C   0  0  0  0  0  0  0  0  0  0  0  0
    5.4022    1.2932   17.8379 C   0  0  0  0  0  0  0  0  0  0  0  0
    6.5662    0.6775   17.5863 N   0  0  0  0  0  0  0  0  0  0  0  0
    7.1737    0.0763   18.6157 C   0  0  0  0  0  0  0  0  0  0  0  0
    8.1145   -0.4154   18.3760 H   0  0  0  0  0  0  0  0  0  0  0  0
    4.9267    1.7833   16.9904 H   0  0  0  0  0  0  0  0  0  0  0  0
    3.8694    1.8468   19.2469 H   0  0  0  0  0  0  0  0  0  0  0  0
    4.9860    0.6404   21.1583 H   0  0  0  0  0  0  0  0  0  0  0  0
    7.5316   -1.7504   20.7415 H   0  0  0  0  0  0  0  0  0  0  0  0
    6.8583   -0.6757   21.9326 H   0  0  0  0  0  0  0  0  0  0  0  0
    9.5789   -0.6043   20.8577 H   0  0  0  0  0  0  0  0  0  0  0  0
   10.3199    1.4814   21.6035 N   0  0  0  0  0  0  0  0  0  0  0  0
   10.6867    2.6684   22.0888 N   0  0  0  0  0  0  0  0  0  0  0  0
    7.0124    1.5612   22.2979 H   0  0  0  0  0  0  0  0  0  0  0  0
    7.7045    3.8241   23.2047 H   0  0  0  0  0  0  0  0  0  0  0  0
  1  2  1  0
  2  3  1  0
  2  4  1  0
  2  5  1  0
  5  6  2  0
  6  7  1  0
  7  8  2  0
  8  9  1  0
  9 10  1  0
 10 11  1  0
 11 12  2  0
 12 13  1  0
 13 14  2  0
 14 15  1  0
 15 16  2  0
 16 17  1  0
 14 18  1  0
 13 19  1  0
 12 20  1  0
 10 21  1  0
 10 22  1  0
  9 23  1  0
  8 24  1  0
 24 25  2  0
  7 26  1  0
  6 27  1  0
 25  5  1  0
 16 11  1  0
M  END
>  <cnnaffinity>  (1) 
-4.61849

>  <filename>  (1) 
FC(F)(F)c1ccc(NCc2cccnc2)nn1

$$$$
