
     RDKit          3D

 23 24  0  0  0  0  0  0  0  0999 V2000
    4.9220    1.8077   16.9645 H   0  0  0  0  0  0  0  0  0  0  0  0
    5.3908    1.3066   17.8109 C   0  0  0  0  0  0  0  0  0  0  0  0
    6.5541    0.6874   17.5535 N   0  0  0  0  0  0  0  0  0  0  0  0
    7.1681    0.0728   18.5716 C   0  0  0  0  0  0  0  0  0  0  0  0
    8.1028   -0.4199   18.3157 H   0  0  0  0  0  0  0  0  0  0  0  0
    6.6668    0.0180   19.8863 C   0  0  0  0  0  0  0  0  0  0  0  0
    7.3549   -0.6969   20.9654 C   0  0  0  0  0  0  0  0  0  0  0  0
    6.8480   -1.1924   22.1101 C   0  0  0  0  0  0  0  0  0  0  0  0
    5.8357   -1.3021   22.4340 H   0  0  0  0  0  0  0  0  0  0  0  0
    7.8904   -1.6977   22.8772 N   0  0  0  0  0  0  0  0  0  0  0  0
    7.6186   -2.5651   24.3165 S   0  0  0  0  0  0  0  0  0  0  0  0
    7.2317   -4.2593   23.6698 C   0  0  0  0  0  0  0  0  0  0  0  0
    6.1144   -4.2797   22.9407 F   0  0  0  0  0  0  0  0  0  0  0  0
    7.0694   -5.0522   24.7265 F   0  0  0  0  0  0  0  0  0  0  0  0
    8.2240   -4.7265   22.9214 F   0  0  0  0  0  0  0  0  0  0  0  0
    9.0863   -1.5701   22.1784 C   0  0  0  0  0  0  0  0  0  0  0  0
   10.6196   -2.0457   22.5634 S   0  0  0  0  0  0  0  0  0  0  0  0
    8.7131   -0.9699   21.0142 N   0  0  0  0  0  0  0  0  0  0  0  0
    9.4359   -0.6793   20.3761 H   0  0  0  0  0  0  0  0  0  0  0  0
    5.4394    0.6655   20.1304 C   0  0  0  0  0  0  0  0  0  0  0  0
    5.0103    0.6658   21.1336 H   0  0  0  0  0  0  0  0  0  0  0  0
    4.7974    1.3216   19.0790 C   0  0  0  0  0  0  0  0  0  0  0  0
    3.8632    1.8523   19.2260 H   0  0  0  0  0  0  0  0  0  0  0  0
  1  2  1  0
  2  3  2  0
  3  4  1  0
  4  5  1  0
  4  6  2  0
  6  7  1  0
  7  8  2  0
  8  9  1  0
  8 10  1  0
 10 11  1  0
 11 12  1  0
 12 13  1  0
 12 14  1  0
 12 15  1  0
 10 16  1  0
 16 17  2  0
 16 18  1  0
 18 19  1  0
  6 20  1  0
 20 21  1  0
 20 22  2  0
 22 23  1  0
 22  2  1  0
 18  7  1  0
M  END
>  <cnnaffinity>  (1) 
-5.17996

>  <filename>  (1) 
FC(F)(F)Sn1cc(-c2cccnc2)[nH]c1=S

$$$$
