
     RDKit          3D

 41 43  0  0  0  0  0  0  0  0999 V2000
   12.2768   -2.1035   22.3357 F   0  0  0  0  0  0  0  0  0  0  0  0
   11.1071   -1.4396   22.3385 C   0  0  0  0  0  0  0  0  0  0  0  0
   10.9303   -0.9182   23.5681 F   0  0  0  0  0  0  0  0  0  0  0  0
   11.2177   -0.4310   21.4677 F   0  0  0  0  0  0  0  0  0  0  0  0
    9.9874   -2.4089   21.9963 C   0  0  0  0  0  0  0  0  0  0  0  0
    8.6793   -1.7864   21.9318 N   0  0  0  0  0  0  0  0  0  0  0  0
    8.3745   -1.2293   20.7415 N   0  0  0  0  0  0  0  0  0  0  0  0
    7.2270   -0.6201   20.9653 C   0  0  0  0  0  0  0  0  0  0  0  0
    6.5174    0.0813   19.8963 C   0  0  0  0  0  0  0  0  0  0  0  0
    5.2959    0.7535   20.0629 C   0  0  0  0  0  0  0  0  0  0  0  0
    4.7513    1.3908   18.9460 C   0  0  0  0  0  0  0  0  0  0  0  0
    5.4302    1.3272   17.7244 C   0  0  0  0  0  0  0  0  0  0  0  0
    6.5823    0.6665   17.5536 N   0  0  0  0  0  0  0  0  0  0  0  0
    7.1074    0.0631   18.6231 C   0  0  0  0  0  0  0  0  0  0  0  0
    8.0420   -0.4675   18.4570 H   0  0  0  0  0  0  0  0  0  0  0  0
    5.0313    1.8264   16.8432 H   0  0  0  0  0  0  0  0  0  0  0  0
    3.8246    1.9483   19.0073 H   0  0  0  0  0  0  0  0  0  0  0  0
    4.7812    0.7869   21.0256 H   0  0  0  0  0  0  0  0  0  0  0  0
    6.7903   -0.7197   22.2383 N   0  0  0  0  0  0  0  0  0  0  0  0
    7.7129   -1.4537   22.8378 C   0  0  0  0  0  0  0  0  0  0  0  0
    7.7170   -1.7736   24.3021 C   0  0  0  0  0  0  0  0  0  0  0  0
    6.3491   -2.2399   24.8351 C   0  0  0  0  0  0  0  0  0  0  0  0
    5.8811   -3.5519   24.1759 C   0  0  0  0  0  0  0  0  0  0  0  0
    6.8997   -4.6495   24.3727 C   0  0  0  0  0  0  0  0  0  0  0  0
    7.1857   -5.1273   25.6673 C   0  0  0  0  0  0  0  0  0  0  0  0
    8.2955   -5.9491   25.8748 C   0  0  0  0  0  0  0  0  0  0  0  0
    9.0491   -6.3026   24.7531 C   0  0  0  0  0  0  0  0  0  0  0  0
    8.6195   -5.8769   23.4922 C   0  0  0  0  0  0  0  0  0  0  0  0
    7.5878   -5.0493   23.2893 N   0  0  0  0  0  0  0  0  0  0  0  0
    9.1216   -6.2052   22.5845 H   0  0  0  0  0  0  0  0  0  0  0  0
    9.9270   -6.9299   24.8494 H   0  0  0  0  0  0  0  0  0  0  0  0
    8.5617   -6.2920   26.8789 H   0  0  0  0  0  0  0  0  0  0  0  0
    6.5367   -4.8471   26.4909 H   0  0  0  0  0  0  0  0  0  0  0  0
    5.7304   -3.4028   23.1047 H   0  0  0  0  0  0  0  0  0  0  0  0
    4.9078   -3.8476   24.5808 H   0  0  0  0  0  0  0  0  0  0  0  0
    5.5928   -1.4587   24.6948 H   0  0  0  0  0  0  0  0  0  0  0  0
    6.4289   -2.4025   25.9179 H   0  0  0  0  0  0  0  0  0  0  0  0
    8.0311   -0.8673   24.8318 H   0  0  0  0  0  0  0  0  0  0  0  0
    8.4847   -2.5259   24.5217 H   0  0  0  0  0  0  0  0  0  0  0  0
   10.0083   -3.2520   22.6866 H   0  0  0  0  0  0  0  0  0  0  0  0
   10.1850   -2.7638   20.9863 H   0  0  0  0  0  0  0  0  0  0  0  0
  1  2  1  0
  2  3  1  0
  2  4  1  0
  2  5  1  0
  5  6  1  0
  6  7  1  0
  7  8  2  0
  8  9  1  0
  9 10  2  0
 10 11  1  0
 11 12  2  0
 12 13  1  0
 13 14  2  0
 14 15  1  0
 12 16  1  0
 11 17  1  0
 10 18  1  0
  8 19  1  0
 19 20  2  0
 20 21  1  0
 21 22  1  0
 22 23  1  0
 23 24  1  0
 24 25  2  0
 25 26  1  0
 26 27  2  0
 27 28  1  0
 28 29  2  0
 28 30  1  0
 27 31  1  0
 26 32  1  0
 25 33  1  0
 23 34  1  0
 23 35  1  0
 22 36  1  0
 22 37  1  0
 21 38  1  0
 21 39  1  0
  5 40  1  0
  5 41  1  0
 20  6  1  0
 29 24  1  0
 14  9  1  0
M  END
>  <cnnaffinity>  (1) 
-6.15926

>  <filename>  (1) 
FC(F)(F)Cn1nc(-c2cccnc2)nc1CCCc1ccccn1

$$$$
