
     RDKit          3D

 27 29  0  0  0  0  0  0  0  0999 V2000
    4.9639    1.7892   16.9614 H   0  0  0  0  0  0  0  0  0  0  0  0
    5.4272    1.2969   17.8134 C   0  0  0  0  0  0  0  0  0  0  0  0
    6.5908    0.6689   17.5837 N   0  0  0  0  0  0  0  0  0  0  0  0
    7.1780    0.0531   18.6168 C   0  0  0  0  0  0  0  0  0  0  0  0
    8.1273   -0.4347   18.4098 H   0  0  0  0  0  0  0  0  0  0  0  0
    6.6348    0.0030   19.9210 C   0  0  0  0  0  0  0  0  0  0  0  0
    7.2542   -0.7570   21.0298 C   0  0  0  0  0  0  0  0  0  0  0  0
    6.5869   -1.4700   21.9615 C   0  0  0  0  0  0  0  0  0  0  0  0
    5.5302   -1.6705   21.9690 H   0  0  0  0  0  0  0  0  0  0  0  0
    7.6117   -2.1939   23.1640 S   0  0  0  0  0  0  0  0  0  0  0  0
    9.0049   -1.5559   22.3486 C   0  0  0  0  0  0  0  0  0  0  0  0
   10.3176   -1.6285   22.4566 N   0  0  0  0  0  0  0  0  0  0  0  0
   10.6890   -0.9206   21.3655 C   0  0  0  0  0  0  0  0  0  0  0  0
   11.9630   -0.6977   21.0335 O   0  0  0  0  0  0  0  0  0  0  0  0
   13.0404   -0.8727   21.9531 C   0  0  0  0  0  0  0  0  0  0  0  0
   13.9494   -0.9223   21.3504 H   0  0  0  0  0  0  0  0  0  0  0  0
   12.9327   -1.7964   22.5213 H   0  0  0  0  0  0  0  0  0  0  0  0
   13.3019    0.2615   22.9545 C   0  0  0  0  0  0  0  0  0  0  0  0
   14.5120    0.0356   23.4985 F   0  0  0  0  0  0  0  0  0  0  0  0
   12.4017    0.2760   23.9428 F   0  0  0  0  0  0  0  0  0  0  0  0
   13.3308    1.4716   22.3916 F   0  0  0  0  0  0  0  0  0  0  0  0
    9.7342   -0.4289   20.5862 N   0  0  0  0  0  0  0  0  0  0  0  0
    8.6290   -0.8447   21.2655 N   0  0  0  0  0  0  0  0  0  0  0  0
    5.4162    0.6764   20.1345 C   0  0  0  0  0  0  0  0  0  0  0  0
    4.9654    0.7091   21.1300 H   0  0  0  0  0  0  0  0  0  0  0  0
    4.8093    1.3299   19.0672 C   0  0  0  0  0  0  0  0  0  0  0  0
    3.8729    1.8621   19.1912 H   0  0  0  0  0  0  0  0  0  0  0  0
  1  2  1  0
  2  3  2  0
  3  4  1  0
  4  5  1  0
  4  6  2  0
  6  7  1  0
  7  8  2  0
  8  9  1  0
  8 10  1  0
 10 11  1  0
 11 12  2  0
 12 13  1  0
 13 14  1  0
 14 15  1  0
 15 16  1  0
 15 17  1  0
 15 18  1  0
 18 19  1  0
 18 20  1  0
 18 21  1  0
 13 22  2  0
 22 23  1  0
  6 24  1  0
 24 25  1  0
 24 26  2  0
 26 27  1  0
 26  2  1  0
 23  7  1  0
 23 11  1  0
M  END
>  <cnnaffinity>  (1) 
-5.35377

>  <filename>  (1) 
FC(F)(F)COc1nc2scc(-c3cccnc3)n2n1

$$$$
