
     RDKit          3D

 29 30  0  0  0  0  0  0  0  0999 V2000
    4.9141    1.7901   16.9886 H   0  0  0  0  0  0  0  0  0  0  0  0
    5.3923    1.2988   17.8301 C   0  0  0  0  0  0  0  0  0  0  0  0
    6.5529    0.6838   17.5616 N   0  0  0  0  0  0  0  0  0  0  0  0
    7.1547    0.0586   18.5774 C   0  0  0  0  0  0  0  0  0  0  0  0
    8.1113   -0.4121   18.3634 H   0  0  0  0  0  0  0  0  0  0  0  0
    6.6348   -0.0149   19.8847 C   0  0  0  0  0  0  0  0  0  0  0  0
    7.3991   -0.7184   20.9842 C   0  0  0  0  0  0  0  0  0  0  0  0
    7.8687   -1.6398   20.6148 H   0  0  0  0  0  0  0  0  0  0  0  0
    6.7289   -1.0014   21.8044 H   0  0  0  0  0  0  0  0  0  0  0  0
    8.5124    0.1455   21.5883 C   0  0  0  0  0  0  0  0  0  0  0  0
    9.3985    0.4828   20.5890 F   0  0  0  0  0  0  0  0  0  0  0  0
    9.2335   -0.6423   22.4561 F   0  0  0  0  0  0  0  0  0  0  0  0
    8.0671    1.4168   22.3029 C   0  0  1  0  0  0  0  0  0  0  0  0
    7.4821    1.9993   21.5824 H   0  0  0  0  0  0  0  0  0  0  0  0
    7.1974    1.1410   23.5369 C   0  0  0  0  0  0  0  0  0  0  0  0
    7.4277    0.1534   23.9635 H   0  0  0  0  0  0  0  0  0  0  0  0
    6.1254    1.1242   23.2886 H   0  0  0  0  0  0  0  0  0  0  0  0
    7.5009    2.2060   24.4906 N   0  0  0  0  0  0  0  0  0  0  0  0
    7.7447    1.8124   25.3843 H   0  0  0  0  0  0  0  0  0  0  0  0
    8.5788    3.0615   23.9788 C   0  0  0  0  0  0  0  0  0  0  0  0
    8.1699    4.0227   23.6334 H   0  0  0  0  0  0  0  0  0  0  0  0
    9.2978    3.2931   24.7758 H   0  0  0  0  0  0  0  0  0  0  0  0
    9.2197    2.2868   22.8282 C   0  0  0  0  0  0  0  0  0  0  0  0
   10.0274    1.6472   23.1985 H   0  0  0  0  0  0  0  0  0  0  0  0
    9.6320    2.9456   22.0577 H   0  0  0  0  0  0  0  0  0  0  0  0
    5.4329    0.6499   20.1493 C   0  0  0  0  0  0  0  0  0  0  0  0
    5.0110    0.6365   21.1598 H   0  0  0  0  0  0  0  0  0  0  0  0
    4.7992    1.3171   19.0972 C   0  0  0  0  0  0  0  0  0  0  0  0
    3.8694    1.8483   19.2508 H   0  0  0  0  0  0  0  0  0  0  0  0
  1  2  1  0
  2  3  2  0
  3  4  1  0
  4  5  1  0
  4  6  2  0
  6  7  1  0
  7  8  1  0
  7  9  1  0
  7 10  1  0
 10 11  1  0
 10 12  1  0
 10 13  1  0
 13 14  1  6
 13 15  1  0
 15 16  1  0
 15 17  1  0
 15 18  1  0
 18 19  1  0
 18 20  1  0
 20 21  1  0
 20 22  1  0
 20 23  1  0
 23 24  1  0
 23 25  1  0
  6 26  1  0
 26 27  1  0
 26 28  2  0
 28 29  1  0
 28  2  1  0
 23 13  1  0
M  END
>  <cnnaffinity>  (1) 
-4.5968

>  <filename>  (1) 
FC(F)(Cc1cccnc1)[C@@H]1CCNC1

$$$$
