
     RDKit          3D

 36 38  0  0  0  0  0  0  0  0999 V2000
    4.9242    1.7780   16.9981 H   0  0  0  0  0  0  0  0  0  0  0  0
    5.4076    1.2925   17.8424 C   0  0  0  0  0  0  0  0  0  0  0  0
    6.5686    0.6742   17.5859 N   0  0  0  0  0  0  0  0  0  0  0  0
    7.1664    0.0569   18.6096 C   0  0  0  0  0  0  0  0  0  0  0  0
    8.1116   -0.4296   18.3772 H   0  0  0  0  0  0  0  0  0  0  0  0
    6.6418    0.0073   19.9047 C   0  0  0  0  0  0  0  0  0  0  0  0
    7.4447   -0.6845   20.9716 C   0  0  0  0  0  0  0  0  0  0  0  0
    7.7666   -1.9524   20.5584 F   0  0  0  0  0  0  0  0  0  0  0  0
    6.6752   -0.8726   22.0838 F   0  0  0  0  0  0  0  0  0  0  0  0
    8.7382    0.0335   21.3430 C   0  0  0  0  0  0  0  0  0  0  0  0
    9.2280   -0.5694   22.1148 H   0  0  0  0  0  0  0  0  0  0  0  0
    9.3759    0.0107   20.4561 H   0  0  0  0  0  0  0  0  0  0  0  0
    8.5632    1.4869   21.8222 C   0  0  0  0  0  0  0  0  0  0  0  0
    9.5544    1.9410   21.9397 H   0  0  0  0  0  0  0  0  0  0  0  0
    8.0442    2.0713   21.0533 H   0  0  0  0  0  0  0  0  0  0  0  0
    7.8182    1.5982   23.1332 C   0  0  0  0  0  0  0  0  0  0  0  0
    6.5232    2.1969   23.1946 C   0  0  0  0  0  0  0  0  0  0  0  0
    6.0861    2.5953   22.2800 H   0  0  0  0  0  0  0  0  0  0  0  0
    5.8293    2.2741   24.3815 C   0  0  0  0  0  0  0  0  0  0  0  0
    4.8446    2.7359   24.4245 H   0  0  0  0  0  0  0  0  0  0  0  0
    6.3953    1.7591   25.5870 C   0  0  0  0  0  0  0  0  0  0  0  0
    5.7098    1.8283   26.8383 C   0  0  0  0  0  0  0  0  0  0  0  0
    4.7223    2.2893   26.8573 H   0  0  0  0  0  0  0  0  0  0  0  0
    6.2867    1.3247   27.9838 C   0  0  0  0  0  0  0  0  0  0  0  0
    5.7579    1.3796   28.9329 H   0  0  0  0  0  0  0  0  0  0  0  0
    7.5834    0.7258   27.9349 C   0  0  0  0  0  0  0  0  0  0  0  0
    8.0271    0.3403   28.8509 H   0  0  0  0  0  0  0  0  0  0  0  0
    8.2706    0.6421   26.7463 C   0  0  0  0  0  0  0  0  0  0  0  0
    9.2629    0.1884   26.7029 H   0  0  0  0  0  0  0  0  0  0  0  0
    7.6969    1.1559   25.5413 C   0  0  0  0  0  0  0  0  0  0  0  0
    8.3754    1.0899   24.2900 C   0  0  0  0  0  0  0  0  0  0  0  0
    9.3636    0.6315   24.2702 H   0  0  0  0  0  0  0  0  0  0  0  0
    5.4284    0.6545   20.1637 C   0  0  0  0  0  0  0  0  0  0  0  0
    4.9970    0.6277   21.1681 H   0  0  0  0  0  0  0  0  0  0  0  0
    4.8041    1.3145   19.1059 C   0  0  0  0  0  0  0  0  0  0  0  0
    3.8708    1.8459   19.2556 H   0  0  0  0  0  0  0  0  0  0  0  0
  1  2  1  0
  2  3  2  0
  3  4  1  0
  4  5  1  0
  4  6  2  0
  6  7  1  0
  7  8  1  0
  7  9  1  0
  7 10  1  0
 10 11  1  0
 10 12  1  0
 10 13  1  0
 13 14  1  0
 13 15  1  0
 13 16  1  0
 16 17  2  0
 17 18  1  0
 17 19  1  0
 19 20  1  0
 19 21  2  0
 21 22  1  0
 22 23  1  0
 22 24  2  0
 24 25  1  0
 24 26  1  0
 26 27  1  0
 26 28  2  0
 28 29  1  0
 28 30  1  0
 30 31  2  0
 31 32  1  0
  6 33  1  0
 33 34  1  0
 33 35  2  0
 35 36  1  0
 35  2  1  0
 31 16  1  0
 30 21  1  0
M  END
>  <cnnaffinity>  (1) 
-4.91005

>  <filename>  (1) 
FC(F)(CCc1ccc2ccccc2c1)c1cccnc1

$$$$
