
     RDKit          3D

 40 42  0  0  0  0  0  0  0  0999 V2000
    8.3270    1.2694   23.9903 F   0  0  0  0  0  0  0  0  0  0  0  0
    8.1752    0.6643   25.1792 C   0  0  0  0  0  0  0  0  0  0  0  0
    8.9483    1.3266   26.0618 F   0  0  0  0  0  0  0  0  0  0  0  0
    6.8957    0.8424   25.5668 F   0  0  0  0  0  0  0  0  0  0  0  0
    8.5473   -0.8042   25.1706 C   0  0  0  0  0  0  0  0  0  0  0  0
    7.6453   -1.7076   24.3174 C   0  0  0  0  0  0  0  0  0  0  0  0
    7.7357   -1.4559   22.8873 N   0  0  0  0  0  0  0  0  0  0  0  0
    6.7021   -0.8996   22.2170 N   0  0  0  0  0  0  0  0  0  0  0  0
    7.1968   -0.6825   21.0173 C   0  0  0  0  0  0  0  0  0  0  0  0
    6.4877    0.0146   19.9432 C   0  0  0  0  0  0  0  0  0  0  0  0
    5.2779    0.7143   20.1115 C   0  0  0  0  0  0  0  0  0  0  0  0
    4.7445    1.3674   19.0010 C   0  0  0  0  0  0  0  0  0  0  0  0
    5.4331    1.3010   17.7825 C   0  0  0  0  0  0  0  0  0  0  0  0
    6.5857    0.6365   17.6147 N   0  0  0  0  0  0  0  0  0  0  0  0
    7.0986    0.0195   18.6828 C   0  0  0  0  0  0  0  0  0  0  0  0
    8.0430   -0.5018   18.5368 H   0  0  0  0  0  0  0  0  0  0  0  0
    5.0460    1.8079   16.9020 H   0  0  0  0  0  0  0  0  0  0  0  0
    3.8236    1.9399   19.0620 H   0  0  0  0  0  0  0  0  0  0  0  0
    4.7858    0.7483   21.0878 H   0  0  0  0  0  0  0  0  0  0  0  0
    8.4783   -1.1101   20.8611 N   0  0  0  0  0  0  0  0  0  0  0  0
    8.7987   -1.5688   22.0541 C   0  0  0  0  0  0  0  0  0  0  0  0
   10.1167   -2.1936   22.4131 C   0  0  0  0  0  0  0  0  0  0  0  0
   11.3879   -1.4839   21.8723 C   0  0  0  0  0  0  0  0  0  0  0  0
   11.6300   -0.1460   22.5130 C   0  0  0  0  0  0  0  0  0  0  0  0
   10.9942    0.9143   21.9992 N   0  0  0  0  0  0  0  0  0  0  0  0
   11.0504    2.0378   22.7078 C   0  0  0  0  0  0  0  0  0  0  0  0
   11.7926    2.1615   23.8770 C   0  0  0  0  0  0  0  0  0  0  0  0
   12.4952    1.0302   24.2627 C   0  0  0  0  0  0  0  0  0  0  0  0
   12.3941   -0.1214   23.6058 N   0  0  0  0  0  0  0  0  0  0  0  0
   13.1760    1.0249   25.1125 H   0  0  0  0  0  0  0  0  0  0  0  0
   11.8138    3.0766   24.4499 H   0  0  0  0  0  0  0  0  0  0  0  0
   10.4535    2.8628   22.3278 H   0  0  0  0  0  0  0  0  0  0  0  0
   11.3152   -1.3261   20.7976 H   0  0  0  0  0  0  0  0  0  0  0  0
   12.2541   -2.1191   22.0768 H   0  0  0  0  0  0  0  0  0  0  0  0
   10.0644   -3.2199   22.0480 H   0  0  0  0  0  0  0  0  0  0  0  0
   10.2191   -2.2786   23.4994 H   0  0  0  0  0  0  0  0  0  0  0  0
    6.5920   -1.5722   24.5762 H   0  0  0  0  0  0  0  0  0  0  0  0
    7.8858   -2.7600   24.5154 H   0  0  0  0  0  0  0  0  0  0  0  0
    9.5955   -0.8575   24.8684 H   0  0  0  0  0  0  0  0  0  0  0  0
    8.4919   -1.1287   26.2106 H   0  0  0  0  0  0  0  0  0  0  0  0
  1  2  1  0
  2  3  1  0
  2  4  1  0
  2  5  1  0
  5  6  1  0
  6  7  1  0
  7  8  1  0
  8  9  2  0
  9 10  1  0
 10 11  2  0
 11 12  1  0
 12 13  2  0
 13 14  1  0
 14 15  2  0
 15 16  1  0
 13 17  1  0
 12 18  1  0
 11 19  1  0
  9 20  1  0
 20 21  2  0
 21 22  1  0
 22 23  1  0
 23 24  1  0
 24 25  2  0
 25 26  1  0
 26 27  2  0
 27 28  1  0
 28 29  2  0
 28 30  1  0
 27 31  1  0
 26 32  1  0
 23 33  1  0
 23 34  1  0
 22 35  1  0
 22 36  1  0
  6 37  1  0
  6 38  1  0
  5 39  1  0
  5 40  1  0
 21  7  1  0
 29 24  1  0
 15 10  1  0
M  END
>  <cnnaffinity>  (1) 
-5.96353

>  <filename>  (1) 
FC(F)(F)CCn1nc(-c2cccnc2)nc1CCc1ncccn1

$$$$
