
     RDKit          3D

 29 31  0  0  0  0  0  0  0  0999 V2000
    7.1646    4.1870   21.6127 H   0  0  0  0  0  0  0  0  0  0  0  0
    7.3302    3.3784   22.3252 C   0  0  0  0  0  0  0  0  0  0  0  0
    7.4346    2.1574   21.8155 N   0  0  0  0  0  0  0  0  0  0  0  0
    7.6102    1.1620   22.6924 C   0  0  0  0  0  0  0  0  0  0  0  0
    7.7271   -0.1875   22.1930 C   0  0  0  0  0  0  0  0  0  0  0  0
    8.2484   -1.2496   22.8634 C   0  0  0  0  0  0  0  0  0  0  0  0
    8.6212   -1.2704   23.8888 H   0  0  0  0  0  0  0  0  0  0  0  0
    8.2062   -2.3693   22.0772 N   0  0  0  0  0  0  0  0  0  0  0  0
    7.6415   -1.9961   20.9599 C   0  0  0  0  0  0  0  0  0  0  0  0
    7.3151   -2.6276   20.1502 H   0  0  0  0  0  0  0  0  0  0  0  0
    7.3360   -0.6653   20.9404 N   0  0  0  0  0  0  0  0  0  0  0  0
    6.6340    0.0097   19.8914 C   0  0  0  0  0  0  0  0  0  0  0  0
    7.1672    0.0690   18.5931 C   0  0  0  0  0  0  0  0  0  0  0  0
    8.1309   -0.3923   18.3700 H   0  0  0  0  0  0  0  0  0  0  0  0
    6.5615    0.6907   17.5770 N   0  0  0  0  0  0  0  0  0  0  0  0
    5.3879    1.2965   17.8188 C   0  0  0  0  0  0  0  0  0  0  0  0
    4.9337    1.8138   16.9766 H   0  0  0  0  0  0  0  0  0  0  0  0
    4.7763    1.2900   19.0740 C   0  0  0  0  0  0  0  0  0  0  0  0
    3.8574    1.8419   19.2337 H   0  0  0  0  0  0  0  0  0  0  0  0
    5.4005    0.6235   20.1301 C   0  0  0  0  0  0  0  0  0  0  0  0
    4.9834    0.6337   21.1352 H   0  0  0  0  0  0  0  0  0  0  0  0
    7.7284    1.2893   24.0207 N   0  0  0  0  0  0  0  0  0  0  0  0
    7.6266    2.5159   24.5365 C   0  0  0  0  0  0  0  0  0  0  0  0
    7.7612    2.7215   26.0773 C   0  0  0  0  0  0  0  0  0  0  0  0
    8.8081    3.5310   26.3493 F   0  0  0  0  0  0  0  0  0  0  0  0
    6.6602    3.3273   26.5726 F   0  0  0  0  0  0  0  0  0  0  0  0
    7.9385    1.5972   26.7734 F   0  0  0  0  0  0  0  0  0  0  0  0
    7.4208    3.6204   23.6969 C   0  0  0  0  0  0  0  0  0  0  0  0
    7.3486    4.6235   24.0769 H   0  0  0  0  0  0  0  0  0  0  0  0
  1  2  1  0
  2  3  2  0
  3  4  1  0
  4  5  1  0
  5  6  2  0
  6  7  1  0
  6  8  1  0
  8  9  2  0
  9 10  1  0
  9 11  1  0
 11 12  1  0
 12 13  2  0
 13 14  1  0
 13 15  1  0
 15 16  2  0
 16 17  1  0
 16 18  1  0
 18 19  1  0
 18 20  2  0
 20 21  1  0
  4 22  2  0
 22 23  1  0
 23 24  1  0
 24 25  1  0
 24 26  1  0
 24 27  1  0
 23 28  2  0
 28 29  1  0
 28  2  1  0
 11  5  1  0
 20 12  1  0
M  END
>  <cnnaffinity>  (1) 
-5.16032

>  <filename>  (1) 
FC(F)(F)c1ccnc(-c2cncn2-c2cccnc2)n1

$$$$
