
     RDKit          3D

 40 43  0  0  0  0  0  0  0  0999 V2000
   11.8109    1.3187   24.2501 F   0  0  0  0  0  0  0  0  0  0  0  0
   12.2706    1.1391   23.0003 C   0  0  0  0  0  0  0  0  0  0  0  0
   12.3304   -0.1768   22.7658 F   0  0  0  0  0  0  0  0  0  0  0  0
   13.5311    1.6112   22.9615 F   0  0  0  0  0  0  0  0  0  0  0  0
   11.4235    1.8993   21.9825 C   0  0  0  0  0  0  0  0  0  0  0  0
   10.0214    1.5238   21.9916 N   0  0  0  0  0  0  0  0  0  0  0  0
    9.6101    0.5256   21.1810 N   0  0  0  0  0  0  0  0  0  0  0  0
    8.3789    0.2898   21.5773 C   0  0  0  0  0  0  0  0  0  0  0  0
    7.4620   -0.6955   20.9227 C   0  0  0  0  0  0  0  0  0  0  0  0
    6.6541   -0.0661   19.7997 C   0  0  0  0  0  0  0  0  0  0  0  0
    5.4596    0.6059   20.0819 C   0  0  0  0  0  0  0  0  0  0  0  0
    4.8160    1.2966   19.0534 C   0  0  0  0  0  0  0  0  0  0  0  0
    5.3976    1.3052   17.7824 C   0  0  0  0  0  0  0  0  0  0  0  0
    6.5369    0.6616   17.4879 N   0  0  0  0  0  0  0  0  0  0  0  0
    7.1397   -0.0011   18.4829 C   0  0  0  0  0  0  0  0  0  0  0  0
    8.0788   -0.4933   18.2270 H   0  0  0  0  0  0  0  0  0  0  0  0
    4.9278    1.8510   16.9643 H   0  0  0  0  0  0  0  0  0  0  0  0
    3.8943    1.8363   19.2266 H   0  0  0  0  0  0  0  0  0  0  0  0
    5.0587    0.6114   21.0997 H   0  0  0  0  0  0  0  0  0  0  0  0
    6.7935   -1.0647   21.7061 H   0  0  0  0  0  0  0  0  0  0  0  0
    8.0609   -1.5377   20.5650 H   0  0  0  0  0  0  0  0  0  0  0  0
    7.9750    1.0407   22.6266 N   0  0  0  0  0  0  0  0  0  0  0  0
    9.0228    1.8227   22.8716 C   0  0  0  0  0  0  0  0  0  0  0  0
    9.1731    2.8878   23.9127 C   0  0  0  0  0  0  0  0  0  0  0  0
    9.7820    4.0130   23.5660 N   0  0  0  0  0  0  0  0  0  0  0  0
    9.7287    5.0864   24.3916 C   0  0  0  0  0  0  0  0  0  0  0  0
    9.1068    5.0652   25.6211 C   0  0  0  0  0  0  0  0  0  0  0  0
    8.5593    3.8395   26.0890 C   0  0  0  0  0  0  0  0  0  0  0  0
    7.9625    3.6303   27.3581 C   0  0  0  0  0  0  0  0  0  0  0  0
    7.7012    2.3483   27.7864 C   0  0  0  0  0  0  0  0  0  0  0  0
    7.9202    1.2458   27.0307 N   0  0  0  0  0  0  0  0  0  0  0  0
    8.3938    1.4266   25.8179 C   0  0  0  0  0  0  0  0  0  0  0  0
    8.6804    2.7005   25.2504 C   0  0  0  0  0  0  0  0  0  0  0  0
    8.5388    0.5502   25.1861 H   0  0  0  0  0  0  0  0  0  0  0  0
    7.3221    2.1628   28.7936 H   0  0  0  0  0  0  0  0  0  0  0  0
    7.7861    4.4504   28.0379 H   0  0  0  0  0  0  0  0  0  0  0  0
    9.0982    5.9552   26.2373 H   0  0  0  0  0  0  0  0  0  0  0  0
   10.2242    5.9783   24.0092 H   0  0  0  0  0  0  0  0  0  0  0  0
   11.5065    2.9636   22.2008 H   0  0  0  0  0  0  0  0  0  0  0  0
   11.8181    1.6860   20.9875 H   0  0  0  0  0  0  0  0  0  0  0  0
  1  2  1  0
  2  3  1  0
  2  4  1  0
  2  5  1  0
  5  6  1  0
  6  7  1  0
  7  8  2  0
  8  9  1  0
  9 10  1  0
 10 11  2  0
 11 12  1  0
 12 13  2  0
 13 14  1  0
 14 15  2  0
 15 16  1  0
 13 17  1  0
 12 18  1  0
 11 19  1  0
  9 20  1  0
  9 21  1  0
  8 22  1  0
 22 23  2  0
 23 24  1  0
 24 25  2  0
 25 26  1  0
 26 27  2  0
 27 28  1  0
 28 29  2  0
 29 30  1  0
 30 31  2  0
 31 32  1  0
 32 33  2  0
 32 34  1  0
 30 35  1  0
 29 36  1  0
 27 37  1  0
 26 38  1  0
  5 39  1  0
  5 40  1  0
 23  6  1  0
 33 24  1  0
 15 10  1  0
 33 28  1  0
M  END
>  <cnnaffinity>  (1) 
-6.20394

>  <filename>  (1) 
FC(F)(F)Cn1nc(Cc2cccnc2)nc1-c1nccc2ccncc12

$$$$
