
     RDKit          3D

 38 41  0  0  0  0  0  0  0  0999 V2000
   11.2964   -4.0494   23.9237 F   0  0  0  0  0  0  0  0  0  0  0  0
   10.2028   -3.2882   23.7555 C   0  0  0  0  0  0  0  0  0  0  0  0
   10.6092   -2.0016   23.7318 F   0  0  0  0  0  0  0  0  0  0  0  0
    9.6961   -3.5549   22.5434 F   0  0  0  0  0  0  0  0  0  0  0  0
    9.2056   -3.5416   24.8352 C   0  0  0  0  0  0  0  0  0  0  0  0
    9.4017   -4.3155   25.9710 C   0  0  0  0  0  0  0  0  0  0  0  0
    8.3113   -4.4238   26.8583 C   0  0  0  0  0  0  0  0  0  0  0  0
    7.1408   -3.8374   26.6240 N   0  0  0  0  0  0  0  0  0  0  0  0
    6.9503   -3.1102   25.4976 N   0  0  0  0  0  0  0  0  0  0  0  0
    7.9339   -2.9540   24.6232 C   0  0  0  0  0  0  0  0  0  0  0  0
    7.7229   -2.2115   23.4553 N   0  0  0  0  0  0  0  0  0  0  0  0
    6.7194   -2.6992   22.5070 C   0  0  0  0  0  0  0  0  0  0  0  0
    7.1100   -2.2530   21.0844 C   0  0  0  0  0  0  0  0  0  0  0  0
    7.4105   -0.7512   20.9785 C   0  0  0  0  0  0  0  0  0  0  0  0
    6.6607   -0.0005   19.9045 C   0  0  0  0  0  0  0  0  0  0  0  0
    5.4360    0.6415   20.1405 C   0  0  0  0  0  0  0  0  0  0  0  0
    4.7904    1.3037   19.0889 C   0  0  0  0  0  0  0  0  0  0  0  0
    5.3873    1.2944   17.8233 C   0  0  0  0  0  0  0  0  0  0  0  0
    6.5464    0.6721   17.5635 N   0  0  0  0  0  0  0  0  0  0  0  0
    7.1535    0.0546   18.5873 C   0  0  0  0  0  0  0  0  0  0  0  0
    8.1061   -0.4205   18.3549 H   0  0  0  0  0  0  0  0  0  0  0  0
    4.9242    1.8106   16.9815 H   0  0  0  0  0  0  0  0  0  0  0  0
    3.8610    1.8453   19.2370 H   0  0  0  0  0  0  0  0  0  0  0  0
    5.0192    0.6318   21.1482 H   0  0  0  0  0  0  0  0  0  0  0  0
    8.8361   -0.3201   21.2630 C   0  0  0  0  0  0  0  0  0  0  0  0
    7.7463   -0.0309   22.2708 C   0  0  0  0  0  0  0  0  0  0  0  0
    7.7579   -0.7569   23.6102 C   0  0  0  0  0  0  0  0  0  0  0  0
    8.6808   -0.4683   24.1358 H   0  0  0  0  0  0  0  0  0  0  0  0
    6.9130   -0.4160   24.2333 H   0  0  0  0  0  0  0  0  0  0  0  0
    7.3960    0.9958   22.3703 H   0  0  0  0  0  0  0  0  0  0  0  0
    9.2542    0.4986   20.6790 H   0  0  0  0  0  0  0  0  0  0  0  0
    9.5597   -1.0965   21.5188 H   0  0  0  0  0  0  0  0  0  0  0  0
    8.0127   -2.8135   20.8131 H   0  0  0  0  0  0  0  0  0  0  0  0
    6.3162   -2.5253   20.3803 H   0  0  0  0  0  0  0  0  0  0  0  0
    5.7195   -2.3317   22.7865 H   0  0  0  0  0  0  0  0  0  0  0  0
    6.6863   -3.7947   22.5367 H   0  0  0  0  0  0  0  0  0  0  0  0
    8.3683   -4.9877   27.7825 H   0  0  0  0  0  0  0  0  0  0  0  0
   10.3430   -4.8288   26.1677 H   0  0  0  0  0  0  0  0  0  0  0  0
  1  2  1  0
  2  3  1  0
  2  4  1  0
  2  5  1  0
  5  6  2  0
  6  7  1  0
  7  8  2  0
  8  9  1  0
  9 10  2  0
 10 11  1  0
 11 12  1  0
 12 13  1  0
 13 14  1  0
 14 15  1  0
 15 16  2  0
 16 17  1  0
 17 18  2  0
 18 19  1  0
 19 20  2  0
 20 21  1  0
 18 22  1  0
 17 23  1  0
 16 24  1  0
 14 25  1  0
 25 26  1  0
 26 27  1  0
 27 28  1  0
 27 29  1  0
 26 30  1  0
 25 31  1  0
 25 32  1  0
 13 33  1  0
 13 34  1  0
 12 35  1  0
 12 36  1  0
  7 37  1  0
  6 38  1  0
 10  5  1  0
 27 11  1  0
 26 14  1  0
 20 15  1  0
M  END
>  <cnnaffinity>  (1) 
-5.44111

>  <filename>  (1) 
FC(F)(F)c1ccnnc1N1CCC2(c3cccnc3)CC2C1

$$$$
