
     RDKit          3D

 41 44  0  0  0  0  0  0  0  0999 V2000
   10.9180   -0.9867   23.6022 F   0  0  0  0  0  0  0  0  0  0  0  0
   11.1090   -1.5241   22.3766 C   0  0  0  0  0  0  0  0  0  0  0  0
   11.3029   -0.5286   21.5061 F   0  0  0  0  0  0  0  0  0  0  0  0
   12.2336   -2.2614   22.4099 F   0  0  0  0  0  0  0  0  0  0  0  0
    9.9611   -2.4400   22.0004 C   0  0  0  0  0  0  0  0  0  0  0  0
    8.6709   -1.7800   21.9547 N   0  0  0  0  0  0  0  0  0  0  0  0
    8.3633   -1.2285   20.7671 N   0  0  0  0  0  0  0  0  0  0  0  0
    7.1917   -0.6666   20.9765 C   0  0  0  0  0  0  0  0  0  0  0  0
    6.5039    0.0469   19.9066 C   0  0  0  0  0  0  0  0  0  0  0  0
    5.2957    0.7345   20.0854 C   0  0  0  0  0  0  0  0  0  0  0  0
    4.7503    1.3813   18.9783 C   0  0  0  0  0  0  0  0  0  0  0  0
    5.4275    1.3251   17.7551 C   0  0  0  0  0  0  0  0  0  0  0  0
    6.5848    0.6714   17.5777 N   0  0  0  0  0  0  0  0  0  0  0  0
    7.1071    0.0518   18.6373 C   0  0  0  0  0  0  0  0  0  0  0  0
    8.0537   -0.4634   18.4659 H   0  0  0  0  0  0  0  0  0  0  0  0
    5.0221    1.8248   16.8783 H   0  0  0  0  0  0  0  0  0  0  0  0
    3.8220    1.9360   19.0488 H   0  0  0  0  0  0  0  0  0  0  0  0
    4.8129    0.7731   21.0652 H   0  0  0  0  0  0  0  0  0  0  0  0
    6.7372   -0.8038   22.2438 N   0  0  0  0  0  0  0  0  0  0  0  0
    7.6900   -1.4839   22.8648 C   0  0  0  0  0  0  0  0  0  0  0  0
    7.7702   -1.8716   24.3335 C   0  0  0  0  0  0  0  0  0  0  0  0
    7.8531   -0.6637   25.3026 C   0  0  0  0  0  0  0  0  0  0  0  0
    6.5604    0.1615   25.2817 C   0  0  0  0  0  0  0  0  0  0  0  0
    5.2989   -0.6634   25.3467 C   0  0  0  0  0  0  0  0  0  0  0  0
    4.1631    0.0100   25.5937 N   0  0  0  0  0  0  0  0  0  0  0  0
    3.0353   -0.6883   25.5717 C   0  0  0  0  0  0  0  0  0  0  0  0
    2.9194   -2.0044   25.3789 N   0  0  0  0  0  0  0  0  0  0  0  0
    4.0656   -2.6578   25.1775 C   0  0  0  0  0  0  0  0  0  0  0  0
    5.3175   -2.0430   25.1073 C   0  0  0  0  0  0  0  0  0  0  0  0
    6.6080   -2.7888   24.8029 C   0  0  0  0  0  0  0  0  0  0  0  0
    6.4329   -3.5643   24.0519 H   0  0  0  0  0  0  0  0  0  0  0  0
    6.9343   -3.3164   25.7117 H   0  0  0  0  0  0  0  0  0  0  0  0
    3.9653   -3.7407   25.0708 H   0  0  0  0  0  0  0  0  0  0  0  0
    2.1103   -0.1324   25.7172 H   0  0  0  0  0  0  0  0  0  0  0  0
    6.5067    0.7139   24.3365 H   0  0  0  0  0  0  0  0  0  0  0  0
    6.5321    0.9029   26.0856 H   0  0  0  0  0  0  0  0  0  0  0  0
    8.7201   -0.0314   25.0689 H   0  0  0  0  0  0  0  0  0  0  0  0
    8.0283   -1.0559   26.3155 H   0  0  0  0  0  0  0  0  0  0  0  0
    8.7027   -2.4372   24.4465 H   0  0  0  0  0  0  0  0  0  0  0  0
   10.1450   -2.7826   20.9819 H   0  0  0  0  0  0  0  0  0  0  0  0
    9.9607   -3.3011   22.6681 H   0  0  0  0  0  0  0  0  0  0  0  0
  1  2  1  0
  2  3  1  0
  2  4  1  0
  2  5  1  0
  5  6  1  0
  6  7  1  0
  7  8  2  0
  8  9  1  0
  9 10  2  0
 10 11  1  0
 11 12  2  0
 12 13  1  0
 13 14  2  0
 14 15  1  0
 12 16  1  0
 11 17  1  0
 10 18  1  0
  8 19  1  0
 19 20  2  0
 20 21  1  0
 21 22  1  0
 22 23  1  0
 23 24  1  0
 24 25  2  0
 25 26  1  0
 26 27  2  0
 27 28  1  0
 28 29  2  0
 29 30  1  0
 30 31  1  0
 30 32  1  0
 28 33  1  0
 26 34  1  0
 23 35  1  0
 23 36  1  0
 22 37  1  0
 22 38  1  0
 21 39  1  0
  5 40  1  0
  5 41  1  0
 20  6  1  0
 30 21  1  0
 14  9  1  0
 29 24  1  0
M  END
>  <cnnaffinity>  (1) 
-6.31986

>  <filename>  (1) 
FC(F)(F)Cn1nc(-c2cccnc2)nc1C1CCc2ncncc2C1

$$$$
