
     RDKit          3D

 42 45  0  0  0  0  0  0  0  0999 V2000
    8.9752    5.5553   23.4699 F   0  0  0  0  0  0  0  0  0  0  0  0
    7.8685    4.7753   23.3037 C   0  0  0  0  0  0  0  0  0  0  0  0
    6.8065    5.5717   23.3776 F   0  0  0  0  0  0  0  0  0  0  0  0
    7.7581    3.8644   24.3175 O   0  0  0  0  0  0  0  0  0  0  0  0
    8.6869    2.7787   24.3776 C   0  0  0  0  0  0  0  0  0  0  0  0
    8.6697    1.8411   23.1958 C   0  0  0  0  0  0  0  0  0  0  0  0
    7.7148    0.9760   22.8874 N   0  0  0  0  0  0  0  0  0  0  0  0
    8.1593    0.4259   21.7318 C   0  0  0  0  0  0  0  0  0  0  0  0
    7.4442   -0.6172   20.9274 C   0  0  0  0  0  0  0  0  0  0  0  0
    6.6706   -0.0177   19.7632 C   0  0  0  0  0  0  0  0  0  0  0  0
    5.4848    0.6779   20.0273 C   0  0  0  0  0  0  0  0  0  0  0  0
    4.8374    1.3296   18.9774 C   0  0  0  0  0  0  0  0  0  0  0  0
    5.4069    1.2723   17.7018 C   0  0  0  0  0  0  0  0  0  0  0  0
    6.5285    0.5921   17.4197 N   0  0  0  0  0  0  0  0  0  0  0  0
    7.1331   -0.0370   18.4363 C   0  0  0  0  0  0  0  0  0  0  0  0
    8.0488   -0.5778   18.1913 H   0  0  0  0  0  0  0  0  0  0  0  0
    4.9448    1.7945   16.8668 H   0  0  0  0  0  0  0  0  0  0  0  0
    3.9227    1.8900   19.1354 H   0  0  0  0  0  0  0  0  0  0  0  0
    5.0951    0.7144   21.0473 H   0  0  0  0  0  0  0  0  0  0  0  0
    8.1999   -1.3265   20.5756 H   0  0  0  0  0  0  0  0  0  0  0  0
    6.7733   -1.1490   21.6071 H   0  0  0  0  0  0  0  0  0  0  0  0
    9.3270    0.8722   21.3155 N   0  0  0  0  0  0  0  0  0  0  0  0
    9.6689    1.7736   22.2733 N   0  0  0  0  0  0  0  0  0  0  0  0
   10.9949    2.2857   22.3755 C   0  0  0  0  0  0  0  0  0  0  0  0
   11.2081    3.6447   22.4611 C   0  0  0  0  0  0  0  0  0  0  0  0
   12.5208    4.1707   22.5622 C   0  0  0  0  0  0  0  0  0  0  0  0
   13.5961    3.3167   22.6117 C   0  0  0  0  0  0  0  0  0  0  0  0
   13.4047    1.9090   22.5654 C   0  0  0  0  0  0  0  0  0  0  0  0
   14.4941    0.9989   22.5991 C   0  0  0  0  0  0  0  0  0  0  0  0
   14.2529   -0.3472   22.6353 C   0  0  0  0  0  0  0  0  0  0  0  0
   13.0113   -0.8883   22.5481 N   0  0  0  0  0  0  0  0  0  0  0  0
   11.9848   -0.0675   22.4528 C   0  0  0  0  0  0  0  0  0  0  0  0
   12.0914    1.3654   22.4488 C   0  0  0  0  0  0  0  0  0  0  0  0
   11.0000   -0.5258   22.4097 H   0  0  0  0  0  0  0  0  0  0  0  0
   15.0562   -1.0688   22.7440 H   0  0  0  0  0  0  0  0  0  0  0  0
   15.4935    1.4106   22.5476 H   0  0  0  0  0  0  0  0  0  0  0  0
   14.6134    3.6850   22.6769 H   0  0  0  0  0  0  0  0  0  0  0  0
   12.6792    5.2454   22.5872 H   0  0  0  0  0  0  0  0  0  0  0  0
   10.3655    4.3277   22.4345 H   0  0  0  0  0  0  0  0  0  0  0  0
    9.7062    3.1434   24.5630 H   0  0  0  0  0  0  0  0  0  0  0  0
    8.3715    2.2198   25.2630 H   0  0  0  0  0  0  0  0  0  0  0  0
    7.9152    4.3026   22.3083 H   0  0  0  0  0  0  0  0  0  0  0  0
  1  2  1  0
  2  3  1  0
  2  4  1  0
  4  5  1  0
  5  6  1  0
  6  7  2  0
  7  8  1  0
  8  9  1  0
  9 10  1  0
 10 11  2  0
 11 12  1  0
 12 13  2  0
 13 14  1  0
 14 15  2  0
 15 16  1  0
 13 17  1  0
 12 18  1  0
 11 19  1  0
  9 20  1  0
  9 21  1  0
  8 22  2  0
 22 23  1  0
 23 24  1  0
 24 25  2  0
 25 26  1  0
 26 27  2  0
 27 28  1  0
 28 29  2  0
 29 30  1  0
 30 31  2  0
 31 32  1  0
 32 33  2  0
 32 34  1  0
 30 35  1  0
 29 36  1  0
 27 37  1  0
 26 38  1  0
 25 39  1  0
  5 40  1  0
  5 41  1  0
  2 42  1  0
 23  6  1  0
 33 24  1  0
 15 10  1  0
 33 28  1  0
M  END
>  <cnnaffinity>  (1) 
-6.22211

>  <filename>  (1) 
FC(F)OCc1nc(Cc2cccnc2)nn1-c1cccc2ccncc12

$$$$
