
     RDKit          3D

 39 42  0  0  0  0  0  0  0  0999 V2000
   11.1981    2.0843   20.7835 H   0  0  0  0  0  0  0  0  0  0  0  0
   10.3094    1.9053   21.3803 C   0  0  0  0  0  0  0  0  0  0  0  0
    9.5364    0.8971   20.9885 N   0  0  0  0  0  0  0  0  0  0  0  0
    8.4350    0.6494   21.7257 C   0  0  0  0  0  0  0  0  0  0  0  0
    7.5030   -0.4490   21.1611 C   0  0  1  0  0  0  0  0  0  0  0  0
    6.6723    0.1729   20.0032 C   0  0  0  0  0  0  0  0  0  0  0  0
    7.1889    0.1725   18.6843 C   0  0  0  0  0  0  0  0  0  0  0  0
    8.1616   -0.2865   18.4883 H   0  0  0  0  0  0  0  0  0  0  0  0
    6.5967    0.7218   17.6238 N   0  0  0  0  0  0  0  0  0  0  0  0
    5.4141    1.3169   17.8367 C   0  0  0  0  0  0  0  0  0  0  0  0
    4.9463    1.7484   16.9581 H   0  0  0  0  0  0  0  0  0  0  0  0
    4.7973    1.3856   19.0896 C   0  0  0  0  0  0  0  0  0  0  0  0
    3.8423    1.8883   19.1840 H   0  0  0  0  0  0  0  0  0  0  0  0
    5.4409    0.8141   20.1972 C   0  0  0  0  0  0  0  0  0  0  0  0
    4.9788    0.8522   21.1869 H   0  0  0  0  0  0  0  0  0  0  0  0
    8.3654   -1.6747   20.6560 C   0  0  0  0  0  0  0  0  0  0  0  0
    7.9323   -1.8924   19.6884 H   0  0  0  0  0  0  0  0  0  0  0  0
    9.4217   -1.4190   20.5386 H   0  0  0  0  0  0  0  0  0  0  0  0
    8.1139   -2.8310   21.6442 C   0  0  2  0  0  0  0  0  0  0  0  0
    8.9507   -3.5254   21.7379 H   0  0  0  0  0  0  0  0  0  0  0  0
    6.7723   -3.4963   21.2783 C   0  0  0  0  0  0  0  0  0  0  0  0
    6.7191   -3.8552   20.2439 H   0  0  0  0  0  0  0  0  0  0  0  0
    6.5696   -4.3646   21.9216 H   0  0  0  0  0  0  0  0  0  0  0  0
    5.7789   -2.3287   21.5567 C   0  0  0  0  0  0  0  0  0  0  0  0
    5.3635   -1.9490   20.6192 H   0  0  0  0  0  0  0  0  0  0  0  0
    4.9513   -2.6743   22.1783 H   0  0  0  0  0  0  0  0  0  0  0  0
    6.6580   -1.2276   22.2433 C   0  0  1  0  0  0  0  0  0  0  0  0
    6.1204   -0.5512   22.9128 H   0  0  0  0  0  0  0  0  0  0  0  0
    7.7236   -2.0938   22.9350 C   0  0  0  0  0  0  0  0  0  0  0  0
    7.3145   -2.7593   23.7102 H   0  0  0  0  0  0  0  0  0  0  0  0
    8.5253   -1.5068   23.3995 H   0  0  0  0  0  0  0  0  0  0  0  0
    8.0896    1.3203   22.8246 N   0  0  0  0  0  0  0  0  0  0  0  0
    8.8593    2.3580   23.2002 C   0  0  0  0  0  0  0  0  0  0  0  0
    8.4445    3.2162   24.4282 C   0  0  0  0  0  0  0  0  0  0  0  0
    7.3191    2.8187   25.0282 F   0  0  0  0  0  0  0  0  0  0  0  0
    9.4212    3.2213   25.3606 F   0  0  0  0  0  0  0  0  0  0  0  0
    8.2772    4.5059   24.0589 F   0  0  0  0  0  0  0  0  0  0  0  0
   10.0120    2.6899   22.4860 C   0  0  0  0  0  0  0  0  0  0  0  0
   10.6359    3.5292   22.7479 H   0  0  0  0  0  0  0  0  0  0  0  0
  1  2  1  0
  2  3  2  0
  3  4  1  0
  5  4  1  1
  5  6  1  0
  6  7  2  0
  7  8  1  0
  7  9  1  0
  9 10  2  0
 10 11  1  0
 10 12  1  0
 12 13  1  0
 12 14  2  0
 14 15  1  0
  5 16  1  0
 16 17  1  0
 16 18  1  0
 16 19  1  0
 19 20  1  1
 19 21  1  0
 21 22  1  0
 21 23  1  0
 21 24  1  0
 24 25  1  0
 24 26  1  0
 24 27  1  0
 27 28  1  1
 27 29  1  0
 29 30  1  0
 29 31  1  0
  4 32  2  0
 32 33  1  0
 33 34  1  0
 34 35  1  0
 34 36  1  0
 34 37  1  0
 33 38  2  0
 38 39  1  0
 38  2  1  0
 27  5  1  0
 14  6  1  0
 29 19  1  0
M  END
>  <cnnaffinity>  (1) 
-5.11239

>  <filename>  (1) 
FC(F)(F)c1ccnc([C@@]2(c3cccnc3)C[C@@H]3CC[C@H]2C3)n1

$$$$
