
     RDKit          3D

 34 36  0  0  0  0  0  0  0  0999 V2000
    6.6928   -1.3660   21.6053 H   0  0  0  0  0  0  0  0  0  0  0  0
    7.3210   -0.7074   21.0002 C   0  0  0  0  0  0  0  0  0  0  0  0
    8.6057   -0.5229   21.3402 C   0  0  0  0  0  0  0  0  0  0  0  0
    9.3744   -1.1558   22.4185 C   0  0  0  0  0  0  0  0  0  0  0  0
    8.8890   -2.3656   23.1852 C   0  0  0  0  0  0  0  0  0  0  0  0
    7.9751   -3.1778   22.6263 N   0  0  0  0  0  0  0  0  0  0  0  0
    7.5970   -4.2876   23.2804 C   0  0  0  0  0  0  0  0  0  0  0  0
    6.5606   -5.2159   22.6099 C   0  0  0  0  0  0  0  0  0  0  0  0
    5.4791   -5.3866   23.4012 F   0  0  0  0  0  0  0  0  0  0  0  0
    7.0712   -6.4523   22.4204 F   0  0  0  0  0  0  0  0  0  0  0  0
    6.1156   -4.7865   21.4244 F   0  0  0  0  0  0  0  0  0  0  0  0
    8.0981   -4.6328   24.5482 C   0  0  0  0  0  0  0  0  0  0  0  0
    7.7624   -5.5337   25.0538 H   0  0  0  0  0  0  0  0  0  0  0  0
    9.0336   -3.7826   25.1416 C   0  0  0  0  0  0  0  0  0  0  0  0
    9.4520   -4.0168   26.1193 H   0  0  0  0  0  0  0  0  0  0  0  0
    9.4306   -2.6377   24.4567 C   0  0  0  0  0  0  0  0  0  0  0  0
   10.1631   -1.9529   24.8623 H   0  0  0  0  0  0  0  0  0  0  0  0
   10.4872   -0.5658   22.6831 N   0  0  0  0  0  0  0  0  0  0  0  0
   10.6848    0.5453   21.7538 C   0  0  0  0  0  0  0  0  0  0  0  0
   10.7173    1.4771   22.3244 H   0  0  0  0  0  0  0  0  0  0  0  0
   11.6513    0.4287   21.2614 H   0  0  0  0  0  0  0  0  0  0  0  0
    9.4968    0.5460   20.7664 C   0  0  0  0  0  0  0  0  0  0  0  0
    9.7455    0.2388   19.7517 H   0  0  0  0  0  0  0  0  0  0  0  0
    8.9993    1.5169   20.6870 H   0  0  0  0  0  0  0  0  0  0  0  0
    6.6452   -0.0053   19.8982 C   0  0  0  0  0  0  0  0  0  0  0  0
    7.1671    0.0696   18.5891 C   0  0  0  0  0  0  0  0  0  0  0  0
    8.1097   -0.4288   18.3744 H   0  0  0  0  0  0  0  0  0  0  0  0
    6.5637    0.6864   17.5667 N   0  0  0  0  0  0  0  0  0  0  0  0
    5.4009    1.2988   17.8336 C   0  0  0  0  0  0  0  0  0  0  0  0
    4.9140    1.7842   16.9924 H   0  0  0  0  0  0  0  0  0  0  0  0
    4.7996    1.3146   19.1000 C   0  0  0  0  0  0  0  0  0  0  0  0
    3.8675    1.8489   19.2561 H   0  0  0  0  0  0  0  0  0  0  0  0
    5.4211    0.6389   20.1467 C   0  0  0  0  0  0  0  0  0  0  0  0
    5.0064    0.6244   21.1588 H   0  0  0  0  0  0  0  0  0  0  0  0
  1  2  1  0
  2  3  2  3
  3  4  1  0
  4  5  1  0
  5  6  2  0
  6  7  1  0
  7  8  1  0
  8  9  1  0
  8 10  1  0
  8 11  1  0
  7 12  2  0
 12 13  1  0
 12 14  1  0
 14 15  1  0
 14 16  2  0
 16 17  1  0
  4 18  2  0
 18 19  1  0
 19 20  1  0
 19 21  1  0
 19 22  1  0
 22 23  1  0
 22 24  1  0
  2 25  1  0
 25 26  2  0
 26 27  1  0
 26 28  1  0
 28 29  2  0
 29 30  1  0
 29 31  1  0
 31 32  1  0
 31 33  2  0
 33 34  1  0
 22  3  1  0
 33 25  1  0
 16  5  1  0
M  END
>  <cnnaffinity>  (1) 
-5.96454

>  <filename>  (1) 
FC(F)(F)c1cccc(C2=NCCC2=Cc2cccnc2)n1

$$$$
