
     RDKit          3D

 38 40  0  0  0  0  0  0  0  0999 V2000
    4.9198    1.8099   16.9725 H   0  0  0  0  0  0  0  0  0  0  0  0
    5.3873    1.3030   17.8111 C   0  0  0  0  0  0  0  0  0  0  0  0
    6.5516    0.6846   17.5550 N   0  0  0  0  0  0  0  0  0  0  0  0
    7.1726    0.0704   18.5728 C   0  0  0  0  0  0  0  0  0  0  0  0
    8.1213   -0.4093   18.3420 H   0  0  0  0  0  0  0  0  0  0  0  0
    6.6654    0.0074   19.8956 C   0  0  0  0  0  0  0  0  0  0  0  0
    7.3292   -0.6229   20.9676 N   0  0  0  0  0  0  0  0  0  0  0  0
    6.7106   -1.7596   21.6415 C   0  0  0  0  0  0  0  0  0  0  0  0
    7.0577   -2.7155   21.1994 H   0  0  0  0  0  0  0  0  0  0  0  0
    5.6253   -1.7186   21.4890 H   0  0  0  0  0  0  0  0  0  0  0  0
    7.0426   -1.7416   23.1365 C   0  0  0  0  0  0  0  0  0  0  0  0
    6.6174   -2.6302   23.6229 H   0  0  0  0  0  0  0  0  0  0  0  0
    6.5769   -0.8605   23.6043 H   0  0  0  0  0  0  0  0  0  0  0  0
    8.5748   -1.6811   23.3627 C   0  0  0  0  0  0  0  0  0  0  0  0
    9.0338   -2.5855   22.9512 H   0  0  0  0  0  0  0  0  0  0  0  0
    8.8626   -1.6293   24.8599 C   0  0  0  0  0  0  0  0  0  0  0  0
    8.6235   -0.4575   25.4495 N   0  0  0  0  0  0  0  0  0  0  0  0
    8.8378   -0.3195   26.7617 C   0  0  0  0  0  0  0  0  0  0  0  0
    8.6397    0.6732   27.1662 H   0  0  0  0  0  0  0  0  0  0  0  0
    9.2934   -1.3585   27.5681 C   0  0  0  0  0  0  0  0  0  0  0  0
    9.5238   -1.1340   28.6007 H   0  0  0  0  0  0  0  0  0  0  0  0
    9.4897   -2.6117   26.9857 C   0  0  0  0  0  0  0  0  0  0  0  0
    9.8504   -3.4855   27.5342 H   0  0  0  0  0  0  0  0  0  0  0  0
    9.2960   -2.7391   25.6135 C   0  0  0  0  0  0  0  0  0  0  0  0
    9.6004   -4.0214   24.9183 C   0  0  0  0  0  0  0  0  0  0  0  0
    8.5211   -4.4843   24.2457 F   0  0  0  0  0  0  0  0  0  0  0  0
   10.5925   -3.8700   24.0126 F   0  0  0  0  0  0  0  0  0  0  0  0
    9.9885   -4.9946   25.7569 F   0  0  0  0  0  0  0  0  0  0  0  0
    9.1514   -0.4604   22.5970 C   0  0  0  0  0  0  0  0  0  0  0  0
    8.7501    0.4622   23.0390 H   0  0  0  0  0  0  0  0  0  0  0  0
   10.2448   -0.4157   22.6936 H   0  0  0  0  0  0  0  0  0  0  0  0
    8.7740   -0.5166   21.1122 C   0  0  0  0  0  0  0  0  0  0  0  0
    9.0970    0.4048   20.6100 H   0  0  0  0  0  0  0  0  0  0  0  0
    9.3032   -1.3630   20.6280 H   0  0  0  0  0  0  0  0  0  0  0  0
    5.4333    0.6436   20.1280 C   0  0  0  0  0  0  0  0  0  0  0  0
    5.0332    0.6179   21.1405 H   0  0  0  0  0  0  0  0  0  0  0  0
    4.7940    1.3110   19.0812 C   0  0  0  0  0  0  0  0  0  0  0  0
    3.8619    1.8436   19.2375 H   0  0  0  0  0  0  0  0  0  0  0  0
  1  2  1  0
  2  3  2  0
  3  4  1  0
  4  5  1  0
  4  6  2  0
  6  7  1  0
  7  8  1  0
  8  9  1  0
  8 10  1  0
  8 11  1  0
 11 12  1  0
 11 13  1  0
 11 14  1  0
 14 15  1  0
 14 16  1  0
 16 17  2  0
 17 18  1  0
 18 19  1  0
 18 20  2  0
 20 21  1  0
 20 22  1  0
 22 23  1  0
 22 24  2  0
 24 25  1  0
 25 26  1  0
 25 27  1  0
 25 28  1  0
 14 29  1  0
 29 30  1  0
 29 31  1  0
 29 32  1  0
 32 33  1  0
 32 34  1  0
  6 35  1  0
 35 36  1  0
 35 37  2  0
 37 38  1  0
 37  2  1  0
 32  7  1  0
 24 16  1  0
M  END
>  <cnnaffinity>  (1) 
-5.47723

>  <filename>  (1) 
FC(F)(F)c1cccnc1C1CCN(c2cccnc2)CC1

$$$$
