
     RDKit          3D

 33 35  0  0  0  0  0  0  0  0999 V2000
    4.9505    1.7785   16.9885 H   0  0  0  0  0  0  0  0  0  0  0  0
    5.4069    1.2811   17.8402 C   0  0  0  0  0  0  0  0  0  0  0  0
    6.5650    0.6442   17.6007 N   0  0  0  0  0  0  0  0  0  0  0  0
    7.1632    0.0402   18.6317 C   0  0  0  0  0  0  0  0  0  0  0  0
    8.1027   -0.4599   18.3978 H   0  0  0  0  0  0  0  0  0  0  0  0
    6.6528    0.0558   19.9346 C   0  0  0  0  0  0  0  0  0  0  0  0
    7.4122   -0.6698   20.9622 C   0  0  0  0  0  0  0  0  0  0  0  0
    8.0479   -1.7451   20.6880 N   0  0  0  0  0  0  0  0  0  0  0  0
    8.5944   -2.2695   21.9374 C   0  0  0  0  0  0  0  0  0  0  0  0
    9.6853   -2.3423   21.8547 H   0  0  0  0  0  0  0  0  0  0  0  0
    8.2399   -3.2932   22.1160 H   0  0  0  0  0  0  0  0  0  0  0  0
    8.1496   -1.2982   23.0580 C   0  0  0  0  0  0  0  0  0  0  0  0
    7.5062   -1.7728   23.8127 H   0  0  0  0  0  0  0  0  0  0  0  0
    8.9965   -0.8649   23.6062 H   0  0  0  0  0  0  0  0  0  0  0  0
    7.4208   -0.2877   22.2919 N   0  0  0  0  0  0  0  0  0  0  0  0
    7.0293    0.9416   22.8733 C   0  0  0  0  0  0  0  0  0  0  0  0
    5.9840    0.9640   23.8016 C   0  0  0  0  0  0  0  0  0  0  0  0
    5.5538    0.0061   24.0665 H   0  0  0  0  0  0  0  0  0  0  0  0
    5.5181    2.1688   24.3401 C   0  0  0  0  0  0  0  0  0  0  0  0
    4.6941    2.1604   25.0449 H   0  0  0  0  0  0  0  0  0  0  0  0
    6.1145    3.3806   23.9673 C   0  0  0  0  0  0  0  0  0  0  0  0
    5.7639    4.3271   24.3742 H   0  0  0  0  0  0  0  0  0  0  0  0
    7.1936    3.3660   23.0832 C   0  0  0  0  0  0  0  0  0  0  0  0
    7.6706    4.3005   22.7911 H   0  0  0  0  0  0  0  0  0  0  0  0
    7.6883    2.1438   22.5859 C   0  0  0  0  0  0  0  0  0  0  0  0
    8.8724    2.1487   21.6597 C   0  0  0  0  0  0  0  0  0  0  0  0
    9.6775    3.1914   21.9488 F   0  0  0  0  0  0  0  0  0  0  0  0
    8.4454    2.2809   20.3934 F   0  0  0  0  0  0  0  0  0  0  0  0
    9.6629    1.0608   21.6793 F   0  0  0  0  0  0  0  0  0  0  0  0
    5.4227    0.6815   20.1674 C   0  0  0  0  0  0  0  0  0  0  0  0
    4.9581    0.6621   21.1580 H   0  0  0  0  0  0  0  0  0  0  0  0
    4.7966    1.3103   19.0983 C   0  0  0  0  0  0  0  0  0  0  0  0
    3.8666    1.8425   19.2387 H   0  0  0  0  0  0  0  0  0  0  0  0
  1  2  1  0
  2  3  2  0
  3  4  1  0
  4  5  1  0
  4  6  2  0
  6  7  1  0
  7  8  2  0
  8  9  1  0
  9 10  1  0
  9 11  1  0
  9 12  1  0
 12 13  1  0
 12 14  1  0
 12 15  1  0
 15 16  1  0
 16 17  2  0
 17 18  1  0
 17 19  1  0
 19 20  1  0
 19 21  2  0
 21 22  1  0
 21 23  1  0
 23 24  1  0
 23 25  2  0
 25 26  1  0
 26 27  1  0
 26 28  1  0
 26 29  1  0
  6 30  1  0
 30 31  1  0
 30 32  2  0
 32 33  1  0
 32  2  1  0
 15  7  1  0
 25 16  1  0
M  END
>  <cnnaffinity>  (1) 
-4.6191

>  <filename>  (1) 
FC(F)(F)c1ccccc1N1CCN=C1c1cccnc1

$$$$
