
     RDKit          3D

 29 30  0  0  0  0  0  0  0  0999 V2000
    4.9289    1.8156   16.9773 H   0  0  0  0  0  0  0  0  0  0  0  0
    5.3875    1.2991   17.8206 C   0  0  0  0  0  0  0  0  0  0  0  0
    6.5542    0.6840   17.5695 N   0  0  0  0  0  0  0  0  0  0  0  0
    7.1492    0.0482   18.5869 C   0  0  0  0  0  0  0  0  0  0  0  0
    8.1157   -0.4066   18.3660 H   0  0  0  0  0  0  0  0  0  0  0  0
    6.6247   -0.0371   19.8897 C   0  0  0  0  0  0  0  0  0  0  0  0
    7.4034   -0.7215   20.9921 C   0  0  0  0  0  0  0  0  0  0  0  0
    7.8312   -1.6758   20.6669 H   0  0  0  0  0  0  0  0  0  0  0  0
    6.7635   -0.9295   21.8544 H   0  0  0  0  0  0  0  0  0  0  0  0
    8.8453    0.2215   21.6183 S   0  0  0  0  0  0  0  0  0  0  0  0
    7.9570    1.5646   22.3904 C   0  0  0  0  0  0  0  0  0  0  0  0
    7.6735    2.7157   21.6421 C   0  0  0  0  0  0  0  0  0  0  0  0
    8.0405    2.7076   20.6259 H   0  0  0  0  0  0  0  0  0  0  0  0
    6.9177    3.7548   22.1855 C   0  0  0  0  0  0  0  0  0  0  0  0
    6.6689    4.6372   21.5959 H   0  0  0  0  0  0  0  0  0  0  0  0
    6.4454    3.6649   23.4995 C   0  0  0  0  0  0  0  0  0  0  0  0
    5.8571    4.4603   23.9391 H   0  0  0  0  0  0  0  0  0  0  0  0
    6.7503    2.5198   24.2339 C   0  0  0  0  0  0  0  0  0  0  0  0
    6.3532    2.2932   25.5406 O   0  0  0  0  0  0  0  0  0  0  0  0
    5.6395    3.1896   26.2429 C   0  0  0  0  0  0  0  0  0  0  0  0
    5.4533    2.6631   27.4462 F   0  0  0  0  0  0  0  0  0  0  0  0
    6.2663    4.3696   26.3806 F   0  0  0  0  0  0  0  0  0  0  0  0
    4.4412    3.4475   25.6931 F   0  0  0  0  0  0  0  0  0  0  0  0
    7.4949    1.4687   23.7046 C   0  0  0  0  0  0  0  0  0  0  0  0
    7.6740    0.5986   24.3305 H   0  0  0  0  0  0  0  0  0  0  0  0
    5.4105    0.6209   20.1275 C   0  0  0  0  0  0  0  0  0  0  0  0
    4.9837    0.6339   21.1323 H   0  0  0  0  0  0  0  0  0  0  0  0
    4.7808    1.3007   19.0785 C   0  0  0  0  0  0  0  0  0  0  0  0
    3.8568    1.8507   19.2250 H   0  0  0  0  0  0  0  0  0  0  0  0
  1  2  1  0
  2  3  2  0
  3  4  1  0
  4  5  1  0
  4  6  2  0
  6  7  1  0
  7  8  1  0
  7  9  1  0
  7 10  1  0
 10 11  1  0
 11 12  2  0
 12 13  1  0
 12 14  1  0
 14 15  1  0
 14 16  2  0
 16 17  1  0
 16 18  1  0
 18 19  1  0
 19 20  1  0
 20 21  1  0
 20 22  1  0
 20 23  1  0
 18 24  2  0
 24 25  1  0
  6 26  1  0
 26 27  1  0
 26 28  2  0
 28 29  1  0
 28  2  1  0
 24 11  1  0
M  END
>  <cnnaffinity>  (1) 
-4.79248

>  <filename>  (1) 
FC(F)(F)Oc1cccc(SCc2cccnc2)c1

$$$$
