
     RDKit          3D

 26 27  0  0  0  0  0  0  0  0999 V2000
    4.9333    1.7887   16.9874 H   0  0  0  0  0  0  0  0  0  0  0  0
    5.3999    1.2917   17.8377 C   0  0  0  0  0  0  0  0  0  0  0  0
    6.5636    0.6708   17.5847 N   0  0  0  0  0  0  0  0  0  0  0  0
    7.1697    0.0584   18.6081 C   0  0  0  0  0  0  0  0  0  0  0  0
    8.1172   -0.4251   18.3790 H   0  0  0  0  0  0  0  0  0  0  0  0
    6.6466    0.0154   19.9092 C   0  0  0  0  0  0  0  0  0  0  0  0
    7.6313   -0.7352   21.1858 S   0  0  0  0  0  0  0  0  0  0  0  0
    8.4740    0.5988   21.7250 N   0  0  0  0  0  0  0  0  0  0  0  0
    9.2809    0.9753   21.2599 H   0  0  0  0  0  0  0  0  0  0  0  0
    8.0225    1.5249   22.6264 C   0  0  0  0  0  0  0  0  0  0  0  0
    8.7981    2.6065   22.6889 N   0  0  0  0  0  0  0  0  0  0  0  0
    8.4719    3.5557   23.5880 C   0  0  0  0  0  0  0  0  0  0  0  0
    9.3138    4.8634   23.7393 C   0  0  0  0  0  0  0  0  0  0  0  0
    9.7870    4.9813   25.0016 F   0  0  0  0  0  0  0  0  0  0  0  0
    8.5414    5.9558   23.5475 F   0  0  0  0  0  0  0  0  0  0  0  0
   10.3563    4.9529   22.9134 F   0  0  0  0  0  0  0  0  0  0  0  0
    7.3711    3.4103   24.4497 C   0  0  0  0  0  0  0  0  0  0  0  0
    7.1363    4.1765   25.1716 H   0  0  0  0  0  0  0  0  0  0  0  0
    6.5751    2.2605   24.3716 C   0  0  0  0  0  0  0  0  0  0  0  0
    5.7178    2.1087   25.0315 H   0  0  0  0  0  0  0  0  0  0  0  0
    6.9010    1.2978   23.4345 C   0  0  0  0  0  0  0  0  0  0  0  0
    6.3740    0.3625   23.3032 H   0  0  0  0  0  0  0  0  0  0  0  0
    5.4217    0.6388   20.1591 C   0  0  0  0  0  0  0  0  0  0  0  0
    4.9843    0.6321   21.1583 H   0  0  0  0  0  0  0  0  0  0  0  0
    4.7964    1.3040   19.1008 C   0  0  0  0  0  0  0  0  0  0  0  0
    3.8696    1.8460   19.2479 H   0  0  0  0  0  0  0  0  0  0  0  0
  1  2  1  0
  2  3  2  0
  3  4  1  0
  4  5  1  0
  4  6  2  0
  6  7  1  0
  7  8  1  0
  8  9  1  0
  8 10  1  0
 10 11  2  0
 11 12  1  0
 12 13  1  0
 13 14  1  0
 13 15  1  0
 13 16  1  0
 12 17  2  0
 17 18  1  0
 17 19  1  0
 19 20  1  0
 19 21  2  0
 21 22  1  0
  6 23  1  0
 23 24  1  0
 23 25  2  0
 25 26  1  0
 25  2  1  0
 21 10  1  0
M  END
>  <cnnaffinity>  (1) 
-4.82238

>  <filename>  (1) 
FC(F)(F)c1cccc(NSc2cccnc2)n1

$$$$
