
     RDKit          3D

 30 32  0  0  0  0  0  0  0  0999 V2000
    6.1399    3.9296   26.3665 F   0  0  0  0  0  0  0  0  0  0  0  0
    6.8403    2.8109   26.1063 C   0  0  0  0  0  0  0  0  0  0  0  0
    8.0327    2.9444   26.7161 F   0  0  0  0  0  0  0  0  0  0  0  0
    6.2053    1.7895   26.7083 F   0  0  0  0  0  0  0  0  0  0  0  0
    7.0046    2.5789   24.6025 C   0  0  0  0  0  0  0  0  0  0  0  0
    7.0528    3.6403   23.6883 C   0  0  0  0  0  0  0  0  0  0  0  0
    7.2647    3.3628   22.3324 C   0  0  0  0  0  0  0  0  0  0  0  0
    7.4352    2.1409   21.8318 N   0  0  0  0  0  0  0  0  0  0  0  0
    7.3924    1.1139   22.6996 C   0  0  0  0  0  0  0  0  0  0  0  0
    7.6365   -0.2514   22.2176 C   0  0  0  0  0  0  0  0  0  0  0  0
    8.2208   -1.3265   22.8677 C   0  0  0  0  0  0  0  0  0  0  0  0
    8.2984   -2.3247   21.8874 C   0  0  0  0  0  0  0  0  0  0  0  0
    7.7907   -1.9257   20.7311 N   0  0  0  0  0  0  0  0  0  0  0  0
    7.3602   -0.6741   20.9380 N   0  0  0  0  0  0  0  0  0  0  0  0
    6.6398   -0.0108   19.9121 C   0  0  0  0  0  0  0  0  0  0  0  0
    5.4112    0.6097   20.1584 C   0  0  0  0  0  0  0  0  0  0  0  0
    4.8025    1.2864   19.1005 C   0  0  0  0  0  0  0  0  0  0  0  0
    5.4092    1.2868   17.8417 C   0  0  0  0  0  0  0  0  0  0  0  0
    6.5778    0.6670   17.6007 N   0  0  0  0  0  0  0  0  0  0  0  0
    7.1744    0.0364   18.6148 C   0  0  0  0  0  0  0  0  0  0  0  0
    8.1226   -0.4415   18.3808 H   0  0  0  0  0  0  0  0  0  0  0  0
    4.9376    1.7832   16.9958 H   0  0  0  0  0  0  0  0  0  0  0  0
    3.8833    1.8364   19.2579 H   0  0  0  0  0  0  0  0  0  0  0  0
    4.9944    0.6407   21.1665 H   0  0  0  0  0  0  0  0  0  0  0  0
    8.7111   -3.3198   21.9648 H   0  0  0  0  0  0  0  0  0  0  0  0
    8.6029   -1.3700   23.8796 H   0  0  0  0  0  0  0  0  0  0  0  0
    7.1872    1.2962   24.0779 C   0  0  0  0  0  0  0  0  0  0  0  0
    7.1819    0.4224   24.7138 H   0  0  0  0  0  0  0  0  0  0  0  0
    7.2873    4.1778   21.6214 H   0  0  0  0  0  0  0  0  0  0  0  0
    6.9279    4.6665   24.0110 H   0  0  0  0  0  0  0  0  0  0  0  0
  1  2  1  0
  2  3  1  0
  2  4  1  0
  2  5  1  0
  5  6  2  0
  6  7  1  0
  7  8  2  0
  8  9  1  0
  9 10  1  0
 10 11  2  0
 11 12  1  0
 12 13  2  0
 13 14  1  0
 14 15  1  0
 15 16  2  0
 16 17  1  0
 17 18  2  0
 18 19  1  0
 19 20  2  0
 20 21  1  0
 18 22  1  0
 17 23  1  0
 16 24  1  0
 12 25  1  0
 11 26  1  0
  9 27  2  0
 27 28  1  0
  7 29  1  0
  6 30  1  0
 27  5  1  0
 14 10  1  0
 20 15  1  0
M  END
>  <cnnaffinity>  (1) 
-5.2562

>  <filename>  (1) 
FC(F)(F)c1ccnc(-c2ccnn2-c2cccnc2)c1

$$$$
