
     RDKit          3D

 35 38  0  0  0  0  0  0  0  0999 V2000
   11.2248   -0.6221   23.3003 F   0  0  0  0  0  0  0  0  0  0  0  0
   11.1965   -1.4201   22.1880 C   0  0  0  0  0  0  0  0  0  0  0  0
   12.2725   -2.2511   22.2564 F   0  0  0  0  0  0  0  0  0  0  0  0
    9.9462   -2.2833   22.1908 C   0  0  0  0  0  0  0  0  0  0  0  0
    8.7115   -1.5162   22.0730 N   0  0  0  0  0  0  0  0  0  0  0  0
    8.4505   -0.9985   20.8544 N   0  0  0  0  0  0  0  0  0  0  0  0
    7.2353   -0.4908   20.9904 C   0  0  0  0  0  0  0  0  0  0  0  0
    6.5394    0.1644   19.8791 C   0  0  0  0  0  0  0  0  0  0  0  0
    5.3156    0.8440   20.0113 C   0  0  0  0  0  0  0  0  0  0  0  0
    4.7682    1.4230   18.8669 C   0  0  0  0  0  0  0  0  0  0  0  0
    5.4569    1.3224   17.6530 C   0  0  0  0  0  0  0  0  0  0  0  0
    6.6298    0.6842   17.5210 N   0  0  0  0  0  0  0  0  0  0  0  0
    7.1499    0.1243   18.6155 C   0  0  0  0  0  0  0  0  0  0  0  0
    8.1050   -0.3841   18.4905 H   0  0  0  0  0  0  0  0  0  0  0  0
    5.0407    1.7590   16.7470 H   0  0  0  0  0  0  0  0  0  0  0  0
    3.8228    1.9545   18.8971 H   0  0  0  0  0  0  0  0  0  0  0  0
    4.8193    0.9291   20.9811 H   0  0  0  0  0  0  0  0  0  0  0  0
    6.7050   -0.6436   22.2218 N   0  0  0  0  0  0  0  0  0  0  0  0
    7.6393   -1.2988   22.8938 C   0  0  0  0  0  0  0  0  0  0  0  0
    7.6525   -1.7237   24.3174 C   0  0  0  0  0  0  0  0  0  0  0  0
    8.7886   -1.5540   25.1597 C   0  0  0  0  0  0  0  0  0  0  0  0
    8.7473   -1.9342   26.5139 C   0  0  0  0  0  0  0  0  0  0  0  0
    7.6839   -2.4754   27.1286 N   0  0  0  0  0  0  0  0  0  0  0  0
    6.6524   -2.6488   26.3085 C   0  0  0  0  0  0  0  0  0  0  0  0
    6.5410   -2.3545   24.9274 C   0  0  0  0  0  0  0  0  0  0  0  0
    5.3142   -2.8078   24.4563 N   0  0  0  0  0  0  0  0  0  0  0  0
    4.7094   -3.2774   25.5075 C   0  0  0  0  0  0  0  0  0  0  0  0
    5.4584   -3.2072   26.6479 N   0  0  0  0  0  0  0  0  0  0  0  0
    5.2171   -3.4437   27.5914 H   0  0  0  0  0  0  0  0  0  0  0  0
    3.7150   -3.7102   25.4860 H   0  0  0  0  0  0  0  0  0  0  0  0
    9.6323   -1.7910   27.1291 H   0  0  0  0  0  0  0  0  0  0  0  0
    9.7115   -1.1172   24.7955 H   0  0  0  0  0  0  0  0  0  0  0  0
    9.9663   -2.8974   23.0930 H   0  0  0  0  0  0  0  0  0  0  0  0
    9.9907   -2.9202   21.3109 H   0  0  0  0  0  0  0  0  0  0  0  0
   11.3070   -0.7784   21.3129 H   0  0  0  0  0  0  0  0  0  0  0  0
  1  2  1  0
  2  3  1  0
  2  4  1  0
  4  5  1  0
  5  6  1  0
  6  7  2  0
  7  8  1  0
  8  9  2  0
  9 10  1  0
 10 11  2  0
 11 12  1  0
 12 13  2  0
 13 14  1  0
 11 15  1  0
 10 16  1  0
  9 17  1  0
  7 18  1  0
 18 19  2  0
 19 20  1  0
 20 21  2  0
 21 22  1  0
 22 23  2  0
 23 24  1  0
 24 25  2  0
 25 26  1  0
 26 27  2  0
 27 28  1  0
 28 29  1  0
 27 30  1  0
 22 31  1  0
 21 32  1  0
  4 33  1  0
  4 34  1  0
  2 35  1  0
 19  5  1  0
 25 20  1  0
 13  8  1  0
 28 24  1  0
M  END
>  <cnnaffinity>  (1) 
-5.94913

>  <filename>  (1) 
FC(F)Cn1nc(-c2cccnc2)nc1-c1ccnc2[nH]cnc12

$$$$
