
     RDKit          3D

 29 31  0  0  0  0  0  0  0  0999 V2000
    4.9081    1.9223   16.7415 H   0  0  0  0  0  0  0  0  0  0  0  0
    5.3538    1.4176   17.5957 C   0  0  0  0  0  0  0  0  0  0  0  0
    6.5138    0.7815   17.3648 N   0  0  0  0  0  0  0  0  0  0  0  0
    7.0955    0.1653   18.3923 C   0  0  0  0  0  0  0  0  0  0  0  0
    8.0377   -0.3266   18.1502 H   0  0  0  0  0  0  0  0  0  0  0  0
    6.5670    0.1403   19.6872 C   0  0  0  0  0  0  0  0  0  0  0  0
    7.2403   -0.5784   20.7677 C   0  0  0  0  0  0  0  0  0  0  0  0
    6.9686   -0.4913   22.0491 N   0  0  0  0  0  0  0  0  0  0  0  0
    7.7847   -1.3997   22.6383 C   0  0  0  0  0  0  0  0  0  0  0  0
    7.8349   -1.6700   24.1378 C   0  0  0  0  0  0  0  0  0  0  0  0
    6.7779   -1.2472   24.8517 N   0  0  0  0  0  0  0  0  0  0  0  0
    6.7879   -1.3110   26.1796 C   0  0  0  0  0  0  0  0  0  0  0  0
    5.8939   -0.9405   26.6755 H   0  0  0  0  0  0  0  0  0  0  0  0
    7.8773   -1.7960   26.8993 C   0  0  0  0  0  0  0  0  0  0  0  0
    7.8517   -1.7901   27.9733 H   0  0  0  0  0  0  0  0  0  0  0  0
    8.9461   -2.3253   26.1986 C   0  0  0  0  0  0  0  0  0  0  0  0
    9.7647   -2.7916   26.7390 H   0  0  0  0  0  0  0  0  0  0  0  0
    8.9114   -2.3225   24.7981 C   0  0  0  0  0  0  0  0  0  0  0  0
    9.9768   -3.0747   24.0463 C   0  0  0  0  0  0  0  0  0  0  0  0
    9.4484   -4.0075   23.2404 F   0  0  0  0  0  0  0  0  0  0  0  0
   10.8269   -3.7210   24.8745 F   0  0  0  0  0  0  0  0  0  0  0  0
   10.7344   -2.2428   23.3204 F   0  0  0  0  0  0  0  0  0  0  0  0
    8.5657   -2.0538   21.7637 N   0  0  0  0  0  0  0  0  0  0  0  0
    8.1961   -1.5044   20.5972 N   0  0  0  0  0  0  0  0  0  0  0  0
    8.5853   -1.8078   19.7212 H   0  0  0  0  0  0  0  0  0  0  0  0
    5.3488    0.8006   19.9185 C   0  0  0  0  0  0  0  0  0  0  0  0
    4.9161    0.7928   20.9215 H   0  0  0  0  0  0  0  0  0  0  0  0
    4.7319    1.4422   18.8490 C   0  0  0  0  0  0  0  0  0  0  0  0
    3.7912    1.9684   18.9687 H   0  0  0  0  0  0  0  0  0  0  0  0
  1  2  1  0
  2  3  2  0
  3  4  1  0
  4  5  1  0
  4  6  2  0
  6  7  1  0
  7  8  2  0
  8  9  1  0
  9 10  1  0
 10 11  2  0
 11 12  1  0
 12 13  1  0
 12 14  2  0
 14 15  1  0
 14 16  1  0
 16 17  1  0
 16 18  2  0
 18 19  1  0
 19 20  1  0
 19 21  1  0
 19 22  1  0
  9 23  2  0
 23 24  1  0
 24 25  1  0
  6 26  1  0
 26 27  1  0
 26 28  2  0
 28 29  1  0
 28  2  1  0
 24  7  1  0
 18 10  1  0
M  END
>  <cnnaffinity>  (1) 
-5.37764

>  <filename>  (1) 
FC(F)(F)c1cccnc1-c1n[nH]c(-c2cccnc2)n1

$$$$
