
     RDKit          3D

 27 28  0  0  0  0  0  0  0  0999 V2000
    7.7862   -1.7175   20.6753 H   0  0  0  0  0  0  0  0  0  0  0  0
    7.3875   -0.7367   20.9465 C   0  0  0  0  0  0  0  0  0  0  0  0
    7.5972   -0.2916   22.1929 C   0  0  0  0  0  0  0  0  0  0  0  0
    8.2883   -1.3822   23.3635 Cl  0  0  0  0  0  0  0  0  0  0  0  0
    7.3027    1.0867   22.6760 C   0  0  0  0  0  0  0  0  0  0  0  0
    6.7000    1.1963   23.8659 N   0  0  0  0  0  0  0  0  0  0  0  0
    6.4142    2.4110   24.3463 C   0  0  0  0  0  0  0  0  0  0  0  0
    5.7339    2.5314   25.7397 C   0  0  0  0  0  0  0  0  0  0  0  0
    6.5024    3.2577   26.5808 F   0  0  0  0  0  0  0  0  0  0  0  0
    5.4769    1.3678   26.3376 F   0  0  0  0  0  0  0  0  0  0  0  0
    4.5656    3.2018   25.6390 F   0  0  0  0  0  0  0  0  0  0  0  0
    6.7217    3.5919   23.6433 C   0  0  0  0  0  0  0  0  0  0  0  0
    6.4791    4.5637   24.0633 H   0  0  0  0  0  0  0  0  0  0  0  0
    7.3545    3.4880   22.4004 C   0  0  0  0  0  0  0  0  0  0  0  0
    7.6070    4.3830   21.8273 H   0  0  0  0  0  0  0  0  0  0  0  0
    7.6519    2.2159   21.9096 C   0  0  0  0  0  0  0  0  0  0  0  0
    8.1223    2.0619   20.9481 H   0  0  0  0  0  0  0  0  0  0  0  0
    6.6499    0.0088   19.9004 C   0  0  0  0  0  0  0  0  0  0  0  0
    7.1613    0.0629   18.5887 C   0  0  0  0  0  0  0  0  0  0  0  0
    8.1105   -0.4206   18.3659 H   0  0  0  0  0  0  0  0  0  0  0  0
    6.5634    0.6848   17.5669 N   0  0  0  0  0  0  0  0  0  0  0  0
    5.3988    1.2986   17.8325 C   0  0  0  0  0  0  0  0  0  0  0  0
    4.9173    1.7903   16.9898 H   0  0  0  0  0  0  0  0  0  0  0  0
    4.8000    1.3107   19.0978 C   0  0  0  0  0  0  0  0  0  0  0  0
    3.8720    1.8439   19.2474 H   0  0  0  0  0  0  0  0  0  0  0  0
    5.4304    0.6495   20.1547 C   0  0  0  0  0  0  0  0  0  0  0  0
    5.0118    0.6324   21.1675 H   0  0  0  0  0  0  0  0  0  0  0  0
  1  2  1  0
  2  3  2  3
  3  4  1  0
  3  5  1  0
  5  6  2  0
  6  7  1  0
  7  8  1  0
  8  9  1  0
  8 10  1  0
  8 11  1  0
  7 12  2  0
 12 13  1  0
 12 14  1  0
 14 15  1  0
 14 16  2  0
 16 17  1  0
  2 18  1  0
 18 19  2  0
 19 20  1  0
 19 21  1  0
 21 22  2  0
 22 23  1  0
 22 24  1  0
 24 25  1  0
 24 26  2  0
 26 27  1  0
 16  5  1  0
 26 18  1  0
M  END
>  <cnnaffinity>  (1) 
-4.73391

>  <filename>  (1) 
FC(F)(F)c1cccc(C(Cl)=Cc2cccnc2)n1

$$$$
