
     RDKit          3D

 43 46  0  0  0  0  0  0  0  0999 V2000
   13.7425    0.7920   24.6479 F   0  0  0  0  0  0  0  0  0  0  0  0
   13.4541    1.4582   23.5127 C   0  0  0  0  0  0  0  0  0  0  0  0
   13.6663    2.7699   23.7113 F   0  0  0  0  0  0  0  0  0  0  0  0
   14.3365    1.0397   22.5920 F   0  0  0  0  0  0  0  0  0  0  0  0
   12.0117    1.1953   23.1797 C   0  0  0  0  0  0  0  0  0  0  0  0
   11.3436    2.0324   22.0626 C   0  0  0  0  0  0  0  0  0  0  0  0
    9.9232    1.5709   21.9559 C   0  0  0  0  0  0  0  0  0  0  0  0
    9.4635    0.6743   21.1075 N   0  0  0  0  0  0  0  0  0  0  0  0
    8.2773    0.3016   21.6679 C   0  0  0  0  0  0  0  0  0  0  0  0
    7.3752   -0.6862   20.9876 C   0  0  0  0  0  0  0  0  0  0  0  0
    6.6066   -0.0484   19.8450 C   0  0  0  0  0  0  0  0  0  0  0  0
    5.4112    0.6338   20.0957 C   0  0  0  0  0  0  0  0  0  0  0  0
    4.7916    1.3150   19.0486 C   0  0  0  0  0  0  0  0  0  0  0  0
    5.3956    1.3044   17.7867 C   0  0  0  0  0  0  0  0  0  0  0  0
    6.5411    0.6538   17.5236 N   0  0  0  0  0  0  0  0  0  0  0  0
    7.1213    0.0049   18.5388 C   0  0  0  0  0  0  0  0  0  0  0  0
    8.0610   -0.5028   18.3131 H   0  0  0  0  0  0  0  0  0  0  0  0
    4.9407    1.8372   16.9531 H   0  0  0  0  0  0  0  0  0  0  0  0
    3.8668    1.8612   19.1995 H   0  0  0  0  0  0  0  0  0  0  0  0
    4.9773    0.6305   21.0985 H   0  0  0  0  0  0  0  0  0  0  0  0
    6.6797   -1.0898   21.7294 H   0  0  0  0  0  0  0  0  0  0  0  0
    7.9922   -1.5094   20.6169 H   0  0  0  0  0  0  0  0  0  0  0  0
    7.9843    0.8910   22.8039 N   0  0  0  0  0  0  0  0  0  0  0  0
    9.0164    1.7641   22.9608 N   0  0  0  0  0  0  0  0  0  0  0  0
    8.9865    2.7304   24.0028 C   0  0  0  0  0  0  0  0  0  0  0  0
    8.9467    2.3280   25.3251 C   0  0  0  0  0  0  0  0  0  0  0  0
    9.0264    3.2075   26.3550 N   0  0  0  0  0  0  0  0  0  0  0  0
    9.1318    4.4955   26.1599 N   0  0  0  0  0  0  0  0  0  0  0  0
    9.1111    4.9839   24.8754 C   0  0  0  0  0  0  0  0  0  0  0  0
    9.2217    6.4008   24.7128 C   0  0  0  0  0  0  0  0  0  0  0  0
    9.1721    6.9426   23.4554 C   0  0  0  0  0  0  0  0  0  0  0  0
    8.9630    6.1204   22.3145 C   0  0  0  0  0  0  0  0  0  0  0  0
    8.8369    4.7512   22.4439 C   0  0  0  0  0  0  0  0  0  0  0  0
    8.9811    4.1356   23.7325 C   0  0  0  0  0  0  0  0  0  0  0  0
    8.6185    4.1395   21.5706 H   0  0  0  0  0  0  0  0  0  0  0  0
    8.8928    6.5760   21.3285 H   0  0  0  0  0  0  0  0  0  0  0  0
    9.2822    8.0151   23.3268 H   0  0  0  0  0  0  0  0  0  0  0  0
    9.3322    6.9932   25.6150 H   0  0  0  0  0  0  0  0  0  0  0  0
    8.8852    1.2829   25.6182 H   0  0  0  0  0  0  0  0  0  0  0  0
   11.8116    1.8854   21.0854 H   0  0  0  0  0  0  0  0  0  0  0  0
   11.3876    3.1044   22.3041 H   0  0  0  0  0  0  0  0  0  0  0  0
   11.4908    1.3919   24.1239 H   0  0  0  0  0  0  0  0  0  0  0  0
   11.9425    0.1202   22.9718 H   0  0  0  0  0  0  0  0  0  0  0  0
  1  2  1  0
  2  3  1  0
  2  4  1  0
  2  5  1  0
  5  6  1  0
  6  7  1  0
  7  8  2  0
  8  9  1  0
  9 10  1  0
 10 11  1  0
 11 12  2  0
 12 13  1  0
 13 14  2  0
 14 15  1  0
 15 16  2  0
 16 17  1  0
 14 18  1  0
 13 19  1  0
 12 20  1  0
 10 21  1  0
 10 22  1  0
  9 23  2  0
 23 24  1  0
 24 25  1  0
 25 26  2  0
 26 27  1  0
 27 28  2  0
 28 29  1  0
 29 30  2  0
 30 31  1  0
 31 32  2  0
 32 33  1  0
 33 34  2  0
 33 35  1  0
 32 36  1  0
 31 37  1  0
 30 38  1  0
 26 39  1  0
  6 40  1  0
  6 41  1  0
  5 42  1  0
  5 43  1  0
 24  7  1  0
 34 25  1  0
 16 11  1  0
 34 29  1  0
M  END
>  <cnnaffinity>  (1) 
-5.75764

>  <filename>  (1) 
FC(F)(F)CCc1nc(Cc2cccnc2)nn1-c1cnnc2ccccc12

$$$$
