
     RDKit          3D

 34 35  0  0  0  0  0  0  0  0999 V2000
    4.9512    1.8084   16.9851 H   0  0  0  0  0  0  0  0  0  0  0  0
    5.4067    1.2926   17.8301 C   0  0  0  0  0  0  0  0  0  0  0  0
    6.5609    0.6605   17.5811 N   0  0  0  0  0  0  0  0  0  0  0  0
    7.1551    0.0287   18.5996 C   0  0  0  0  0  0  0  0  0  0  0  0
    8.0976   -0.4655   18.3655 H   0  0  0  0  0  0  0  0  0  0  0  0
    6.6292   -0.0165   19.8960 C   0  0  0  0  0  0  0  0  0  0  0  0
    7.4076   -0.6620   21.0181 C   0  0  0  0  0  0  0  0  0  0  0  0
    8.3002   -1.5706   20.5053 F   0  0  0  0  0  0  0  0  0  0  0  0
    6.5571   -1.3808   21.8186 F   0  0  0  0  0  0  0  0  0  0  0  0
    8.1590    0.3245   21.9101 C   0  0  0  0  0  0  0  0  0  0  0  0
    7.4059    1.0065   22.3243 H   0  0  0  0  0  0  0  0  0  0  0  0
    8.5684   -0.2566   22.7455 H   0  0  0  0  0  0  0  0  0  0  0  0
    9.2575    1.1191   21.2009 C   0  0  0  0  0  0  0  0  0  0  0  0
    8.8062    1.7263   20.4067 H   0  0  0  0  0  0  0  0  0  0  0  0
    9.9814    0.4438   20.7288 H   0  0  0  0  0  0  0  0  0  0  0  0
   10.0208    2.0403   22.1328 C   0  0  0  0  0  0  0  0  0  0  0  0
    9.3662    2.8189   22.5548 H   0  0  0  0  0  0  0  0  0  0  0  0
   10.4860    1.4859   22.9631 H   0  0  0  0  0  0  0  0  0  0  0  0
   11.0400    2.6467   21.3610 O   0  0  0  0  0  0  0  0  0  0  0  0
   11.8457    3.5678   21.9490 C   0  0  0  0  0  0  0  0  0  0  0  0
   11.8029    3.9392   23.2975 C   0  0  0  0  0  0  0  0  0  0  0  0
   11.0764    3.4801   23.9541 H   0  0  0  0  0  0  0  0  0  0  0  0
   12.6617    4.9365   23.7741 C   0  0  0  0  0  0  0  0  0  0  0  0
   12.6414    5.2072   24.8296 H   0  0  0  0  0  0  0  0  0  0  0  0
   13.5376    5.5694   22.8938 C   0  0  0  0  0  0  0  0  0  0  0  0
   14.1155    6.4288   23.2016 H   0  0  0  0  0  0  0  0  0  0  0  0
   13.6224    5.1538   21.5595 C   0  0  0  0  0  0  0  0  0  0  0  0
   14.3647    5.5972   20.9046 H   0  0  0  0  0  0  0  0  0  0  0  0
   12.7632    4.1704   21.0857 C   0  0  0  0  0  0  0  0  0  0  0  0
   12.7409    3.8611   20.0496 H   0  0  0  0  0  0  0  0  0  0  0  0
    5.4201    0.6482   20.1438 C   0  0  0  0  0  0  0  0  0  0  0  0
    4.9719    0.6504   21.1384 H   0  0  0  0  0  0  0  0  0  0  0  0
    4.7956    1.3113   19.0872 C   0  0  0  0  0  0  0  0  0  0  0  0
    3.8676    1.8553   19.2267 H   0  0  0  0  0  0  0  0  0  0  0  0
  1  2  1  0
  2  3  2  0
  3  4  1  0
  4  5  1  0
  4  6  2  0
  6  7  1  0
  7  8  1  0
  7  9  1  0
  7 10  1  0
 10 11  1  0
 10 12  1  0
 10 13  1  0
 13 14  1  0
 13 15  1  0
 13 16  1  0
 16 17  1  0
 16 18  1  0
 16 19  1  0
 19 20  1  0
 20 21  2  0
 21 22  1  0
 21 23  1  0
 23 24  1  0
 23 25  2  0
 25 26  1  0
 25 27  1  0
 27 28  1  0
 27 29  2  0
 29 30  1  0
  6 31  1  0
 31 32  1  0
 31 33  2  0
 33 34  1  0
 33  2  1  0
 29 20  1  0
M  END
>  <cnnaffinity>  (1) 
-4.89469

>  <filename>  (1) 
FC(F)(CCCOc1ccccc1)c1cccnc1

$$$$
