
     RDKit          3D

 40 43  0  0  0  0  0  0  0  0999 V2000
    5.9535   -3.4999   24.1021 F   0  0  0  0  0  0  0  0  0  0  0  0
    6.2286   -2.4346   24.8712 C   0  0  0  0  0  0  0  0  0  0  0  0
    6.5339   -2.8969   26.1020 F   0  0  0  0  0  0  0  0  0  0  0  0
    5.1046   -1.7218   24.9943 F   0  0  0  0  0  0  0  0  0  0  0  0
    7.3829   -1.6201   24.3323 C   0  0  0  0  0  0  0  0  0  0  0  0
    7.3218   -1.4208   22.8674 C   0  0  0  0  0  0  0  0  0  0  0  0
    6.4863   -0.5939   22.2749 N   0  0  0  0  0  0  0  0  0  0  0  0
    6.8510   -0.6587   20.9712 C   0  0  0  0  0  0  0  0  0  0  0  0
    6.2811    0.1061   19.8778 C   0  0  0  0  0  0  0  0  0  0  0  0
    5.1177    0.8688   19.9964 C   0  0  0  0  0  0  0  0  0  0  0  0
    4.6787    1.5546   18.8642 C   0  0  0  0  0  0  0  0  0  0  0  0
    5.4137    1.4489   17.6770 C   0  0  0  0  0  0  0  0  0  0  0  0
    6.5339    0.7218   17.5602 N   0  0  0  0  0  0  0  0  0  0  0  0
    6.9539    0.0699   18.6449 C   0  0  0  0  0  0  0  0  0  0  0  0
    7.8685   -0.5091   18.5341 H   0  0  0  0  0  0  0  0  0  0  0  0
    5.0837    1.9583   16.7738 H   0  0  0  0  0  0  0  0  0  0  0  0
    3.7886    2.1710   18.8902 H   0  0  0  0  0  0  0  0  0  0  0  0
    4.5902    0.9117   20.9509 H   0  0  0  0  0  0  0  0  0  0  0  0
    7.8588   -1.4766   20.7332 N   0  0  0  0  0  0  0  0  0  0  0  0
    8.1462   -1.9738   21.9459 N   0  0  0  0  0  0  0  0  0  0  0  0
    9.3190   -2.8215   22.0876 C   0  0  0  0  0  0  0  0  0  0  0  0
   10.5189   -2.1286   22.7847 C   0  0  0  0  0  0  0  0  0  0  0  0
   10.9672   -3.1046   23.8989 C   0  0  0  0  0  0  0  0  0  0  0  0
    9.9322   -4.1894   23.9591 C   0  0  0  0  0  0  0  0  0  0  0  0
    9.7802   -5.2264   24.8863 C   0  0  0  0  0  0  0  0  0  0  0  0
    8.7601   -6.1605   24.6772 C   0  0  0  0  0  0  0  0  0  0  0  0
    7.9324   -6.0674   23.5429 C   0  0  0  0  0  0  0  0  0  0  0  0
    8.0891   -5.0313   22.6266 C   0  0  0  0  0  0  0  0  0  0  0  0
    9.0575   -4.0698   22.8866 C   0  0  0  0  0  0  0  0  0  0  0  0
    7.4637   -4.9667   21.7401 H   0  0  0  0  0  0  0  0  0  0  0  0
    7.1356   -6.7699   23.3351 H   0  0  0  0  0  0  0  0  0  0  0  0
    8.6282   -6.9468   25.4127 H   0  0  0  0  0  0  0  0  0  0  0  0
   10.4419   -5.3402   25.7432 H   0  0  0  0  0  0  0  0  0  0  0  0
   11.0307   -2.6011   24.8585 H   0  0  0  0  0  0  0  0  0  0  0  0
   11.9403   -3.5556   23.6822 H   0  0  0  0  0  0  0  0  0  0  0  0
   10.2091   -1.1573   23.1956 H   0  0  0  0  0  0  0  0  0  0  0  0
   11.3103   -1.9272   22.0525 H   0  0  0  0  0  0  0  0  0  0  0  0
    9.5577   -3.0875   21.0599 H   0  0  0  0  0  0  0  0  0  0  0  0
    8.3013   -2.1290   24.6225 H   0  0  0  0  0  0  0  0  0  0  0  0
    7.3513   -0.6472   24.8260 H   0  0  0  0  0  0  0  0  0  0  0  0
  1  2  1  0
  2  3  1  0
  2  4  1  0
  2  5  1  0
  5  6  1  0
  6  7  2  0
  7  8  1  0
  8  9  1  0
  9 10  2  0
 10 11  1  0
 11 12  2  0
 12 13  1  0
 13 14  2  0
 14 15  1  0
 12 16  1  0
 11 17  1  0
 10 18  1  0
  8 19  2  0
 19 20  1  0
 20 21  1  0
 21 22  1  0
 22 23  1  0
 23 24  1  0
 24 25  2  0
 25 26  1  0
 26 27  2  0
 27 28  1  0
 28 29  2  0
 28 30  1  0
 27 31  1  0
 26 32  1  0
 25 33  1  0
 23 34  1  0
 23 35  1  0
 22 36  1  0
 22 37  1  0
 21 38  1  0
  5 39  1  0
  5 40  1  0
 20  6  1  0
 29 21  1  0
 14  9  1  0
 29 24  1  0
M  END
>  <cnnaffinity>  (1) 
-6.03446

>  <filename>  (1) 
FC(F)(F)Cc1nc(-c2cccnc2)nn1C1CCc2ccccc21

$$$$
