
     RDKit          3D

 33 35  0  0  0  0  0  0  0  0999 V2000
    4.9172    1.7885   16.9872 H   0  0  0  0  0  0  0  0  0  0  0  0
    5.3960    1.2977   17.8307 C   0  0  0  0  0  0  0  0  0  0  0  0
    6.5572    0.6787   17.5645 N   0  0  0  0  0  0  0  0  0  0  0  0
    7.1662    0.0715   18.5915 C   0  0  0  0  0  0  0  0  0  0  0  0
    8.1084   -0.4228   18.3615 H   0  0  0  0  0  0  0  0  0  0  0  0
    6.6564    0.0094   19.9020 C   0  0  0  0  0  0  0  0  0  0  0  0
    7.3874   -0.7031   20.9754 C   0  0  0  0  0  0  0  0  0  0  0  0
    8.7709   -0.5479   21.1292 C   0  0  0  0  0  0  0  0  0  0  0  0
    9.3023    0.1230   20.4556 H   0  0  0  0  0  0  0  0  0  0  0  0
    9.4414   -1.2148   22.1578 C   0  0  0  0  0  0  0  0  0  0  0  0
   10.5123   -1.0725   22.2788 H   0  0  0  0  0  0  0  0  0  0  0  0
    8.7345   -2.0481   23.0324 C   0  0  0  0  0  0  0  0  0  0  0  0
    9.2664   -2.5527   23.8376 H   0  0  0  0  0  0  0  0  0  0  0  0
    7.3500   -2.2331   22.8805 C   0  0  0  0  0  0  0  0  0  0  0  0
    6.6046   -3.1386   23.8185 C   0  0  0  0  0  0  0  0  0  0  0  0
    6.6354   -2.7670   25.1032 N   0  0  0  0  0  0  0  0  0  0  0  0
    5.9346   -3.4808   25.9854 C   0  0  0  0  0  0  0  0  0  0  0  0
    5.9775   -3.1256   27.0101 H   0  0  0  0  0  0  0  0  0  0  0  0
    5.1991   -4.6196   25.6515 C   0  0  0  0  0  0  0  0  0  0  0  0
    4.6696   -5.1676   26.4197 H   0  0  0  0  0  0  0  0  0  0  0  0
    5.1943   -5.0499   24.3340 C   0  0  0  0  0  0  0  0  0  0  0  0
    4.6426   -5.9447   24.0298 H   0  0  0  0  0  0  0  0  0  0  0  0
    5.9396   -4.3120   23.4062 C   0  0  0  0  0  0  0  0  0  0  0  0
    5.9871   -4.7510   21.9734 C   0  0  0  0  0  0  0  0  0  0  0  0
    7.1786   -4.5609   21.3830 F   0  0  0  0  0  0  0  0  0  0  0  0
    5.0851   -4.0571   21.2467 F   0  0  0  0  0  0  0  0  0  0  0  0
    5.6858   -6.0561   21.8363 F   0  0  0  0  0  0  0  0  0  0  0  0
    6.6882   -1.5391   21.8598 C   0  0  0  0  0  0  0  0  0  0  0  0
    5.6201   -1.6627   21.7049 H   0  0  0  0  0  0  0  0  0  0  0  0
    5.4327    0.6483   20.1498 C   0  0  0  0  0  0  0  0  0  0  0  0
    5.0163    0.6333   21.1610 H   0  0  0  0  0  0  0  0  0  0  0  0
    4.8024    1.3167   19.0989 C   0  0  0  0  0  0  0  0  0  0  0  0
    3.8713    1.8459   19.2511 H   0  0  0  0  0  0  0  0  0  0  0  0
  1  2  1  0
  2  3  2  0
  3  4  1  0
  4  5  1  0
  4  6  2  0
  6  7  1  0
  7  8  2  0
  8  9  1  0
  8 10  1  0
 10 11  1  0
 10 12  2  0
 12 13  1  0
 12 14  1  0
 14 15  1  0
 15 16  2  0
 16 17  1  0
 17 18  1  0
 17 19  2  0
 19 20  1  0
 19 21  1  0
 21 22  1  0
 21 23  2  0
 23 24  1  0
 24 25  1  0
 24 26  1  0
 24 27  1  0
 14 28  2  0
 28 29  1  0
  6 30  1  0
 30 31  1  0
 30 32  2  0
 32 33  1  0
 32  2  1  0
 28  7  1  0
 23 15  1  0
M  END
>  <cnnaffinity>  (1) 
-5.73578

>  <filename>  (1) 
FC(F)(F)c1cccnc1-c1cccc(-c2cccnc2)c1

$$$$
