
     RDKit          3D

 49 52  0  0  0  0  0  0  0  0999 V2000
    6.6244   -6.4278   23.1166 F   0  0  0  0  0  0  0  0  0  0  0  0
    7.7742   -5.7304   23.0677 C   0  0  0  0  0  0  0  0  0  0  0  0
    8.5416   -6.2916   22.1173 F   0  0  0  0  0  0  0  0  0  0  0  0
    8.4012   -5.9155   24.2435 F   0  0  0  0  0  0  0  0  0  0  0  0
    7.4849   -4.2585   22.7958 C   0  0  0  0  0  0  0  0  0  0  0  0
    8.5651   -3.4628   22.0217 C   0  0  0  0  0  0  0  0  0  0  0  0
    8.1107   -2.0686   21.7624 C   0  0  0  0  0  0  0  0  0  0  0  0
    7.5841   -1.6945   20.6228 N   0  0  0  0  0  0  0  0  0  0  0  0
    7.1412   -0.4386   20.8830 N   0  0  0  0  0  0  0  0  0  0  0  0
    6.4835    0.2504   19.8285 C   0  0  0  0  0  0  0  0  0  0  0  0
    5.3017    0.9791   19.9795 C   0  0  0  0  0  0  0  0  0  0  0  0
    4.7383    1.5568   18.8340 C   0  0  0  0  0  0  0  0  0  0  0  0
    5.3768    1.4059   17.5993 C   0  0  0  0  0  0  0  0  0  0  0  0
    6.5044    0.6888   17.4487 N   0  0  0  0  0  0  0  0  0  0  0  0
    7.0305    0.1251   18.5363 C   0  0  0  0  0  0  0  0  0  0  0  0
    7.9532   -0.4321   18.3988 H   0  0  0  0  0  0  0  0  0  0  0  0
    4.9712    1.8637   16.6967 H   0  0  0  0  0  0  0  0  0  0  0  0
    3.8171    2.1255   18.8921 H   0  0  0  0  0  0  0  0  0  0  0  0
    4.8289    1.0959   20.9575 H   0  0  0  0  0  0  0  0  0  0  0  0
    7.4735   -0.1153   22.1741 C   0  0  0  0  0  0  0  0  0  0  0  0
    7.1734    1.1659   22.8693 C   0  0  0  0  0  0  0  0  0  0  0  0
    8.1759    1.5020   23.9951 C   0  0  0  0  0  0  0  0  0  0  0  0
    7.9496    2.8650   24.5563 C   0  0  0  0  0  0  0  0  0  0  0  0
    8.1617    4.1039   23.9905 C   0  0  0  0  0  0  0  0  0  0  0  0
    8.8835    4.5135   22.7300 C   0  0  0  0  0  0  0  0  0  0  0  0
    8.6456    6.0067   22.4246 C   0  0  0  0  0  0  0  0  0  0  0  0
    8.7672    6.8843   23.6881 C   0  0  0  0  0  0  0  0  0  0  0  0
    7.6490    6.5143   24.6816 C   0  0  0  0  0  0  0  0  0  0  0  0
    7.6518    5.0307   24.9304 C   0  0  0  0  0  0  0  0  0  0  0  0
    7.1834    4.4284   26.0137 N   0  0  0  0  0  0  0  0  0  0  0  0
    7.3776    3.1185   25.7625 N   0  0  0  0  0  0  0  0  0  0  0  0
    7.0711    2.4368   26.4409 H   0  0  0  0  0  0  0  0  0  0  0  0
    6.6830    6.7804   24.2299 H   0  0  0  0  0  0  0  0  0  0  0  0
    7.7110    7.0670   25.6213 H   0  0  0  0  0  0  0  0  0  0  0  0
    8.7055    7.9474   23.4446 H   0  0  0  0  0  0  0  0  0  0  0  0
    9.7504    6.7214   24.1536 H   0  0  0  0  0  0  0  0  0  0  0  0
    7.6332    6.1331   22.0176 H   0  0  0  0  0  0  0  0  0  0  0  0
    9.3312    6.3493   21.6444 H   0  0  0  0  0  0  0  0  0  0  0  0
    9.9663    4.3419   22.8475 H   0  0  0  0  0  0  0  0  0  0  0  0
    8.5725    3.8863   21.8808 H   0  0  0  0  0  0  0  0  0  0  0  0
    9.1970    1.4618   23.5968 H   0  0  0  0  0  0  0  0  0  0  0  0
    8.1344    0.7462   24.7885 H   0  0  0  0  0  0  0  0  0  0  0  0
    7.1544    1.9746   22.1308 H   0  0  0  0  0  0  0  0  0  0  0  0
    6.1673    1.1001   23.3015 H   0  0  0  0  0  0  0  0  0  0  0  0
    8.0837   -1.1369   22.7428 N   0  0  0  0  0  0  0  0  0  0  0  0
    8.7479   -3.9098   21.0413 H   0  0  0  0  0  0  0  0  0  0  0  0
    9.5085   -3.3903   22.5704 H   0  0  0  0  0  0  0  0  0  0  0  0
    7.2986   -3.7985   23.7734 H   0  0  0  0  0  0  0  0  0  0  0  0
    6.5456   -4.2038   22.2305 H   0  0  0  0  0  0  0  0  0  0  0  0
  1  2  1  0
  2  3  1  0
  2  4  1  0
  2  5  1  0
  5  6  1  0
  6  7  1  0
  7  8  2  0
  8  9  1  0
  9 10  1  0
 10 11  2  0
 11 12  1  0
 12 13  2  0
 13 14  1  0
 14 15  2  0
 15 16  1  0
 13 17  1  0
 12 18  1  0
 11 19  1  0
  9 20  1  0
 20 21  1  0
 21 22  1  0
 22 23  1  0
 23 24  2  0
 24 25  1  0
 25 26  1  0
 26 27  1  0
 27 28  1  0
 28 29  1  0
 29 30  2  0
 30 31  1  0
 31 32  1  0
 28 33  1  0
 28 34  1  0
 27 35  1  0
 27 36  1  0
 26 37  1  0
 26 38  1  0
 25 39  1  0
 25 40  1  0
 22 41  1  0
 22 42  1  0
 21 43  1  0
 21 44  1  0
 20 45  2  0
  6 46  1  0
  6 47  1  0
  5 48  1  0
  5 49  1  0
 45  7  1  0
 15 10  1  0
 31 23  1  0
 29 24  1  0
M  END
>  <cnnaffinity>  (1) 
-6.36534

>  <filename>  (1) 
FC(F)(F)CCc1nc(CCc2[nH]nc3c2CCCC3)n(-c2cccnc2)n1

$$$$
