
     RDKit          3D

 28 29  0  0  0  0  0  0  0  0999 V2000
    7.3105    4.6131   21.6300 H   0  0  0  0  0  0  0  0  0  0  0  0
    7.3150    3.6709   22.1732 C   0  0  0  0  0  0  0  0  0  0  0  0
    7.9108    2.6369   21.5733 N   0  0  0  0  0  0  0  0  0  0  0  0
    7.8886    1.4789   22.2450 C   0  0  0  0  0  0  0  0  0  0  0  0
    8.4843    0.2513   21.6151 C   0  0  0  0  0  0  0  0  0  0  0  0
    9.1671    0.5903   20.8379 H   0  0  0  0  0  0  0  0  0  0  0  0
    9.0578   -0.2902   22.3708 H   0  0  0  0  0  0  0  0  0  0  0  0
    7.4140   -0.6868   21.0061 C   0  0  0  0  0  0  0  0  0  0  0  0
    6.7264   -1.0152   21.8004 H   0  0  0  0  0  0  0  0  0  0  0  0
    7.8961   -1.5960   20.6191 H   0  0  0  0  0  0  0  0  0  0  0  0
    6.6468   -0.0034   19.9048 C   0  0  0  0  0  0  0  0  0  0  0  0
    7.1624    0.0656   18.5974 C   0  0  0  0  0  0  0  0  0  0  0  0
    8.1097   -0.4208   18.3639 H   0  0  0  0  0  0  0  0  0  0  0  0
    6.5623    0.6854   17.5744 N   0  0  0  0  0  0  0  0  0  0  0  0
    5.3985    1.2999   17.8366 C   0  0  0  0  0  0  0  0  0  0  0  0
    4.9186    1.7873   16.9909 H   0  0  0  0  0  0  0  0  0  0  0  0
    4.7988    1.3155   19.1003 C   0  0  0  0  0  0  0  0  0  0  0  0
    3.8666    1.8471   19.2488 H   0  0  0  0  0  0  0  0  0  0  0  0
    5.4322    0.6496   20.1524 C   0  0  0  0  0  0  0  0  0  0  0  0
    5.0123    0.6364   21.1652 H   0  0  0  0  0  0  0  0  0  0  0  0
    7.3286    1.2966   23.4405 N   0  0  0  0  0  0  0  0  0  0  0  0
    6.7689    2.3462   24.0520 C   0  0  0  0  0  0  0  0  0  0  0  0
    6.1219    2.1755   25.4626 C   0  0  0  0  0  0  0  0  0  0  0  0
    4.8007    2.4560   25.4159 F   0  0  0  0  0  0  0  0  0  0  0  0
    6.6501    3.0565   26.3406 F   0  0  0  0  0  0  0  0  0  0  0  0
    6.2561    0.9562   25.9849 F   0  0  0  0  0  0  0  0  0  0  0  0
    6.7283    3.5948   23.4298 C   0  0  0  0  0  0  0  0  0  0  0  0
    6.2645    4.4570   23.8904 H   0  0  0  0  0  0  0  0  0  0  0  0
  1  2  1  0
  2  3  2  0
  3  4  1  0
  4  5  1  0
  5  6  1  0
  5  7  1  0
  5  8  1  0
  8  9  1  0
  8 10  1  0
  8 11  1  0
 11 12  2  0
 12 13  1  0
 12 14  1  0
 14 15  2  0
 15 16  1  0
 15 17  1  0
 17 18  1  0
 17 19  2  0
 19 20  1  0
  4 21  2  0
 21 22  1  0
 22 23  1  0
 23 24  1  0
 23 25  1  0
 23 26  1  0
 22 27  2  0
 27 28  1  0
 27  2  1  0
 19 11  1  0
M  END
>  <cnnaffinity>  (1) 
-4.70367

>  <filename>  (1) 
FC(F)(F)c1ccnc(CCc2cccnc2)n1

$$$$
