
     RDKit          3D

 39 42  0  0  0  0  0  0  0  0999 V2000
   11.1070   -0.8545   23.5344 F   0  0  0  0  0  0  0  0  0  0  0  0
   11.2082   -1.5661   22.3726 C   0  0  0  0  0  0  0  0  0  0  0  0
   12.2963   -2.3773   22.4574 F   0  0  0  0  0  0  0  0  0  0  0  0
   10.0239   -2.4854   22.1967 C   0  0  0  0  0  0  0  0  0  0  0  0
    8.7860   -1.7811   22.0164 N   0  0  0  0  0  0  0  0  0  0  0  0
    8.5336   -1.2941   20.7840 N   0  0  0  0  0  0  0  0  0  0  0  0
    7.3701   -0.6952   20.9454 C   0  0  0  0  0  0  0  0  0  0  0  0
    6.6642   -0.0018   19.8864 C   0  0  0  0  0  0  0  0  0  0  0  0
    5.4500    0.6457   20.1532 C   0  0  0  0  0  0  0  0  0  0  0  0
    4.8180    1.2982   19.1036 C   0  0  0  0  0  0  0  0  0  0  0  0
    5.4201    1.2781   17.8406 C   0  0  0  0  0  0  0  0  0  0  0  0
    6.5813    0.6584   17.5774 N   0  0  0  0  0  0  0  0  0  0  0  0
    7.1939    0.0388   18.5894 C   0  0  0  0  0  0  0  0  0  0  0  0
    8.1466   -0.4390   18.3572 H   0  0  0  0  0  0  0  0  0  0  0  0
    4.9542    1.7861   17.0014 H   0  0  0  0  0  0  0  0  0  0  0  0
    3.8858    1.8308   19.2493 H   0  0  0  0  0  0  0  0  0  0  0  0
    5.0340    0.6307   21.1645 H   0  0  0  0  0  0  0  0  0  0  0  0
    6.8717   -0.7611   22.2025 N   0  0  0  0  0  0  0  0  0  0  0  0
    7.7859   -1.4350   22.8569 C   0  0  0  0  0  0  0  0  0  0  0  0
    7.8055   -1.8630   24.2892 C   0  0  0  0  0  0  0  0  0  0  0  0
    6.8254   -1.1397   25.0653 N   0  0  0  0  0  0  0  0  0  0  0  0
    5.5387   -1.5026   25.2064 C   0  0  0  0  0  0  0  0  0  0  0  0
    4.9042   -0.4603   25.8650 C   0  0  0  0  0  0  0  0  0  0  0  0
    3.5789   -0.1894   26.3006 C   0  0  0  0  0  0  0  0  0  0  0  0
    3.3396    1.0068   26.9378 C   0  0  0  0  0  0  0  0  0  0  0  0
    4.3861    1.9651   27.1460 C   0  0  0  0  0  0  0  0  0  0  0  0
    5.6733    1.7351   26.7199 C   0  0  0  0  0  0  0  0  0  0  0  0
    5.9485    0.4926   26.0705 C   0  0  0  0  0  0  0  0  0  0  0  0
    7.1164    0.0622   25.5719 N   0  0  0  0  0  0  0  0  0  0  0  0
    6.4738    2.4504   26.8602 H   0  0  0  0  0  0  0  0  0  0  0  0
    4.1530    2.8905   27.6587 H   0  0  0  0  0  0  0  0  0  0  0  0
    2.3453    1.2330   27.2994 H   0  0  0  0  0  0  0  0  0  0  0  0
    2.7988   -0.9212   26.1280 H   0  0  0  0  0  0  0  0  0  0  0  0
    5.1693   -2.4330   24.7963 H   0  0  0  0  0  0  0  0  0  0  0  0
    7.5713   -2.9309   24.3607 H   0  0  0  0  0  0  0  0  0  0  0  0
    8.7886   -1.6719   24.7270 H   0  0  0  0  0  0  0  0  0  0  0  0
   10.1726   -3.0081   21.2592 H   0  0  0  0  0  0  0  0  0  0  0  0
    9.9982   -3.1837   23.0386 H   0  0  0  0  0  0  0  0  0  0  0  0
   11.3401   -0.8576   21.5520 H   0  0  0  0  0  0  0  0  0  0  0  0
  1  2  1  0
  2  3  1  0
  2  4  1  0
  4  5  1  0
  5  6  1  0
  6  7  2  0
  7  8  1  0
  8  9  2  0
  9 10  1  0
 10 11  2  0
 11 12  1  0
 12 13  2  0
 13 14  1  0
 11 15  1  0
 10 16  1  0
  9 17  1  0
  7 18  1  0
 18 19  2  0
 19 20  1  0
 20 21  1  0
 21 22  1  0
 22 23  2  0
 23 24  1  0
 24 25  2  0
 25 26  1  0
 26 27  2  0
 27 28  1  0
 28 29  2  0
 27 30  1  0
 26 31  1  0
 25 32  1  0
 24 33  1  0
 22 34  1  0
 20 35  1  0
 20 36  1  0
  4 37  1  0
  4 38  1  0
  2 39  1  0
 19  5  1  0
 29 21  1  0
 13  8  1  0
 28 23  1  0
M  END
>  <cnnaffinity>  (1) 
-5.634

>  <filename>  (1) 
FC(F)Cn1nc(-c2cccnc2)nc1Cn1cc2ccccc2n1

$$$$
