
     RDKit          3D

 21 22  0  0  0  0  0  0  0  0999 V2000
    4.9478    1.7758   17.0011 H   0  0  0  0  0  0  0  0  0  0  0  0
    5.4096    1.2827   17.8544 C   0  0  0  0  0  0  0  0  0  0  0  0
    6.5725    0.6582   17.6145 N   0  0  0  0  0  0  0  0  0  0  0  0
    7.1679    0.0437   18.6381 C   0  0  0  0  0  0  0  0  0  0  0  0
    8.1132   -0.4362   18.3789 H   0  0  0  0  0  0  0  0  0  0  0  0
    6.6451   -0.0087   19.9391 C   0  0  0  0  0  0  0  0  0  0  0  0
    7.3542   -0.7289   21.0078 C   0  0  0  0  0  0  0  0  0  0  0  0
    6.6489   -1.1456   22.1201 N   0  0  0  0  0  0  0  0  0  0  0  0
    7.4468   -1.7000   22.9585 C   0  0  0  0  0  0  0  0  0  0  0  0
    7.1132   -2.2274   24.1359 O   0  0  0  0  0  0  0  0  0  0  0  0
    5.7908   -2.1280   24.5635 C   0  0  0  0  0  0  0  0  0  0  0  0
    5.0769   -2.5504   23.8415 H   0  0  0  0  0  0  0  0  0  0  0  0
    5.4920   -0.8513   24.8541 F   0  0  0  0  0  0  0  0  0  0  0  0
    5.7683   -2.8390   25.6956 F   0  0  0  0  0  0  0  0  0  0  0  0
    9.1103   -1.8184   22.4964 S   0  0  0  0  0  0  0  0  0  0  0  0
    8.6812   -1.0095   21.0227 C   0  0  0  0  0  0  0  0  0  0  0  0
    9.4094   -0.7462   20.2766 H   0  0  0  0  0  0  0  0  0  0  0  0
    5.4247    0.6502   20.1739 C   0  0  0  0  0  0  0  0  0  0  0  0
    4.9874    0.6355   21.1759 H   0  0  0  0  0  0  0  0  0  0  0  0
    4.8089    1.3061   19.1166 C   0  0  0  0  0  0  0  0  0  0  0  0
    3.8774    1.8417   19.2494 H   0  0  0  0  0  0  0  0  0  0  0  0
  1  2  1  0
  2  3  2  0
  3  4  1  0
  4  5  1  0
  4  6  2  0
  6  7  1  0
  7  8  1  0
  8  9  2  0
  9 10  1  0
 10 11  1  0
 11 12  1  0
 11 13  1  0
 11 14  1  0
  9 15  1  0
 15 16  1  0
 16 17  1  0
  6 18  1  0
 18 19  1  0
 18 20  2  0
 20 21  1  0
 20  2  1  0
 16  7  2  0
M  END
>  <cnnaffinity>  (1) 
-4.13855

>  <filename>  (1) 
FC(F)Oc1nc(-c2cccnc2)cs1

$$$$
