
     RDKit          3D

 21 21  0  0  0  0  0  0  0  0999 V2000
    6.5961    0.0766   22.6347 H   0  0  0  0  0  0  0  0  0  0  0  0
    7.3110   -0.5708   22.1163 C   0  0  0  0  0  0  0  0  0  0  0  0
    7.4609   -0.7089   20.8604 N   0  0  0  0  0  0  0  0  0  0  0  0
    6.6954   -0.0012   19.9095 C   0  0  0  0  0  0  0  0  0  0  0  0
    7.1851    0.0482   18.5798 C   0  0  0  0  0  0  0  0  0  0  0  0
    8.1301   -0.4490   18.3713 H   0  0  0  0  0  0  0  0  0  0  0  0
    6.5725    0.6718   17.5690 N   0  0  0  0  0  0  0  0  0  0  0  0
    5.4099    1.2975   17.8407 C   0  0  0  0  0  0  0  0  0  0  0  0
    4.9363    1.8112   17.0089 H   0  0  0  0  0  0  0  0  0  0  0  0
    4.8209    1.2980   19.1087 C   0  0  0  0  0  0  0  0  0  0  0  0
    3.8836    1.8220   19.2694 H   0  0  0  0  0  0  0  0  0  0  0  0
    5.4702    0.6375   20.1615 C   0  0  0  0  0  0  0  0  0  0  0  0
    5.0315    0.6160   21.1591 H   0  0  0  0  0  0  0  0  0  0  0  0
    8.0645   -1.2279   23.0245 O   0  0  0  0  0  0  0  0  0  0  0  0
    8.7773   -2.4054   22.6242 C   0  0  0  0  0  0  0  0  0  0  0  0
    9.4953   -2.5945   23.4232 H   0  0  0  0  0  0  0  0  0  0  0  0
    9.3118   -2.2641   21.6784 H   0  0  0  0  0  0  0  0  0  0  0  0
    7.8908   -3.6517   22.4817 C   0  0  0  0  0  0  0  0  0  0  0  0
    8.6770   -4.7426   22.4487 F   0  0  0  0  0  0  0  0  0  0  0  0
    7.1761   -3.6401   21.3496 F   0  0  0  0  0  0  0  0  0  0  0  0
    7.0383   -3.7807   23.5037 F   0  0  0  0  0  0  0  0  0  0  0  0
  1  2  1  0
  2  3  2  3
  3  4  1  0
  4  5  2  0
  5  6  1  0
  5  7  1  0
  7  8  2  0
  8  9  1  0
  8 10  1  0
 10 11  1  0
 10 12  2  0
 12 13  1  0
  2 14  1  0
 14 15  1  0
 15 16  1  0
 15 17  1  0
 15 18  1  0
 18 19  1  0
 18 20  1  0
 18 21  1  0
 12  4  1  0
M  END
>  <cnnaffinity>  (1) 
-4.15707

>  <filename>  (1) 
FC(F)(F)COC=Nc1cccnc1

$$$$
