
     RDKit          3D

 25 26  0  0  0  0  0  0  0  0999 V2000
    4.9292    1.7821   16.9916 H   0  0  0  0  0  0  0  0  0  0  0  0
    5.4039    1.2911   17.8367 C   0  0  0  0  0  0  0  0  0  0  0  0
    6.5670    0.6714   17.5818 N   0  0  0  0  0  0  0  0  0  0  0  0
    7.1642    0.0490   18.6035 C   0  0  0  0  0  0  0  0  0  0  0  0
    8.1099   -0.4370   18.3736 H   0  0  0  0  0  0  0  0  0  0  0  0
    6.6441    0.0239   19.9082 C   0  0  0  0  0  0  0  0  0  0  0  0
    7.3970   -0.6818   20.9435 C   0  0  0  0  0  0  0  0  0  0  0  0
    8.1224   -1.7530   20.7319 N   0  0  0  0  0  0  0  0  0  0  0  0
    8.6172   -2.1237   21.9470 C   0  0  0  0  0  0  0  0  0  0  0  0
    9.2510   -2.9989   22.0339 H   0  0  0  0  0  0  0  0  0  0  0  0
    8.2270   -1.2632   22.9369 C   0  0  0  0  0  0  0  0  0  0  0  0
    8.4422   -1.2119   23.9970 H   0  0  0  0  0  0  0  0  0  0  0  0
    7.4351   -0.3447   22.2776 N   0  0  0  0  0  0  0  0  0  0  0  0
    6.8399    0.8050   22.7512 O   0  0  0  0  0  0  0  0  0  0  0  0
    6.9845    1.0748   24.1389 C   0  0  0  0  0  0  0  0  0  0  0  0
    8.0279    1.2416   24.4277 H   0  0  0  0  0  0  0  0  0  0  0  0
    6.5373    0.2982   24.7681 H   0  0  0  0  0  0  0  0  0  0  0  0
    6.2327    2.3659   24.4170 C   0  0  0  0  0  0  0  0  0  0  0  0
    6.7263    3.4043   23.7314 F   0  0  0  0  0  0  0  0  0  0  0  0
    4.9227    2.2693   24.1501 F   0  0  0  0  0  0  0  0  0  0  0  0
    6.3501    2.6611   25.7296 F   0  0  0  0  0  0  0  0  0  0  0  0
    5.4229    0.6663   20.1607 C   0  0  0  0  0  0  0  0  0  0  0  0
    4.9900    0.6529   21.1629 H   0  0  0  0  0  0  0  0  0  0  0  0
    4.7973    1.3108   19.0984 C   0  0  0  0  0  0  0  0  0  0  0  0
    3.8683    1.8457   19.2495 H   0  0  0  0  0  0  0  0  0  0  0  0
  1  2  1  0
  2  3  2  0
  3  4  1  0
  4  5  1  0
  4  6  2  0
  6  7  1  0
  7  8  2  0
  8  9  1  0
  9 10  1  0
  9 11  2  0
 11 12  1  0
 11 13  1  0
 13 14  1  0
 14 15  1  0
 15 16  1  0
 15 17  1  0
 15 18  1  0
 18 19  1  0
 18 20  1  0
 18 21  1  0
  6 22  1  0
 22 23  1  0
 22 24  2  0
 24 25  1  0
 24  2  1  0
 13  7  1  0
M  END
>  <cnnaffinity>  (1) 
-4.49149

>  <filename>  (1) 
FC(F)(F)COn1ccnc1-c1cccnc1

$$$$
