
     RDKit          3D

 26 27  0  0  0  0  0  0  0  0999 V2000
    4.9106    1.7815   16.9950 H   0  0  0  0  0  0  0  0  0  0  0  0
    5.3985    1.2957   17.8351 C   0  0  0  0  0  0  0  0  0  0  0  0
    6.5630    0.6808   17.5666 N   0  0  0  0  0  0  0  0  0  0  0  0
    7.1733    0.0753   18.5899 C   0  0  0  0  0  0  0  0  0  0  0  0
    8.1161   -0.4273   18.3718 H   0  0  0  0  0  0  0  0  0  0  0  0
    6.6588    0.0115   19.9003 C   0  0  0  0  0  0  0  0  0  0  0  0
    7.3846   -0.6984   20.9760 C   0  0  0  0  0  0  0  0  0  0  0  0
    6.7182   -1.5360   21.8943 C   0  0  0  0  0  0  0  0  0  0  0  0
    5.6487   -1.6833   21.7839 H   0  0  0  0  0  0  0  0  0  0  0  0
    7.3237   -2.2082   22.8790 N   0  0  0  0  0  0  0  0  0  0  0  0
    8.6474   -2.0496   22.9889 C   0  0  0  0  0  0  0  0  0  0  0  0
    9.1336   -2.5678   23.8075 H   0  0  0  0  0  0  0  0  0  0  0  0
    9.4250   -1.2576   22.1259 C   0  0  0  0  0  0  0  0  0  0  0  0
   10.9113   -1.0746   22.3275 C   0  0  0  0  0  0  0  0  0  0  0  0
   11.4164   -0.8877   21.3750 H   0  0  0  0  0  0  0  0  0  0  0  0
   11.3645   -1.9659   22.7673 H   0  0  0  0  0  0  0  0  0  0  0  0
   11.2454    0.0993   23.2403 C   0  0  0  0  0  0  0  0  0  0  0  0
   12.5724    0.2361   23.4036 F   0  0  0  0  0  0  0  0  0  0  0  0
   10.7051   -0.0667   24.4626 F   0  0  0  0  0  0  0  0  0  0  0  0
   10.7772    1.2614   22.7496 F   0  0  0  0  0  0  0  0  0  0  0  0
    8.7703   -0.5647   21.1095 C   0  0  0  0  0  0  0  0  0  0  0  0
    9.3202    0.1050   20.4461 H   0  0  0  0  0  0  0  0  0  0  0  0
    5.4341    0.6478   20.1512 C   0  0  0  0  0  0  0  0  0  0  0  0
    5.0127    0.6346   21.1589 H   0  0  0  0  0  0  0  0  0  0  0  0
    4.8034    1.3149   19.1022 C   0  0  0  0  0  0  0  0  0  0  0  0
    3.8707    1.8461   19.2588 H   0  0  0  0  0  0  0  0  0  0  0  0
  1  2  1  0
  2  3  2  0
  3  4  1  0
  4  5  1  0
  4  6  2  0
  6  7  1  0
  7  8  2  0
  8  9  1  0
  8 10  1  0
 10 11  2  0
 11 12  1  0
 11 13  1  0
 13 14  1  0
 14 15  1  0
 14 16  1  0
 14 17  1  0
 17 18  1  0
 17 19  1  0
 17 20  1  0
 13 21  2  0
 21 22  1  0
  6 23  1  0
 23 24  1  0
 23 25  2  0
 25 26  1  0
 25  2  1  0
 21  7  1  0
M  END
>  <cnnaffinity>  (1) 
-5.16762

>  <filename>  (1) 
FC(F)(F)Cc1cncc(-c2cccnc2)c1

$$$$
