
     RDKit          3D

 29 31  0  0  0  0  0  0  0  0999 V2000
    4.9481    1.8293   16.9863 H   0  0  0  0  0  0  0  0  0  0  0  0
    5.3944    1.2941   17.8230 C   0  0  0  0  0  0  0  0  0  0  0  0
    6.5395    0.6410   17.5714 N   0  0  0  0  0  0  0  0  0  0  0  0
    7.1302    0.0043   18.5852 C   0  0  0  0  0  0  0  0  0  0  0  0
    8.0632   -0.5062   18.3531 H   0  0  0  0  0  0  0  0  0  0  0  0
    6.6312    0.0037   19.8971 C   0  0  0  0  0  0  0  0  0  0  0  0
    7.4082   -0.6304   20.9522 C   0  0  0  0  0  0  0  0  0  0  0  0
    7.9857   -1.8706   20.7989 N   0  0  0  0  0  0  0  0  0  0  0  0
    8.5692   -2.0780   21.9423 C   0  0  0  0  0  0  0  0  0  0  0  0
    8.5012   -1.0196   22.7911 N   0  0  0  0  0  0  0  0  0  0  0  0
    7.7003   -0.0863   22.1974 C   0  0  0  0  0  0  0  0  0  0  0  0
    7.4104    1.2104   22.8761 C   0  0  0  0  0  0  0  0  0  0  0  0
    8.3425    1.6554   23.2408 H   0  0  0  0  0  0  0  0  0  0  0  0
    6.9832    1.9192   22.1658 H   0  0  0  0  0  0  0  0  0  0  0  0
    6.4936    1.2060   24.0944 C   0  0  0  0  0  0  0  0  0  0  0  0
    5.2375    0.8245   23.8161 F   0  0  0  0  0  0  0  0  0  0  0  0
    6.9474    0.4224   25.0908 F   0  0  0  0  0  0  0  0  0  0  0  0
    6.4187    2.4618   24.5740 F   0  0  0  0  0  0  0  0  0  0  0  0
    9.2325   -1.1308   24.0390 C   0  0  0  0  0  0  0  0  0  0  0  0
    8.5560   -1.4524   24.8338 H   0  0  0  0  0  0  0  0  0  0  0  0
    9.6767   -0.1707   24.3161 H   0  0  0  0  0  0  0  0  0  0  0  0
   10.2930   -2.1973   23.7336 C   0  0  0  0  0  0  0  0  0  0  0  0
   10.7104   -2.6896   24.6154 H   0  0  0  0  0  0  0  0  0  0  0  0
   11.1004   -1.7832   23.1213 H   0  0  0  0  0  0  0  0  0  0  0  0
    9.4274   -3.4150   22.6838 S   0  0  0  0  0  0  0  0  0  0  0  0
    5.4132    0.6608   20.1365 C   0  0  0  0  0  0  0  0  0  0  0  0
    4.9676    0.6575   21.1333 H   0  0  0  0  0  0  0  0  0  0  0  0
    4.7818    1.3108   19.0797 C   0  0  0  0  0  0  0  0  0  0  0  0
    3.8554    1.8553   19.2226 H   0  0  0  0  0  0  0  0  0  0  0  0
  1  2  1  0
  2  3  2  0
  3  4  1  0
  4  5  1  0
  4  6  2  0
  6  7  1  0
  7  8  1  0
  8  9  2  0
  9 10  1  0
 10 11  1  0
 11 12  1  0
 12 13  1  0
 12 14  1  0
 12 15  1  0
 15 16  1  0
 15 17  1  0
 15 18  1  0
 10 19  1  0
 19 20  1  0
 19 21  1  0
 19 22  1  0
 22 23  1  0
 22 24  1  0
 22 25  1  0
  6 26  1  0
 26 27  1  0
 26 28  2  0
 28 29  1  0
 28  2  1  0
 11  7  2  0
 25  9  1  0
M  END
>  <cnnaffinity>  (1) 
-5.34349

>  <filename>  (1) 
FC(F)(F)Cc1c(-c2cccnc2)nc2n1CCS2

$$$$
