
     RDKit          3D

 26 28  0  0  0  0  0  0  0  0999 V2000
    7.6655    5.4630   24.3347 F   0  0  0  0  0  0  0  0  0  0  0  0
    7.4124    4.2723   24.8814 C   0  0  0  0  0  0  0  0  0  0  0  0
    8.2939    4.0869   25.8751 F   0  0  0  0  0  0  0  0  0  0  0  0
    6.1970    4.3351   25.4519 F   0  0  0  0  0  0  0  0  0  0  0  0
    7.4726    3.1441   23.8685 C   0  0  0  0  0  0  0  0  0  0  0  0
    7.2871    3.3254   22.5999 N   0  0  0  0  0  0  0  0  0  0  0  0
    7.3285    2.1750   21.8914 N   0  0  0  0  0  0  0  0  0  0  0  0
    7.5298    1.1221   22.6424 C   0  0  0  0  0  0  0  0  0  0  0  0
    7.6835   -0.2484   22.1873 C   0  0  0  0  0  0  0  0  0  0  0  0
    8.2528   -1.3173   22.8459 C   0  0  0  0  0  0  0  0  0  0  0  0
    8.2394   -2.3497   21.9035 C   0  0  0  0  0  0  0  0  0  0  0  0
    7.7055   -1.9703   20.7496 N   0  0  0  0  0  0  0  0  0  0  0  0
    7.3501   -0.6930   20.9331 N   0  0  0  0  0  0  0  0  0  0  0  0
    6.6522    0.0019   19.9107 C   0  0  0  0  0  0  0  0  0  0  0  0
    5.4271    0.6246   20.1638 C   0  0  0  0  0  0  0  0  0  0  0  0
    4.8066    1.2958   19.1071 C   0  0  0  0  0  0  0  0  0  0  0  0
    5.4075    1.2888   17.8459 C   0  0  0  0  0  0  0  0  0  0  0  0
    6.5752    0.6713   17.6001 N   0  0  0  0  0  0  0  0  0  0  0  0
    7.1794    0.0454   18.6099 C   0  0  0  0  0  0  0  0  0  0  0  0
    8.1258   -0.4395   18.3788 H   0  0  0  0  0  0  0  0  0  0  0  0
    4.9219    1.7780   16.9997 H   0  0  0  0  0  0  0  0  0  0  0  0
    3.8803    1.8392   19.2644 H   0  0  0  0  0  0  0  0  0  0  0  0
    5.0063    0.6399   21.1702 H   0  0  0  0  0  0  0  0  0  0  0  0
    8.6137   -3.3562   22.0308 H   0  0  0  0  0  0  0  0  0  0  0  0
    8.6501   -1.3378   23.8510 H   0  0  0  0  0  0  0  0  0  0  0  0
    7.7128    1.4934   24.3294 S   0  0  0  0  0  0  0  0  0  0  0  0
  1  2  1  0
  2  3  1  0
  2  4  1  0
  2  5  1  0
  5  6  2  0
  6  7  1  0
  7  8  2  0
  8  9  1  0
  9 10  2  0
 10 11  1  0
 11 12  2  0
 12 13  1  0
 13 14  1  0
 14 15  2  0
 15 16  1  0
 16 17  2  0
 17 18  1  0
 18 19  2  0
 19 20  1  0
 17 21  1  0
 16 22  1  0
 15 23  1  0
 11 24  1  0
 10 25  1  0
  8 26  1  0
 26  5  1  0
 13  9  1  0
 19 14  1  0
M  END
>  <cnnaffinity>  (1) 
-5.09121

>  <filename>  (1) 
FC(F)(F)c1nnc(-c2ccnn2-c2cccnc2)s1

$$$$
