
     RDKit          3D

 28 29  0  0  0  0  0  0  0  0999 V2000
    4.9340    1.8763   16.9608 H   0  0  0  0  0  0  0  0  0  0  0  0
    5.3716    1.3084   17.7781 C   0  0  0  0  0  0  0  0  0  0  0  0
    6.5165    0.6580   17.5050 N   0  0  0  0  0  0  0  0  0  0  0  0
    7.1124    0.0020   18.5083 C   0  0  0  0  0  0  0  0  0  0  0  0
    8.0545   -0.4945   18.2705 H   0  0  0  0  0  0  0  0  0  0  0  0
    6.6006   -0.0487   19.8164 C   0  0  0  0  0  0  0  0  0  0  0  0
    7.5234   -0.8110   21.1228 S   0  0  0  0  0  0  0  0  0  0  0  0
    8.3726    0.7019   21.7034 C   0  0  0  0  0  0  0  0  0  0  0  0
    8.9819    1.0915   20.8771 H   0  0  0  0  0  0  0  0  0  0  0  0
    7.6411    1.4670   21.9690 H   0  0  0  0  0  0  0  0  0  0  0  0
    9.2612    0.3569   22.8675 C   0  0  0  0  0  0  0  0  0  0  0  0
   10.5476   -0.0941   22.5601 C   0  0  0  0  0  0  0  0  0  0  0  0
   10.7957   -0.2727   21.5204 H   0  0  0  0  0  0  0  0  0  0  0  0
   11.4975   -0.3071   23.5593 C   0  0  0  0  0  0  0  0  0  0  0  0
   12.5269   -0.5485   23.3010 H   0  0  0  0  0  0  0  0  0  0  0  0
   11.1128   -0.2164   24.8983 C   0  0  0  0  0  0  0  0  0  0  0  0
   11.8370   -0.4308   25.6783 H   0  0  0  0  0  0  0  0  0  0  0  0
    9.8041    0.1487   25.2292 C   0  0  0  0  0  0  0  0  0  0  0  0
    9.4954    0.1725   26.2716 H   0  0  0  0  0  0  0  0  0  0  0  0
    8.8859    0.4912   24.2192 C   0  0  0  0  0  0  0  0  0  0  0  0
    7.5312    1.0909   24.5582 C   0  0  0  0  0  0  0  0  0  0  0  0
    7.2455    1.0760   25.8694 F   0  0  0  0  0  0  0  0  0  0  0  0
    6.5051    0.4730   23.9399 F   0  0  0  0  0  0  0  0  0  0  0  0
    7.4758    2.3836   24.1573 F   0  0  0  0  0  0  0  0  0  0  0  0
    5.3900    0.6106   20.0776 C   0  0  0  0  0  0  0  0  0  0  0  0
    4.9803    0.6099   21.0872 H   0  0  0  0  0  0  0  0  0  0  0  0
    4.7631    1.2970   19.0383 C   0  0  0  0  0  0  0  0  0  0  0  0
    3.8457    1.8565   19.1999 H   0  0  0  0  0  0  0  0  0  0  0  0
  1  2  1  0
  2  3  2  0
  3  4  1  0
  4  5  1  0
  4  6  2  0
  6  7  1  0
  7  8  1  0
  8  9  1  0
  8 10  1  0
  8 11  1  0
 11 12  2  0
 12 13  1  0
 12 14  1  0
 14 15  1  0
 14 16  2  0
 16 17  1  0
 16 18  1  0
 18 19  1  0
 18 20  2  0
 20 21  1  0
 21 22  1  0
 21 23  1  0
 21 24  1  0
  6 25  1  0
 25 26  1  0
 25 27  2  0
 27 28  1  0
 27  2  1  0
 20 11  1  0
M  END
>  <cnnaffinity>  (1) 
-4.86791

>  <filename>  (1) 
FC(F)(F)c1ccccc1CSc1cccnc1

$$$$
