
     RDKit          3D

 39 42  0  0  0  0  0  0  0  0999 V2000
   10.6148   -0.7516   24.5179 F   0  0  0  0  0  0  0  0  0  0  0  0
   11.0862   -0.2474   23.3634 C   0  0  0  0  0  0  0  0  0  0  0  0
   10.2781    0.7720   23.0196 F   0  0  0  0  0  0  0  0  0  0  0  0
   12.2958    0.2857   23.6322 F   0  0  0  0  0  0  0  0  0  0  0  0
   11.2286   -1.2938   22.2732 C   0  0  0  0  0  0  0  0  0  0  0  0
   10.0981   -2.3155   22.1349 C   0  0  0  0  0  0  0  0  0  0  0  0
    8.7821   -1.7450   21.9167 N   0  0  0  0  0  0  0  0  0  0  0  0
    8.4787   -1.2890   20.6797 N   0  0  0  0  0  0  0  0  0  0  0  0
    7.3269   -0.6765   20.8662 C   0  0  0  0  0  0  0  0  0  0  0  0
    6.6110    0.0158   19.8166 C   0  0  0  0  0  0  0  0  0  0  0  0
    5.4024    0.6761   20.0669 C   0  0  0  0  0  0  0  0  0  0  0  0
    4.7973    1.3340   19.0027 C   0  0  0  0  0  0  0  0  0  0  0  0
    5.4260    1.3142   17.7504 C   0  0  0  0  0  0  0  0  0  0  0  0
    6.5828    0.6783   17.5068 N   0  0  0  0  0  0  0  0  0  0  0  0
    7.1604    0.0448   18.5303 C   0  0  0  0  0  0  0  0  0  0  0  0
    8.1013   -0.4661   18.3332 H   0  0  0  0  0  0  0  0  0  0  0  0
    4.9819    1.8296   16.9032 H   0  0  0  0  0  0  0  0  0  0  0  0
    3.8670    1.8736   19.1357 H   0  0  0  0  0  0  0  0  0  0  0  0
    4.9765    0.6694   21.0734 H   0  0  0  0  0  0  0  0  0  0  0  0
    6.8722   -0.7032   22.1399 N   0  0  0  0  0  0  0  0  0  0  0  0
    7.7992   -1.3911   22.7763 C   0  0  0  0  0  0  0  0  0  0  0  0
    7.8087   -1.7841   24.1877 C   0  0  0  0  0  0  0  0  0  0  0  0
    7.9616   -3.1144   24.5723 C   0  0  0  0  0  0  0  0  0  0  0  0
    8.0485   -3.4694   25.9359 C   0  0  0  0  0  0  0  0  0  0  0  0
    7.9779   -2.5104   26.9364 C   0  0  0  0  0  0  0  0  0  0  0  0
    7.7496   -1.1708   26.5536 C   0  0  0  0  0  0  0  0  0  0  0  0
    7.6823   -0.8006   25.1999 C   0  0  0  0  0  0  0  0  0  0  0  0
    7.4898    0.6095   25.2270 C   0  0  0  0  0  0  0  0  0  0  0  0
    7.4033    1.0701   26.4639 N   0  0  0  0  0  0  0  0  0  0  0  0
    7.5678   -0.0147   27.2596 N   0  0  0  0  0  0  0  0  0  0  0  0
    7.4538    0.0676   28.2615 H   0  0  0  0  0  0  0  0  0  0  0  0
    7.4337    1.2376   24.3491 H   0  0  0  0  0  0  0  0  0  0  0  0
    8.1313   -2.7735   27.9679 H   0  0  0  0  0  0  0  0  0  0  0  0
    8.1688   -4.5156   26.1950 H   0  0  0  0  0  0  0  0  0  0  0  0
    8.0038   -3.8895   23.8111 H   0  0  0  0  0  0  0  0  0  0  0  0
   10.2890   -2.8870   21.2340 H   0  0  0  0  0  0  0  0  0  0  0  0
   10.0658   -2.9852   22.9990 H   0  0  0  0  0  0  0  0  0  0  0  0
   11.3777   -0.7569   21.3349 H   0  0  0  0  0  0  0  0  0  0  0  0
   12.1496   -1.8384   22.4884 H   0  0  0  0  0  0  0  0  0  0  0  0
  1  2  1  0
  2  3  1  0
  2  4  1  0
  2  5  1  0
  5  6  1  0
  6  7  1  0
  7  8  1  0
  8  9  2  0
  9 10  1  0
 10 11  2  0
 11 12  1  0
 12 13  2  0
 13 14  1  0
 14 15  2  0
 15 16  1  0
 13 17  1  0
 12 18  1  0
 11 19  1  0
  9 20  1  0
 20 21  2  0
 21 22  1  0
 22 23  2  0
 23 24  1  0
 24 25  2  0
 25 26  1  0
 26 27  2  0
 27 28  1  0
 28 29  2  0
 29 30  1  0
 30 31  1  0
 28 32  1  0
 25 33  1  0
 24 34  1  0
 23 35  1  0
  6 36  1  0
  6 37  1  0
  5 38  1  0
  5 39  1  0
 21  7  1  0
 27 22  1  0
 15 10  1  0
 30 26  1  0
M  END
>  <cnnaffinity>  (1) 
-6.17938

>  <filename>  (1) 
FC(F)(F)CCn1nc(-c2cccnc2)nc1-c1cccc2[nH]ncc12

$$$$
