
     RDKit          3D

 41 44  0  0  0  0  0  0  0  0999 V2000
   11.5322   -0.6682   21.6541 F   0  0  0  0  0  0  0  0  0  0  0  0
   11.2194   -1.5937   22.5912 C   0  0  0  0  0  0  0  0  0  0  0  0
   10.9001   -0.9220   23.7441 F   0  0  0  0  0  0  0  0  0  0  0  0
   10.0637   -2.4816   22.1638 C   0  0  0  0  0  0  0  0  0  0  0  0
    8.8020   -1.8064   21.9825 N   0  0  0  0  0  0  0  0  0  0  0  0
    8.5184   -1.3166   20.7581 N   0  0  0  0  0  0  0  0  0  0  0  0
    7.3586   -0.7187   20.9437 C   0  0  0  0  0  0  0  0  0  0  0  0
    6.6562   -0.0054   19.8925 C   0  0  0  0  0  0  0  0  0  0  0  0
    5.4442    0.6492   20.1529 C   0  0  0  0  0  0  0  0  0  0  0  0
    4.8162    1.3002   19.0995 C   0  0  0  0  0  0  0  0  0  0  0  0
    5.4232    1.2775   17.8390 C   0  0  0  0  0  0  0  0  0  0  0  0
    6.5854    0.6558   17.5814 N   0  0  0  0  0  0  0  0  0  0  0  0
    7.1916    0.0379   18.5983 C   0  0  0  0  0  0  0  0  0  0  0  0
    8.1466   -0.4398   18.3698 H   0  0  0  0  0  0  0  0  0  0  0  0
    4.9609    1.7873   16.9980 H   0  0  0  0  0  0  0  0  0  0  0  0
    3.8822    1.8334   19.2421 H   0  0  0  0  0  0  0  0  0  0  0  0
    5.0201    0.6401   21.1603 H   0  0  0  0  0  0  0  0  0  0  0  0
    6.8764   -0.8077   22.2060 N   0  0  0  0  0  0  0  0  0  0  0  0
    7.8058   -1.4829   22.8433 C   0  0  0  0  0  0  0  0  0  0  0  0
    7.7947   -1.9015   24.2822 C   0  0  0  0  0  0  0  0  0  0  0  0
    7.4017   -0.7735   25.1828 C   0  0  0  0  0  0  0  0  0  0  0  0
    6.1381   -0.4879   25.5561 C   0  0  0  0  0  0  0  0  0  0  0  0
    6.0953    0.7779   26.2697 C   0  0  0  0  0  0  0  0  0  0  0  0
    5.0227    1.4708   26.8547 C   0  0  0  0  0  0  0  0  0  0  0  0
    5.2818    2.6794   27.5020 C   0  0  0  0  0  0  0  0  0  0  0  0
    6.5906    3.1931   27.5543 C   0  0  0  0  0  0  0  0  0  0  0  0
    7.6570    2.5050   26.9545 C   0  0  0  0  0  0  0  0  0  0  0  0
    7.4122    1.2948   26.3116 C   0  0  0  0  0  0  0  0  0  0  0  0
    8.3527    0.3279   25.5852 C   0  0  0  0  0  0  0  0  0  0  0  0
    9.1783   -0.0367   26.2174 H   0  0  0  0  0  0  0  0  0  0  0  0
    8.8376    0.7819   24.7042 H   0  0  0  0  0  0  0  0  0  0  0  0
    8.6618    2.9131   26.9968 H   0  0  0  0  0  0  0  0  0  0  0  0
    6.7771    4.1318   28.0655 H   0  0  0  0  0  0  0  0  0  0  0  0
    4.4716    3.2287   27.9743 H   0  0  0  0  0  0  0  0  0  0  0  0
    4.0133    1.0710   26.8095 H   0  0  0  0  0  0  0  0  0  0  0  0
    5.2639   -1.0900   25.3226 H   0  0  0  0  0  0  0  0  0  0  0  0
    7.1034   -2.7454   24.3928 H   0  0  0  0  0  0  0  0  0  0  0  0
    8.7887   -2.2612   24.5557 H   0  0  0  0  0  0  0  0  0  0  0  0
    9.9731   -3.2927   22.8952 H   0  0  0  0  0  0  0  0  0  0  0  0
   10.2869   -2.8904   21.1805 H   0  0  0  0  0  0  0  0  0  0  0  0
   12.1061   -2.2036   22.7866 H   0  0  0  0  0  0  0  0  0  0  0  0
  1  2  1  0
  2  3  1  0
  2  4  1  0
  4  5  1  0
  5  6  1  0
  6  7  2  0
  7  8  1  0
  8  9  2  0
  9 10  1  0
 10 11  2  0
 11 12  1  0
 12 13  2  0
 13 14  1  0
 11 15  1  0
 10 16  1  0
  9 17  1  0
  7 18  1  0
 18 19  2  0
 19 20  1  0
 20 21  1  0
 21 22  2  0
 22 23  1  0
 23 24  2  0
 24 25  1  0
 25 26  2  0
 26 27  1  0
 27 28  2  0
 28 29  1  0
 29 30  1  0
 29 31  1  0
 27 32  1  0
 26 33  1  0
 25 34  1  0
 24 35  1  0
 22 36  1  0
 20 37  1  0
 20 38  1  0
  4 39  1  0
  4 40  1  0
  2 41  1  0
 19  5  1  0
 29 21  1  0
 13  8  1  0
 28 23  1  0
M  END
>  <cnnaffinity>  (1) 
-6.22081

>  <filename>  (1) 
FC(F)Cn1nc(-c2cccnc2)nc1CC1=Cc2ccccc2C1

$$$$
