
     RDKit          3D

 36 39  0  0  0  0  0  0  0  0999 V2000
   11.6679   -0.9874   21.2088 F   0  0  0  0  0  0  0  0  0  0  0  0
   11.3109   -1.6461   22.3108 C   0  0  0  0  0  0  0  0  0  0  0  0
   11.3204   -0.7656   23.3330 F   0  0  0  0  0  0  0  0  0  0  0  0
   12.2558   -2.5711   22.5456 F   0  0  0  0  0  0  0  0  0  0  0  0
    9.9956   -2.3997   22.1765 C   0  0  0  0  0  0  0  0  0  0  0  0
    8.8142   -1.5756   22.0647 N   0  0  0  0  0  0  0  0  0  0  0  0
    8.5337   -1.0818   20.8369 N   0  0  0  0  0  0  0  0  0  0  0  0
    7.3314   -0.5589   20.9889 C   0  0  0  0  0  0  0  0  0  0  0  0
    6.5972    0.0969   19.9048 C   0  0  0  0  0  0  0  0  0  0  0  0
    5.3575    0.7352   20.0866 C   0  0  0  0  0  0  0  0  0  0  0  0
    4.7736    1.3557   18.9832 C   0  0  0  0  0  0  0  0  0  0  0  0
    5.4290    1.3006   17.7476 C   0  0  0  0  0  0  0  0  0  0  0  0
    6.5853    0.6503   17.5552 N   0  0  0  0  0  0  0  0  0  0  0  0
    7.1512    0.0667   18.6151 C   0  0  0  0  0  0  0  0  0  0  0  0
    8.0829   -0.4615   18.4190 H   0  0  0  0  0  0  0  0  0  0  0  0
    5.0027    1.7990   16.8784 H   0  0  0  0  0  0  0  0  0  0  0  0
    3.8334    1.8897   19.0673 H   0  0  0  0  0  0  0  0  0  0  0  0
    4.8626    0.7317   21.0607 H   0  0  0  0  0  0  0  0  0  0  0  0
    6.8122   -0.7133   22.2286 N   0  0  0  0  0  0  0  0  0  0  0  0
    7.7580   -1.3504   22.8942 C   0  0  0  0  0  0  0  0  0  0  0  0
    7.7626   -1.8030   24.3170 C   0  0  0  0  0  0  0  0  0  0  0  0
    8.8506   -1.6263   25.1985 C   0  0  0  0  0  0  0  0  0  0  0  0
    8.7382   -1.9974   26.5562 C   0  0  0  0  0  0  0  0  0  0  0  0
    7.6446   -2.5222   27.1322 N   0  0  0  0  0  0  0  0  0  0  0  0
    6.6379   -2.6967   26.2768 C   0  0  0  0  0  0  0  0  0  0  0  0
    6.6210   -2.4160   24.8773 C   0  0  0  0  0  0  0  0  0  0  0  0
    5.3552   -2.8871   24.3880 C   0  0  0  0  0  0  0  0  0  0  0  0
    4.6495   -3.3570   25.4580 C   0  0  0  0  0  0  0  0  0  0  0  0
    5.4221   -3.2297   26.5953 N   0  0  0  0  0  0  0  0  0  0  0  0
    5.2004   -3.4584   27.5468 H   0  0  0  0  0  0  0  0  0  0  0  0
    3.6516   -3.7841   25.4908 H   0  0  0  0  0  0  0  0  0  0  0  0
    5.0433   -2.8574   23.3509 H   0  0  0  0  0  0  0  0  0  0  0  0
    9.5922   -1.8585   27.2110 H   0  0  0  0  0  0  0  0  0  0  0  0
    9.7780   -1.1651   24.8782 H   0  0  0  0  0  0  0  0  0  0  0  0
   10.0632   -2.9502   21.2427 H   0  0  0  0  0  0  0  0  0  0  0  0
    9.9193   -3.1126   22.9994 H   0  0  0  0  0  0  0  0  0  0  0  0
  1  2  1  0
  2  3  1  0
  2  4  1  0
  2  5  1  0
  5  6  1  0
  6  7  1  0
  7  8  2  0
  8  9  1  0
  9 10  2  0
 10 11  1  0
 11 12  2  0
 12 13  1  0
 13 14  2  0
 14 15  1  0
 12 16  1  0
 11 17  1  0
 10 18  1  0
  8 19  1  0
 19 20  2  0
 20 21  1  0
 21 22  2  0
 22 23  1  0
 23 24  2  0
 24 25  1  0
 25 26  2  0
 26 27  1  0
 27 28  2  0
 28 29  1  0
 29 30  1  0
 28 31  1  0
 27 32  1  0
 23 33  1  0
 22 34  1  0
  5 35  1  0
  5 36  1  0
 20  6  1  0
 26 21  1  0
 14  9  1  0
 29 25  1  0
M  END
>  <cnnaffinity>  (1) 
-5.83638

>  <filename>  (1) 
FC(F)(F)Cn1nc(-c2cccnc2)nc1-c1ccnc2[nH]ccc12

$$$$
