
     RDKit          3D

 34 37  0  0  0  0  0  0  0  0999 V2000
   11.6322   -1.0476   21.1723 F   0  0  0  0  0  0  0  0  0  0  0  0
   11.3170   -1.7435   22.2921 C   0  0  0  0  0  0  0  0  0  0  0  0
   11.2686   -0.8620   23.3320 F   0  0  0  0  0  0  0  0  0  0  0  0
   10.0020   -2.4986   22.1480 C   0  0  0  0  0  0  0  0  0  0  0  0
    8.7921   -1.6913   22.0950 N   0  0  0  0  0  0  0  0  0  0  0  0
    8.5003   -1.1810   20.8782 N   0  0  0  0  0  0  0  0  0  0  0  0
    7.3141   -0.6396   21.0513 C   0  0  0  0  0  0  0  0  0  0  0  0
    6.5991    0.0241   19.9642 C   0  0  0  0  0  0  0  0  0  0  0  0
    5.3758    0.6774   20.1657 C   0  0  0  0  0  0  0  0  0  0  0  0
    4.7906    1.3161   19.0747 C   0  0  0  0  0  0  0  0  0  0  0  0
    5.4402    1.2742   17.8346 C   0  0  0  0  0  0  0  0  0  0  0  0
    6.5997    0.6327   17.6292 N   0  0  0  0  0  0  0  0  0  0  0  0
    7.1622    0.0250   18.6778 C   0  0  0  0  0  0  0  0  0  0  0  0
    8.1048   -0.4862   18.4890 H   0  0  0  0  0  0  0  0  0  0  0  0
    5.0154    1.7763   16.9671 H   0  0  0  0  0  0  0  0  0  0  0  0
    3.8606    1.8639   19.1702 H   0  0  0  0  0  0  0  0  0  0  0  0
    4.9113    0.6898   21.1549 H   0  0  0  0  0  0  0  0  0  0  0  0
    6.8120   -0.7763   22.2996 N   0  0  0  0  0  0  0  0  0  0  0  0
    7.7486   -1.4481   22.9490 C   0  0  0  0  0  0  0  0  0  0  0  0
    7.7359   -1.8578   24.3453 C   0  0  0  0  0  0  0  0  0  0  0  0
    6.6064   -2.0612   25.1492 C   0  0  0  0  0  0  0  0  0  0  0  0
    4.8691   -2.1851   25.0595 S   0  0  0  0  0  0  0  0  0  0  0  0
    4.7517   -2.2967   26.7847 C   0  0  0  0  0  0  0  0  0  0  0  0
    5.9606   -2.3283   27.3660 C   0  0  0  0  0  0  0  0  0  0  0  0
    7.0140   -2.2522   26.4441 N   0  0  0  0  0  0  0  0  0  0  0  0
    8.3970   -2.2661   26.4797 C   0  0  0  0  0  0  0  0  0  0  0  0
    8.8646   -2.0296   25.2194 C   0  0  0  0  0  0  0  0  0  0  0  0
    9.9101   -1.9339   24.9499 H   0  0  0  0  0  0  0  0  0  0  0  0
    8.9264   -2.4790   27.3954 H   0  0  0  0  0  0  0  0  0  0  0  0
    6.1034   -2.3372   28.4305 H   0  0  0  0  0  0  0  0  0  0  0  0
    3.8025   -2.2853   27.3054 H   0  0  0  0  0  0  0  0  0  0  0  0
    9.9439   -3.2552   22.9367 H   0  0  0  0  0  0  0  0  0  0  0  0
   10.0386   -2.9731   21.1668 H   0  0  0  0  0  0  0  0  0  0  0  0
   12.1291   -2.4564   22.4801 H   0  0  0  0  0  0  0  0  0  0  0  0
  1  2  1  0
  2  3  1  0
  2  4  1  0
  4  5  1  0
  5  6  1  0
  6  7  2  0
  7  8  1  0
  8  9  2  0
  9 10  1  0
 10 11  2  0
 11 12  1  0
 12 13  2  0
 13 14  1  0
 11 15  1  0
 10 16  1  0
  9 17  1  0
  7 18  1  0
 18 19  2  0
 19 20  1  0
 20 21  2  0
 21 22  1  0
 22 23  1  0
 23 24  2  0
 24 25  1  0
 25 26  1  0
 26 27  2  0
 27 28  1  0
 26 29  1  0
 24 30  1  0
 23 31  1  0
  4 32  1  0
  4 33  1  0
  2 34  1  0
 19  5  1  0
 27 20  1  0
 13  8  1  0
 25 21  1  0
M  END
>  <cnnaffinity>  (1) 
-5.70079

>  <filename>  (1) 
FC(F)Cn1nc(-c2cccnc2)nc1-c1ccn2ccsc12

$$$$
