
     RDKit          3D

 26 27  0  0  0  0  0  0  0  0999 V2000
    8.7422   -0.1058   20.1432 H   0  0  0  0  0  0  0  0  0  0  0  0
    8.1883   -0.8182   20.7331 C   0  0  0  0  0  0  0  0  0  0  0  0
    6.8305   -0.9193   20.5361 C   0  0  0  0  0  0  0  0  0  0  0  0
    5.8062   -2.2043   21.4981 Br  0  0  0  0  0  0  0  0  0  0  0  0
    6.2214   -0.0505   19.5437 C   0  0  0  0  0  0  0  0  0  0  0  0
    6.9090    0.1717   18.3444 C   0  0  0  0  0  0  0  0  0  0  0  0
    7.8718   -0.3164   18.2009 H   0  0  0  0  0  0  0  0  0  0  0  0
    6.4361    0.9548   17.3648 N   0  0  0  0  0  0  0  0  0  0  0  0
    5.2666    1.5804   17.5654 C   0  0  0  0  0  0  0  0  0  0  0  0
    4.8831    2.2149   16.7739 H   0  0  0  0  0  0  0  0  0  0  0  0
    4.5374    1.4471   18.7507 C   0  0  0  0  0  0  0  0  0  0  0  0
    3.6209    2.0121   18.8574 H   0  0  0  0  0  0  0  0  0  0  0  0
    5.0083    0.6146   19.7647 C   0  0  0  0  0  0  0  0  0  0  0  0
    4.4677    0.5221   20.7077 H   0  0  0  0  0  0  0  0  0  0  0  0
    8.9614   -1.5298   21.7163 C   0  0  0  0  0  0  0  0  0  0  0  0
   10.2271   -1.1385   21.8363 N   0  0  0  0  0  0  0  0  0  0  0  0
   10.9677   -1.7138   22.7702 C   0  0  0  0  0  0  0  0  0  0  0  0
   11.9919   -1.3686   22.8578 H   0  0  0  0  0  0  0  0  0  0  0  0
   10.4478   -2.6920   23.6135 C   0  0  0  0  0  0  0  0  0  0  0  0
   11.0989   -3.1329   24.3625 H   0  0  0  0  0  0  0  0  0  0  0  0
    9.1062   -3.0699   23.4710 C   0  0  0  0  0  0  0  0  0  0  0  0
    8.4183   -4.1066   24.4022 C   0  0  0  0  0  0  0  0  0  0  0  0
    9.3023   -5.0165   24.9090 F   0  0  0  0  0  0  0  0  0  0  0  0
    7.8069   -3.4553   25.4371 F   0  0  0  0  0  0  0  0  0  0  0  0
    7.4802   -4.8160   23.7091 F   0  0  0  0  0  0  0  0  0  0  0  0
    8.3984   -2.4649   22.4925 N   0  0  0  0  0  0  0  0  0  0  0  0
  1  2  1  0
  2  3  2  3
  3  4  1  0
  3  5  1  0
  5  6  2  0
  6  7  1  0
  6  8  1  0
  8  9  2  0
  9 10  1  0
  9 11  1  0
 11 12  1  0
 11 13  2  0
 13 14  1  0
  2 15  1  0
 15 16  2  0
 16 17  1  0
 17 18  1  0
 17 19  2  0
 19 20  1  0
 19 21  1  0
 21 22  1  0
 22 23  1  0
 22 24  1  0
 22 25  1  0
 21 26  2  0
 13  5  1  0
 26 15  1  0
M  END
>  <cnnaffinity>  (1) 
-5.21743

>  <filename>  (1) 
FC(F)(F)c1ccnc(C=C(Br)c2cccnc2)n1

$$$$
