
     RDKit          3D

 31 33  0  0  0  0  0  0  0  0999 V2000
    4.9315    1.7907   16.9911 H   0  0  0  0  0  0  0  0  0  0  0  0
    5.4046    1.2940   17.8343 C   0  0  0  0  0  0  0  0  0  0  0  0
    6.5691    0.6792   17.5751 N   0  0  0  0  0  0  0  0  0  0  0  0
    7.1665    0.0447   18.5885 C   0  0  0  0  0  0  0  0  0  0  0  0
    8.1161   -0.4340   18.3579 H   0  0  0  0  0  0  0  0  0  0  0  0
    6.6436   -0.0125   19.8879 C   0  0  0  0  0  0  0  0  0  0  0  0
    7.3776   -0.7241   20.9426 C   0  0  0  0  0  0  0  0  0  0  0  0
    7.9572   -1.8750   20.7113 N   0  0  0  0  0  0  0  0  0  0  0  0
    8.4473   -2.3151   21.9179 O   0  0  0  0  0  0  0  0  0  0  0  0
    8.1660   -1.4120   22.8584 C   0  0  0  0  0  0  0  0  0  0  0  0
    8.5244   -1.6382   23.8522 H   0  0  0  0  0  0  0  0  0  0  0  0
    7.5106   -0.3510   22.3265 C   0  0  0  0  0  0  0  0  0  0  0  0
    7.1125    0.8774   23.0181 C   0  0  0  0  0  0  0  0  0  0  0  0
    7.2539    2.1254   22.3966 C   0  0  0  0  0  0  0  0  0  0  0  0
    7.6319    2.1635   21.3796 H   0  0  0  0  0  0  0  0  0  0  0  0
    6.8815    3.2856   23.0760 C   0  0  0  0  0  0  0  0  0  0  0  0
    6.9824    4.2459   22.5801 H   0  0  0  0  0  0  0  0  0  0  0  0
    6.3811    3.2089   24.3794 C   0  0  0  0  0  0  0  0  0  0  0  0
    6.0910    4.0963   24.9324 H   0  0  0  0  0  0  0  0  0  0  0  0
    6.2588    1.9553   24.9887 C   0  0  0  0  0  0  0  0  0  0  0  0
    5.7653    1.9846   26.2919 O   0  0  0  0  0  0  0  0  0  0  0  0
    5.5917    0.8633   27.0248 C   0  0  0  0  0  0  0  0  0  0  0  0
    6.7291    0.1733   27.2242 F   0  0  0  0  0  0  0  0  0  0  0  0
    4.7203   -0.0004   26.4748 F   0  0  0  0  0  0  0  0  0  0  0  0
    5.1180    1.2606   28.1991 F   0  0  0  0  0  0  0  0  0  0  0  0
    6.6171    0.7876   24.3254 C   0  0  0  0  0  0  0  0  0  0  0  0
    6.5119   -0.1834   24.7978 H   0  0  0  0  0  0  0  0  0  0  0  0
    5.4232    0.6325   20.1436 C   0  0  0  0  0  0  0  0  0  0  0  0
    5.0019    0.6415   21.1539 H   0  0  0  0  0  0  0  0  0  0  0  0
    4.8007    1.3028   19.0963 C   0  0  0  0  0  0  0  0  0  0  0  0
    3.8757    1.8406   19.2475 H   0  0  0  0  0  0  0  0  0  0  0  0
  1  2  1  0
  2  3  2  0
  3  4  1  0
  4  5  1  0
  4  6  2  0
  6  7  1  0
  7  8  2  0
  8  9  1  0
  9 10  1  0
 10 11  1  0
 10 12  2  0
 12 13  1  0
 13 14  2  0
 14 15  1  0
 14 16  1  0
 16 17  1  0
 16 18  2  0
 18 19  1  0
 18 20  1  0
 20 21  1  0
 21 22  1  0
 22 23  1  0
 22 24  1  0
 22 25  1  0
 20 26  2  0
 26 27  1  0
  6 28  1  0
 28 29  1  0
 28 30  2  0
 30 31  1  0
 30  2  1  0
 12  7  1  0
 26 13  1  0
M  END
>  <cnnaffinity>  (1) 
-5.26102

>  <filename>  (1) 
FC(F)(F)Oc1cccc(-c2conc2-c2cccnc2)c1

$$$$
