
     RDKit          3D

 35 38  0  0  0  0  0  0  0  0999 V2000
    7.8046    3.7333   24.0740 H   0  0  0  0  0  0  0  0  0  0  0  0
    8.5312    3.0424   23.6547 C   0  0  0  0  0  0  0  0  0  0  0  0
    8.2447    1.7411   23.7855 N   0  0  0  0  0  0  0  0  0  0  0  0
    9.1499    0.8909   23.2898 C   0  0  0  0  0  0  0  0  0  0  0  0
    8.9839   -0.5897   23.4821 C   0  0  2  0  0  0  0  0  0  0  0  0
    9.5007   -0.9117   24.3800 H   0  0  0  0  0  0  0  0  0  0  0  0
    9.0794   -1.5583   22.3135 C   0  0  2  0  0  0  0  0  0  0  0  0
    9.8074   -2.3584   22.4002 H   0  0  0  0  0  0  0  0  0  0  0  0
    8.7624   -1.0461   20.9159 C   0  0  0  0  0  0  0  0  0  0  0  0
    8.9437   -1.8164   20.1596 H   0  0  0  0  0  0  0  0  0  0  0  0
    9.3892   -0.1776   20.6658 H   0  0  0  0  0  0  0  0  0  0  0  0
    7.3483   -0.6793   20.9526 N   0  0  0  0  0  0  0  0  0  0  0  0
    6.7192   -0.0185   19.9111 C   0  0  0  0  0  0  0  0  0  0  0  0
    7.2603    0.0501   18.5923 C   0  0  0  0  0  0  0  0  0  0  0  0
    8.2222   -0.4183   18.3804 H   0  0  0  0  0  0  0  0  0  0  0  0
    6.6666    0.6563   17.5543 N   0  0  0  0  0  0  0  0  0  0  0  0
    5.4916    1.2696   17.7770 C   0  0  0  0  0  0  0  0  0  0  0  0
    5.0397    1.7727   16.9259 H   0  0  0  0  0  0  0  0  0  0  0  0
    4.8664    1.2857   19.0258 C   0  0  0  0  0  0  0  0  0  0  0  0
    3.9301    1.8276   19.1594 H   0  0  0  0  0  0  0  0  0  0  0  0
    5.4753    0.6319   20.0990 C   0  0  0  0  0  0  0  0  0  0  0  0
    5.0127    0.6245   21.0815 H   0  0  0  0  0  0  0  0  0  0  0  0
    6.7160   -0.9108   22.2492 C   0  0  0  0  0  0  0  0  0  0  0  0
    6.3402    0.0242   22.6916 H   0  0  0  0  0  0  0  0  0  0  0  0
    5.8830   -1.6175   22.1430 H   0  0  0  0  0  0  0  0  0  0  0  0
    7.8158   -1.4835   23.1190 C   0  0  2  0  0  0  0  0  0  0  0  0
    7.5460   -2.2591   23.8250 H   0  0  0  0  0  0  0  0  0  0  0  0
   10.3007    1.2427   22.6986 N   0  0  0  0  0  0  0  0  0  0  0  0
   10.6006    2.5453   22.6171 C   0  0  0  0  0  0  0  0  0  0  0  0
   11.9673    2.9485   21.9941 C   0  0  0  0  0  0  0  0  0  0  0  0
   12.9486    2.0954   22.3156 F   0  0  0  0  0  0  0  0  0  0  0  0
   11.9172    3.0114   20.6511 F   0  0  0  0  0  0  0  0  0  0  0  0
   12.3468    4.1731   22.4195 F   0  0  0  0  0  0  0  0  0  0  0  0
    9.6940    3.5099   23.0572 C   0  0  0  0  0  0  0  0  0  0  0  0
    9.8780    4.5670   22.9470 H   0  0  0  0  0  0  0  0  0  0  0  0
  1  2  1  0
  2  3  2  0
  3  4  1  0
  4  5  1  0
  5  6  1  1
  5  7  1  0
  7  8  1  6
  7  9  1  0
  9 10  1  0
  9 11  1  0
  9 12  1  0
 12 13  1  0
 13 14  2  0
 14 15  1  0
 14 16  1  0
 16 17  2  0
 17 18  1  0
 17 19  1  0
 19 20  1  0
 19 21  2  0
 21 22  1  0
 12 23  1  0
 23 24  1  0
 23 25  1  0
 23 26  1  0
 26 27  1  1
  4 28  2  0
 28 29  1  0
 29 30  1  0
 30 31  1  0
 30 32  1  0
 30 33  1  0
 29 34  2  0
 34 35  1  0
 34  2  1  0
 26  5  1  0
 26  7  1  0
 21 13  1  0
M  END
>  <cnnaffinity>  (1) 
-5.69928

>  <filename>  (1) 
FC(F)(F)c1ccnc([C@@H]2[C@@H]3CN(c4cccnc4)C[C@@H]32)n1

$$$$
