
     RDKit          3D

 37 40  0  0  0  0  0  0  0  0999 V2000
   11.3194   -0.4777   23.0374 F   0  0  0  0  0  0  0  0  0  0  0  0
   11.2573   -1.4712   22.1033 C   0  0  0  0  0  0  0  0  0  0  0  0
   12.2839   -2.3238   22.3649 F   0  0  0  0  0  0  0  0  0  0  0  0
    9.9803   -2.2794   22.2421 C   0  0  0  0  0  0  0  0  0  0  0  0
    8.7830   -1.4811   22.0727 N   0  0  0  0  0  0  0  0  0  0  0  0
    8.5116   -1.0273   20.8264 N   0  0  0  0  0  0  0  0  0  0  0  0
    7.3051   -0.5012   20.9522 C   0  0  0  0  0  0  0  0  0  0  0  0
    6.5731    0.1340   19.8477 C   0  0  0  0  0  0  0  0  0  0  0  0
    5.3319    0.7775   20.0102 C   0  0  0  0  0  0  0  0  0  0  0  0
    4.7588    1.3945   18.8990 C   0  0  0  0  0  0  0  0  0  0  0  0
    5.4238    1.3299   17.6697 C   0  0  0  0  0  0  0  0  0  0  0  0
    6.5788    0.6742   17.4924 N   0  0  0  0  0  0  0  0  0  0  0  0
    7.1322    0.0907   18.5594 C   0  0  0  0  0  0  0  0  0  0  0  0
    8.0597   -0.4480   18.3741 H   0  0  0  0  0  0  0  0  0  0  0  0
    5.0077    1.8139   16.7886 H   0  0  0  0  0  0  0  0  0  0  0  0
    3.8135    1.9217   18.9614 H   0  0  0  0  0  0  0  0  0  0  0  0
    4.8210    0.7853   20.9763 H   0  0  0  0  0  0  0  0  0  0  0  0
    6.7767   -0.6182   22.1948 N   0  0  0  0  0  0  0  0  0  0  0  0
    7.7141   -1.2503   22.8871 C   0  0  0  0  0  0  0  0  0  0  0  0
    7.7258   -1.7068   24.3218 C   0  0  0  0  0  0  0  0  0  0  0  0
    8.7796   -1.3791   25.1618 C   0  0  0  0  0  0  0  0  0  0  0  0
    8.7695   -1.7786   26.5292 C   0  0  0  0  0  0  0  0  0  0  0  0
    7.8029   -2.4654   27.1017 N   0  0  0  0  0  0  0  0  0  0  0  0
    6.7579   -2.8361   26.3109 C   0  0  0  0  0  0  0  0  0  0  0  0
    5.7356   -3.6064   26.9054 C   0  0  0  0  0  0  0  0  0  0  0  0
    4.7278   -4.0777   26.1077 C   0  0  0  0  0  0  0  0  0  0  0  0
    4.6404   -3.8227   24.7817 N   0  0  0  0  0  0  0  0  0  0  0  0
    5.5717   -3.0724   24.2259 C   0  0  0  0  0  0  0  0  0  0  0  0
    6.6816   -2.5160   24.9196 C   0  0  0  0  0  0  0  0  0  0  0  0
    5.4781   -2.8875   23.1576 H   0  0  0  0  0  0  0  0  0  0  0  0
    3.9388   -4.7062   26.5116 H   0  0  0  0  0  0  0  0  0  0  0  0
    5.8093   -3.8236   27.9629 H   0  0  0  0  0  0  0  0  0  0  0  0
    9.6226   -1.5312   27.1572 H   0  0  0  0  0  0  0  0  0  0  0  0
    9.6307   -0.8040   24.8117 H   0  0  0  0  0  0  0  0  0  0  0  0
    9.9847   -3.0133   21.4386 H   0  0  0  0  0  0  0  0  0  0  0  0
    9.9865   -2.8040   23.2005 H   0  0  0  0  0  0  0  0  0  0  0  0
   11.3967   -1.0563   21.0985 H   0  0  0  0  0  0  0  0  0  0  0  0
  1  2  1  0
  2  3  1  0
  2  4  1  0
  4  5  1  0
  5  6  1  0
  6  7  2  0
  7  8  1  0
  8  9  2  0
  9 10  1  0
 10 11  2  0
 11 12  1  0
 12 13  2  0
 13 14  1  0
 11 15  1  0
 10 16  1  0
  9 17  1  0
  7 18  1  0
 18 19  2  0
 19 20  1  0
 20 21  2  0
 21 22  1  0
 22 23  2  0
 23 24  1  0
 24 25  2  0
 25 26  1  0
 26 27  2  0
 27 28  1  0
 28 29  2  0
 28 30  1  0
 26 31  1  0
 25 32  1  0
 22 33  1  0
 21 34  1  0
  4 35  1  0
  4 36  1  0
  2 37  1  0
 19  5  1  0
 29 20  1  0
 13  8  1  0
 29 24  1  0
M  END
>  <cnnaffinity>  (1) 
-5.84857

>  <filename>  (1) 
FC(F)Cn1nc(-c2cccnc2)nc1-c1ccnc2ccncc12

$$$$
