
     RDKit          3D

 28 30  0  0  0  0  0  0  0  0999 V2000
    8.5609    5.1299   22.4031 F   0  0  0  0  0  0  0  0  0  0  0  0
    7.3085    4.7000   22.6522 C   0  0  0  0  0  0  0  0  0  0  0  0
    6.5864    4.9423   21.5358 F   0  0  0  0  0  0  0  0  0  0  0  0
    6.8030    5.3978   23.6658 F   0  0  0  0  0  0  0  0  0  0  0  0
    7.2896    3.2683   22.9505 N   0  0  0  0  0  0  0  0  0  0  0  0
    7.4457    2.2778   22.0201 C   0  0  0  0  0  0  0  0  0  0  0  0
    7.4625    1.0800   22.6938 C   0  0  0  0  0  0  0  0  0  0  0  0
    7.6348   -0.2804   22.2105 C   0  0  0  0  0  0  0  0  0  0  0  0
    8.2051   -1.3497   22.8655 C   0  0  0  0  0  0  0  0  0  0  0  0
    8.2612   -2.3697   21.8977 C   0  0  0  0  0  0  0  0  0  0  0  0
    7.7608   -1.9847   20.7341 N   0  0  0  0  0  0  0  0  0  0  0  0
    7.3485   -0.7161   20.9308 N   0  0  0  0  0  0  0  0  0  0  0  0
    6.6396   -0.0264   19.9086 C   0  0  0  0  0  0  0  0  0  0  0  0
    5.4280    0.6308   20.1682 C   0  0  0  0  0  0  0  0  0  0  0  0
    4.8114    1.2978   19.1063 C   0  0  0  0  0  0  0  0  0  0  0  0
    5.4112    1.2900   17.8441 C   0  0  0  0  0  0  0  0  0  0  0  0
    6.5767    0.6669   17.5973 N   0  0  0  0  0  0  0  0  0  0  0  0
    7.1690    0.0243   18.6063 C   0  0  0  0  0  0  0  0  0  0  0  0
    8.1198   -0.4482   18.3735 H   0  0  0  0  0  0  0  0  0  0  0  0
    4.9451    1.7887   16.9964 H   0  0  0  0  0  0  0  0  0  0  0  0
    3.8844    1.8360   19.2512 H   0  0  0  0  0  0  0  0  0  0  0  0
    5.0030    0.6405   21.1757 H   0  0  0  0  0  0  0  0  0  0  0  0
    8.6434   -3.3784   21.9860 H   0  0  0  0  0  0  0  0  0  0  0  0
    8.5645   -1.3594   23.8872 H   0  0  0  0  0  0  0  0  0  0  0  0
    7.3230    1.4545   24.0577 C   0  0  0  0  0  0  0  0  0  0  0  0
    7.2191    2.7496   24.2049 N   0  0  0  0  0  0  0  0  0  0  0  0
    7.2995    0.8211   24.9403 H   0  0  0  0  0  0  0  0  0  0  0  0
    7.5150    2.5052   20.9635 H   0  0  0  0  0  0  0  0  0  0  0  0
  1  2  1  0
  2  3  1  0
  2  4  1  0
  2  5  1  0
  5  6  1  0
  6  7  2  0
  7  8  1  0
  8  9  2  0
  9 10  1  0
 10 11  2  0
 11 12  1  0
 12 13  1  0
 13 14  2  0
 14 15  1  0
 15 16  2  0
 16 17  1  0
 17 18  2  0
 18 19  1  0
 16 20  1  0
 15 21  1  0
 14 22  1  0
 10 23  1  0
  9 24  1  0
  7 25  1  0
 25 26  2  0
 25 27  1  0
  6 28  1  0
 26  5  1  0
 12  8  1  0
 18 13  1  0
M  END
>  <cnnaffinity>  (1) 
-5.02786

>  <filename>  (1) 
FC(F)(F)n1cc(-c2ccnn2-c2cccnc2)cn1

$$$$
