
     RDKit          3D

 26 27  0  0  0  0  0  0  0  0999 V2000
    8.4346    0.1576   20.2776 H   0  0  0  0  0  0  0  0  0  0  0  0
    7.9337   -0.6804   20.7336 C   0  0  0  0  0  0  0  0  0  0  0  0
    6.6473   -0.8647   20.4283 C   0  0  0  0  0  0  0  0  0  0  0  0
    5.6432   -2.0438   21.1796 Cl  0  0  0  0  0  0  0  0  0  0  0  0
    6.0273   -0.0008   19.3908 C   0  0  0  0  0  0  0  0  0  0  0  0
    6.6945    0.1336   18.1608 C   0  0  0  0  0  0  0  0  0  0  0  0
    7.5670   -0.4869   17.9597 H   0  0  0  0  0  0  0  0  0  0  0  0
    6.3211    0.9603   17.1840 N   0  0  0  0  0  0  0  0  0  0  0  0
    5.2336    1.7166   17.4064 C   0  0  0  0  0  0  0  0  0  0  0  0
    4.9521    2.3831   16.5947 H   0  0  0  0  0  0  0  0  0  0  0  0
    4.4783    1.6485   18.5835 C   0  0  0  0  0  0  0  0  0  0  0  0
    3.6078    2.2909   18.6863 H   0  0  0  0  0  0  0  0  0  0  0  0
    4.8701    0.7627   19.5909 C   0  0  0  0  0  0  0  0  0  0  0  0
    4.3105    0.6729   20.5220 H   0  0  0  0  0  0  0  0  0  0  0  0
    8.8376   -1.3800   21.6240 C   0  0  0  0  0  0  0  0  0  0  0  0
    8.5290   -2.5540   22.1719 N   0  0  0  0  0  0  0  0  0  0  0  0
    9.4970   -3.1146   22.8909 C   0  0  0  0  0  0  0  0  0  0  0  0
    9.2573   -4.0738   23.3515 H   0  0  0  0  0  0  0  0  0  0  0  0
   10.7604   -2.5529   23.0508 C   0  0  0  0  0  0  0  0  0  0  0  0
   11.5145   -3.1186   23.5790 H   0  0  0  0  0  0  0  0  0  0  0  0
   10.9649   -1.2792   22.4935 C   0  0  0  0  0  0  0  0  0  0  0  0
   12.3106   -0.4998   22.6792 C   0  0  0  0  0  0  0  0  0  0  0  0
   12.4806   -0.0959   23.9540 F   0  0  0  0  0  0  0  0  0  0  0  0
   13.3484   -1.3090   22.3804 F   0  0  0  0  0  0  0  0  0  0  0  0
   12.4098    0.5946   21.9223 F   0  0  0  0  0  0  0  0  0  0  0  0
    9.9946   -0.7179   21.7828 N   0  0  0  0  0  0  0  0  0  0  0  0
  1  2  1  0
  2  3  2  3
  3  4  1  0
  3  5  1  0
  5  6  2  0
  6  7  1  0
  6  8  1  0
  8  9  2  0
  9 10  1  0
  9 11  1  0
 11 12  1  0
 11 13  2  0
 13 14  1  0
  2 15  1  0
 15 16  2  0
 16 17  1  0
 17 18  1  0
 17 19  2  0
 19 20  1  0
 19 21  1  0
 21 22  1  0
 22 23  1  0
 22 24  1  0
 22 25  1  0
 21 26  2  0
 13  5  1  0
 26 15  1  0
M  END
>  <cnnaffinity>  (1) 
-5.32775

>  <filename>  (1) 
FC(F)(F)c1ccnc(C=C(Cl)c2cccnc2)n1

$$$$
