
     RDKit          3D

 39 42  0  0  0  0  0  0  0  0999 V2000
   11.0002   -0.9440   23.5652 F   0  0  0  0  0  0  0  0  0  0  0  0
   11.1213   -1.4866   22.3161 C   0  0  0  0  0  0  0  0  0  0  0  0
   12.3004   -2.1576   22.2676 F   0  0  0  0  0  0  0  0  0  0  0  0
    9.9948   -2.4643   22.0818 C   0  0  0  0  0  0  0  0  0  0  0  0
    8.7226   -1.7816   22.0212 N   0  0  0  0  0  0  0  0  0  0  0  0
    8.4123   -1.2210   20.8391 N   0  0  0  0  0  0  0  0  0  0  0  0
    7.2376   -0.6566   21.0619 C   0  0  0  0  0  0  0  0  0  0  0  0
    6.5440    0.0373   19.9813 C   0  0  0  0  0  0  0  0  0  0  0  0
    5.3305    0.7208   20.1464 C   0  0  0  0  0  0  0  0  0  0  0  0
    4.7847    1.3526   19.0290 C   0  0  0  0  0  0  0  0  0  0  0  0
    5.4655    1.2845   17.8074 C   0  0  0  0  0  0  0  0  0  0  0  0
    6.6240    0.6300   17.6407 N   0  0  0  0  0  0  0  0  0  0  0  0
    7.1445    0.0249   18.7096 C   0  0  0  0  0  0  0  0  0  0  0  0
    8.0857   -0.4997   18.5527 H   0  0  0  0  0  0  0  0  0  0  0  0
    5.0619    1.7705   16.9219 H   0  0  0  0  0  0  0  0  0  0  0  0
    3.8519    1.9030   19.0875 H   0  0  0  0  0  0  0  0  0  0  0  0
    4.8388    0.7610   21.1210 H   0  0  0  0  0  0  0  0  0  0  0  0
    6.7979   -0.7876   22.3382 N   0  0  0  0  0  0  0  0  0  0  0  0
    7.7565   -1.4845   22.9208 C   0  0  0  0  0  0  0  0  0  0  0  0
    7.8271   -1.8411   24.3704 C   0  0  0  0  0  0  0  0  0  0  0  0
    7.2606   -3.1433   24.6403 N   0  0  0  0  0  0  0  0  0  0  0  0
    8.0422   -4.2293   24.4392 N   0  0  0  0  0  0  0  0  0  0  0  0
    7.2363   -5.2710   24.3647 C   0  0  0  0  0  0  0  0  0  0  0  0
    5.8646   -4.8798   24.4634 C   0  0  0  0  0  0  0  0  0  0  0  0
    4.5969   -5.5224   24.3425 C   0  0  0  0  0  0  0  0  0  0  0  0
    3.4601   -4.7431   24.4668 C   0  0  0  0  0  0  0  0  0  0  0  0
    3.5483   -3.3452   24.7284 C   0  0  0  0  0  0  0  0  0  0  0  0
    4.7690   -2.7039   24.8490 C   0  0  0  0  0  0  0  0  0  0  0  0
    5.9336   -3.4831   24.6628 C   0  0  0  0  0  0  0  0  0  0  0  0
    4.8474   -1.6401   25.0500 H   0  0  0  0  0  0  0  0  0  0  0  0
    2.6365   -2.7618   24.8293 H   0  0  0  0  0  0  0  0  0  0  0  0
    2.4727   -5.1840   24.3474 H   0  0  0  0  0  0  0  0  0  0  0  0
    4.5110   -6.5850   24.1205 H   0  0  0  0  0  0  0  0  0  0  0  0
    7.6301   -6.2694   24.2433 H   0  0  0  0  0  0  0  0  0  0  0  0
    8.8643   -1.8584   24.7142 H   0  0  0  0  0  0  0  0  0  0  0  0
    7.2606   -1.0992   24.9361 H   0  0  0  0  0  0  0  0  0  0  0  0
    9.9916   -3.2495   22.8378 H   0  0  0  0  0  0  0  0  0  0  0  0
   10.1238   -2.9005   21.0939 H   0  0  0  0  0  0  0  0  0  0  0  0
   11.1363   -0.6763   21.5830 H   0  0  0  0  0  0  0  0  0  0  0  0
  1  2  1  0
  2  3  1  0
  2  4  1  0
  4  5  1  0
  5  6  1  0
  6  7  2  0
  7  8  1  0
  8  9  2  0
  9 10  1  0
 10 11  2  0
 11 12  1  0
 12 13  2  0
 13 14  1  0
 11 15  1  0
 10 16  1  0
  9 17  1  0
  7 18  1  0
 18 19  2  0
 19 20  1  0
 20 21  1  0
 21 22  1  0
 22 23  2  0
 23 24  1  0
 24 25  2  0
 25 26  1  0
 26 27  2  0
 27 28  1  0
 28 29  2  0
 28 30  1  0
 27 31  1  0
 26 32  1  0
 25 33  1  0
 23 34  1  0
 20 35  1  0
 20 36  1  0
  4 37  1  0
  4 38  1  0
  2 39  1  0
 19  5  1  0
 29 21  1  0
 13  8  1  0
 29 24  1  0
M  END
>  <cnnaffinity>  (1) 
-6.32875

>  <filename>  (1) 
FC(F)Cn1nc(-c2cccnc2)nc1Cn1ncc2ccccc21

$$$$
