
     RDKit          3D

 29 30  0  0  0  0  0  0  0  0999 V2000
    6.6978   -1.4143   21.5890 H   0  0  0  0  0  0  0  0  0  0  0  0
    7.3226   -0.7235   21.0088 C   0  0  0  0  0  0  0  0  0  0  0  0
    8.5899   -0.5028   21.3749 C   0  0  0  0  0  0  0  0  0  0  0  0
    9.3408   -1.1085   22.4820 C   0  0  0  0  0  0  0  0  0  0  0  0
    8.7204   -2.0988   23.1615 O   0  0  0  0  0  0  0  0  0  0  0  0
    9.3806   -2.7132   24.2668 C   0  0  0  0  0  0  0  0  0  0  0  0
    9.6025   -1.9885   25.0571 H   0  0  0  0  0  0  0  0  0  0  0  0
   10.3156   -3.1918   23.9585 H   0  0  0  0  0  0  0  0  0  0  0  0
    8.4958   -3.8057   24.8913 C   0  0  0  0  0  0  0  0  0  0  0  0
    9.1658   -4.3533   25.9246 F   0  0  0  0  0  0  0  0  0  0  0  0
    7.3437   -3.3201   25.3742 F   0  0  0  0  0  0  0  0  0  0  0  0
    8.2149   -4.7915   24.0271 F   0  0  0  0  0  0  0  0  0  0  0  0
   10.5023   -0.6394   22.7216 N   0  0  0  0  0  0  0  0  0  0  0  0
   10.7427    0.4231   21.7466 C   0  0  0  0  0  0  0  0  0  0  0  0
   11.6571    0.1935   21.1979 H   0  0  0  0  0  0  0  0  0  0  0  0
   10.9103    1.3619   22.2806 H   0  0  0  0  0  0  0  0  0  0  0  0
    9.5157    0.5352   20.8073 C   0  0  0  0  0  0  0  0  0  0  0  0
    9.0775    1.5376   20.8009 H   0  0  0  0  0  0  0  0  0  0  0  0
    9.7179    0.2932   19.7650 H   0  0  0  0  0  0  0  0  0  0  0  0
    6.6490   -0.0104   19.9050 C   0  0  0  0  0  0  0  0  0  0  0  0
    7.1658    0.0657   18.5946 C   0  0  0  0  0  0  0  0  0  0  0  0
    8.1070   -0.4310   18.3692 H   0  0  0  0  0  0  0  0  0  0  0  0
    6.5620    0.6850   17.5719 N   0  0  0  0  0  0  0  0  0  0  0  0
    5.3983    1.2997   17.8340 C   0  0  0  0  0  0  0  0  0  0  0  0
    4.9154    1.7873   16.9905 H   0  0  0  0  0  0  0  0  0  0  0  0
    4.8002    1.3137   19.0996 C   0  0  0  0  0  0  0  0  0  0  0  0
    3.8703    1.8476   19.2535 H   0  0  0  0  0  0  0  0  0  0  0  0
    5.4245    0.6378   20.1472 C   0  0  0  0  0  0  0  0  0  0  0  0
    5.0037    0.6256   21.1541 H   0  0  0  0  0  0  0  0  0  0  0  0
  1  2  1  0
  2  3  2  3
  3  4  1  0
  4  5  1  0
  5  6  1  0
  6  7  1  0
  6  8  1  0
  6  9  1  0
  9 10  1  0
  9 11  1  0
  9 12  1  0
  4 13  2  0
 13 14  1  0
 14 15  1  0
 14 16  1  0
 14 17  1  0
 17 18  1  0
 17 19  1  0
  2 20  1  0
 20 21  2  0
 21 22  1  0
 21 23  1  0
 23 24  2  0
 24 25  1  0
 24 26  1  0
 26 27  1  0
 26 28  2  0
 28 29  1  0
 17  3  1  0
 28 20  1  0
M  END
>  <cnnaffinity>  (1) 
-4.74848

>  <filename>  (1) 
FC(F)(F)COC1=NCCC1=Cc1cccnc1

$$$$
