
     RDKit          3D

 33 35  0  0  0  0  0  0  0  0999 V2000
    2.4519    5.2537   26.9106 F   0  0  0  0  0  0  0  0  0  0  0  0
    3.0580    4.0761   26.6693 C   0  0  0  0  0  0  0  0  0  0  0  0
    2.2599    3.3937   25.8270 F   0  0  0  0  0  0  0  0  0  0  0  0
    3.0589    3.3993   27.8344 F   0  0  0  0  0  0  0  0  0  0  0  0
    4.4610    4.2433   26.1294 C   0  0  0  0  0  0  0  0  0  0  0  0
    5.2138    5.3716   26.4909 C   0  0  0  0  0  0  0  0  0  0  0  0
    6.5226    5.5009   26.0255 C   0  0  0  0  0  0  0  0  0  0  0  0
    7.0890    4.5186   25.2179 C   0  0  0  0  0  0  0  0  0  0  0  0
    6.3470    3.3749   24.8700 C   0  0  0  0  0  0  0  0  0  0  0  0
    6.9535    2.3295   24.0250 C   0  0  0  0  0  0  0  0  0  0  0  0
    8.1764    2.4010   23.5539 N   0  0  0  0  0  0  0  0  0  0  0  0
    8.3215    1.2335   22.8340 O   0  0  0  0  0  0  0  0  0  0  0  0
    7.1691    0.5770   22.9277 C   0  0  0  0  0  0  0  0  0  0  0  0
    7.0377   -0.7377   22.2089 C   0  0  0  0  0  0  0  0  0  0  0  0
    7.4129   -0.7156   20.8356 O   0  0  0  0  0  0  0  0  0  0  0  0
    6.6655   -0.0019   19.9256 C   0  0  0  0  0  0  0  0  0  0  0  0
    5.4466    0.6414   20.1781 C   0  0  0  0  0  0  0  0  0  0  0  0
    4.8142    1.3042   19.1121 C   0  0  0  0  0  0  0  0  0  0  0  0
    5.4001    1.2916   17.8450 C   0  0  0  0  0  0  0  0  0  0  0  0
    6.5693    0.6747   17.5926 N   0  0  0  0  0  0  0  0  0  0  0  0
    7.1790    0.0594   18.6101 C   0  0  0  0  0  0  0  0  0  0  0  0
    8.1253   -0.4357   18.3935 H   0  0  0  0  0  0  0  0  0  0  0  0
    4.9117    1.7776   16.9998 H   0  0  0  0  0  0  0  0  0  0  0  0
    3.8799    1.8385   19.2642 H   0  0  0  0  0  0  0  0  0  0  0  0
    5.0058    0.6369   21.1772 H   0  0  0  0  0  0  0  0  0  0  0  0
    7.6981   -1.4691   22.6770 H   0  0  0  0  0  0  0  0  0  0  0  0
    6.0173   -1.0937   22.3510 H   0  0  0  0  0  0  0  0  0  0  0  0
    6.2855    1.1779   23.6591 N   0  0  0  0  0  0  0  0  0  0  0  0
    5.0281    3.2361   25.3350 C   0  0  0  0  0  0  0  0  0  0  0  0
    4.4520    2.3456   25.0816 H   0  0  0  0  0  0  0  0  0  0  0  0
    8.1082    4.6324   24.8562 H   0  0  0  0  0  0  0  0  0  0  0  0
    7.1047    6.3741   26.2936 H   0  0  0  0  0  0  0  0  0  0  0  0
    4.7907    6.1445   27.1280 H   0  0  0  0  0  0  0  0  0  0  0  0
  1  2  1  0
  2  3  1  0
  2  4  1  0
  2  5  1  0
  5  6  2  0
  6  7  1  0
  7  8  2  0
  8  9  1  0
  9 10  1  0
 10 11  2  0
 11 12  1  0
 12 13  1  0
 13 14  1  0
 14 15  1  0
 15 16  1  0
 16 17  2  0
 17 18  1  0
 18 19  2  0
 19 20  1  0
 20 21  2  0
 21 22  1  0
 19 23  1  0
 18 24  1  0
 17 25  1  0
 14 26  1  0
 14 27  1  0
 13 28  2  0
  9 29  2  0
 29 30  1  0
  8 31  1  0
  7 32  1  0
  6 33  1  0
 29  5  1  0
 28 10  1  0
 21 16  1  0
M  END
>  <cnnaffinity>  (1) 
-4.95105

>  <filename>  (1) 
FC(F)(F)c1cccc(-c2noc(COc3cccnc3)n2)c1

$$$$
