
     RDKit          3D

 40 43  0  0  0  0  0  0  0  0999 V2000
   12.6452    0.0181   22.8261 F   0  0  0  0  0  0  0  0  0  0  0  0
   11.6112   -0.5145   22.1084 C   0  0  0  0  0  0  0  0  0  0  0  0
   10.6273    0.4236   22.0770 F   0  0  0  0  0  0  0  0  0  0  0  0
   11.1197   -1.7723   22.8066 C   0  0  0  0  0  0  0  0  0  0  0  0
    9.9385   -2.5442   22.1786 C   0  0  0  0  0  0  0  0  0  0  0  0
    8.6846   -1.7867   21.9221 C   0  0  0  0  0  0  0  0  0  0  0  0
    8.3000   -1.3800   20.7355 N   0  0  0  0  0  0  0  0  0  0  0  0
    7.2141   -0.6104   21.0055 C   0  0  0  0  0  0  0  0  0  0  0  0
    6.5077    0.0745   19.9266 C   0  0  0  0  0  0  0  0  0  0  0  0
    5.2911    0.7493   20.1059 C   0  0  0  0  0  0  0  0  0  0  0  0
    4.7316    1.3786   18.9968 C   0  0  0  0  0  0  0  0  0  0  0  0
    5.4059    1.3221   17.7685 C   0  0  0  0  0  0  0  0  0  0  0  0
    6.5657    0.6725   17.5879 N   0  0  0  0  0  0  0  0  0  0  0  0
    7.0958    0.0639   18.6527 C   0  0  0  0  0  0  0  0  0  0  0  0
    8.0380   -0.4553   18.4962 H   0  0  0  0  0  0  0  0  0  0  0  0
    4.9901    1.8177   16.8940 H   0  0  0  0  0  0  0  0  0  0  0  0
    3.7998    1.9286   19.0723 H   0  0  0  0  0  0  0  0  0  0  0  0
    4.8168    0.7893   21.0905 H   0  0  0  0  0  0  0  0  0  0  0  0
    6.8917   -0.5374   22.2816 N   0  0  0  0  0  0  0  0  0  0  0  0
    7.8059   -1.3602   22.8654 N   0  0  0  0  0  0  0  0  0  0  0  0
    7.7331   -1.6929   24.2426 C   0  0  0  0  0  0  0  0  0  0  0  0
    7.9007   -0.6929   25.1857 C   0  0  0  0  0  0  0  0  0  0  0  0
    7.9372   -0.9482   26.5161 N   0  0  0  0  0  0  0  0  0  0  0  0
    7.7646   -2.1534   26.9865 N   0  0  0  0  0  0  0  0  0  0  0  0
    7.5229   -3.1950   26.1208 C   0  0  0  0  0  0  0  0  0  0  0  0
    7.2849   -4.4803   26.7023 C   0  0  0  0  0  0  0  0  0  0  0  0
    7.0398   -5.5601   25.8986 C   0  0  0  0  0  0  0  0  0  0  0  0
    7.0080   -5.4136   24.4817 C   0  0  0  0  0  0  0  0  0  0  0  0
    7.2281   -4.1842   23.8887 C   0  0  0  0  0  0  0  0  0  0  0  0
    7.5020   -3.0312   24.7015 C   0  0  0  0  0  0  0  0  0  0  0  0
    7.1910   -4.0945   22.8057 H   0  0  0  0  0  0  0  0  0  0  0  0
    6.8056   -6.2760   23.8558 H   0  0  0  0  0  0  0  0  0  0  0  0
    6.8640   -6.5419   26.3392 H   0  0  0  0  0  0  0  0  0  0  0  0
    7.3069   -4.5310   27.7856 H   0  0  0  0  0  0  0  0  0  0  0  0
    8.0381    0.3447   24.9042 H   0  0  0  0  0  0  0  0  0  0  0  0
    9.7307   -3.4093   22.8236 H   0  0  0  0  0  0  0  0  0  0  0  0
   10.2270   -2.9000   21.1916 H   0  0  0  0  0  0  0  0  0  0  0  0
   11.9664   -2.4680   22.8300 H   0  0  0  0  0  0  0  0  0  0  0  0
   10.8784   -1.4957   23.8394 H   0  0  0  0  0  0  0  0  0  0  0  0
   11.9545   -0.6810   21.0749 H   0  0  0  0  0  0  0  0  0  0  0  0
  1  2  1  0
  2  3  1  0
  2  4  1  0
  4  5  1  0
  5  6  1  0
  6  7  2  0
  7  8  1  0
  8  9  1  0
  9 10  2  0
 10 11  1  0
 11 12  2  0
 12 13  1  0
 13 14  2  0
 14 15  1  0
 12 16  1  0
 11 17  1  0
 10 18  1  0
  8 19  2  0
 19 20  1  0
 20 21  1  0
 21 22  2  0
 22 23  1  0
 23 24  2  0
 24 25  1  0
 25 26  2  0
 26 27  1  0
 27 28  2  0
 28 29  1  0
 29 30  2  0
 29 31  1  0
 28 32  1  0
 27 33  1  0
 26 34  1  0
 22 35  1  0
  5 36  1  0
  5 37  1  0
  4 38  1  0
  4 39  1  0
  2 40  1  0
 20  6  1  0
 30 21  1  0
 14  9  1  0
 30 25  1  0
M  END
>  <cnnaffinity>  (1) 
-6.3698

>  <filename>  (1) 
FC(F)CCc1nc(-c2cccnc2)nn1-c1cnnc2ccccc12

$$$$
