
     RDKit          3D

 31 33  0  0  0  0  0  0  0  0999 V2000
    4.9106    1.8096   16.9115 H   0  0  0  0  0  0  0  0  0  0  0  0
    5.3783    1.3435   17.7804 C   0  0  0  0  0  0  0  0  0  0  0  0
    6.5562    0.7338   17.5707 N   0  0  0  0  0  0  0  0  0  0  0  0
    7.1377    0.1493   18.6273 C   0  0  0  0  0  0  0  0  0  0  0  0
    8.0877   -0.3447   18.4330 H   0  0  0  0  0  0  0  0  0  0  0  0
    6.6099    0.1367   19.9372 C   0  0  0  0  0  0  0  0  0  0  0  0
    7.3154   -0.5581   21.0669 C   0  0  0  0  0  0  0  0  0  0  0  0
    7.7498   -1.8918   20.9330 C   0  0  0  0  0  0  0  0  0  0  0  0
    7.4428   -2.4554   20.0710 H   0  0  0  0  0  0  0  0  0  0  0  0
    8.4476   -2.5548   21.8617 N   0  0  0  0  0  0  0  0  0  0  0  0
    8.7082   -1.9643   23.0273 N   0  0  0  0  0  0  0  0  0  0  0  0
    8.2277   -0.7334   23.2873 C   0  0  0  0  0  0  0  0  0  0  0  0
    8.3967   -0.2118   24.6898 C   0  0  0  0  0  0  0  0  0  0  0  0
    7.8279    0.9797   24.9307 N   0  0  0  0  0  0  0  0  0  0  0  0
    7.8441    1.4793   26.1691 C   0  0  0  0  0  0  0  0  0  0  0  0
    7.2470    2.8827   26.3792 C   0  0  0  0  0  0  0  0  0  0  0  0
    8.2062    3.7596   26.7452 F   0  0  0  0  0  0  0  0  0  0  0  0
    6.3473    2.8814   27.3842 F   0  0  0  0  0  0  0  0  0  0  0  0
    6.6443    3.3626   25.2881 F   0  0  0  0  0  0  0  0  0  0  0  0
    8.4124    0.7931   27.2480 C   0  0  0  0  0  0  0  0  0  0  0  0
    8.3829    1.1877   28.2563 H   0  0  0  0  0  0  0  0  0  0  0  0
    9.0669   -0.4143   26.9949 C   0  0  0  0  0  0  0  0  0  0  0  0
    9.5869   -0.9392   27.7953 H   0  0  0  0  0  0  0  0  0  0  0  0
    9.0606   -0.9324   25.7021 C   0  0  0  0  0  0  0  0  0  0  0  0
    9.5287   -1.8761   25.4558 H   0  0  0  0  0  0  0  0  0  0  0  0
    7.5345    0.0142   22.3126 C   0  0  0  0  0  0  0  0  0  0  0  0
    7.1611    1.0003   22.5772 H   0  0  0  0  0  0  0  0  0  0  0  0
    5.3789    0.7790   20.1256 C   0  0  0  0  0  0  0  0  0  0  0  0
    4.9195    0.7827   21.1165 H   0  0  0  0  0  0  0  0  0  0  0  0
    4.7513    1.3796   19.0298 C   0  0  0  0  0  0  0  0  0  0  0  0
    3.7916    1.8704   19.1299 H   0  0  0  0  0  0  0  0  0  0  0  0
  1  2  1  0
  2  3  2  0
  3  4  1  0
  4  5  1  0
  4  6  2  0
  6  7  1  0
  7  8  2  0
  8  9  1  0
  8 10  1  0
 10 11  2  0
 11 12  1  0
 12 13  1  0
 13 14  2  0
 14 15  1  0
 15 16  1  0
 16 17  1  0
 16 18  1  0
 16 19  1  0
 15 20  2  0
 20 21  1  0
 20 22  1  0
 22 23  1  0
 22 24  2  0
 24 25  1  0
 12 26  2  0
 26 27  1  0
  6 28  1  0
 28 29  1  0
 28 30  2  0
 30 31  1  0
 30  2  1  0
 26  7  1  0
 24 13  1  0
M  END
>  <cnnaffinity>  (1) 
-5.2098

>  <filename>  (1) 
FC(F)(F)c1cccc(-c2cc(-c3cccnc3)cnn2)n1

$$$$
