
     RDKit          3D

 30 32  0  0  0  0  0  0  0  0999 V2000
    4.9269    1.7795   16.9979 H   0  0  0  0  0  0  0  0  0  0  0  0
    5.4087    1.2899   17.8415 C   0  0  0  0  0  0  0  0  0  0  0  0
    6.5736    0.6703   17.5913 N   0  0  0  0  0  0  0  0  0  0  0  0
    7.1708    0.0425   18.6082 C   0  0  0  0  0  0  0  0  0  0  0  0
    8.1182   -0.4389   18.3778 H   0  0  0  0  0  0  0  0  0  0  0  0
    6.6505    0.0046   19.9108 C   0  0  0  0  0  0  0  0  0  0  0  0
    7.3662   -0.6970   20.9699 C   0  0  0  0  0  0  0  0  0  0  0  0
    7.9489   -1.9150   20.7672 N   0  0  0  0  0  0  0  0  0  0  0  0
    8.3899   -2.3157   21.9302 C   0  0  0  0  0  0  0  0  0  0  0  0
    8.8875   -3.2591   22.1321 H   0  0  0  0  0  0  0  0  0  0  0  0
    8.1451   -1.3949   22.8924 N   0  0  0  0  0  0  0  0  0  0  0  0
    8.3961   -1.4459   23.8678 H   0  0  0  0  0  0  0  0  0  0  0  0
    7.5080   -0.3255   22.2911 C   0  0  0  0  0  0  0  0  0  0  0  0
    7.1808    0.9351   22.9557 C   0  0  0  0  0  0  0  0  0  0  0  0
    6.8136    0.8561   24.2449 N   0  0  0  0  0  0  0  0  0  0  0  0
    6.4813    1.9783   24.8905 C   0  0  0  0  0  0  0  0  0  0  0  0
    6.0370    1.8779   26.3736 C   0  0  0  0  0  0  0  0  0  0  0  0
    4.8101    2.4189   26.5398 F   0  0  0  0  0  0  0  0  0  0  0  0
    6.8630    2.5960   27.1656 F   0  0  0  0  0  0  0  0  0  0  0  0
    5.9953    0.6359   26.8612 F   0  0  0  0  0  0  0  0  0  0  0  0
    6.5462    3.2506   24.2888 C   0  0  0  0  0  0  0  0  0  0  0  0
    6.2892    4.1403   24.8519 H   0  0  0  0  0  0  0  0  0  0  0  0
    6.9658    3.3442   22.9595 C   0  0  0  0  0  0  0  0  0  0  0  0
    7.0395    4.3103   22.4557 H   0  0  0  0  0  0  0  0  0  0  0  0
    7.2892    2.1680   22.2849 C   0  0  0  0  0  0  0  0  0  0  0  0
    7.6243    2.1646   21.2571 H   0  0  0  0  0  0  0  0  0  0  0  0
    5.4229    0.6452   20.1533 C   0  0  0  0  0  0  0  0  0  0  0  0
    4.9942    0.6392   21.1574 H   0  0  0  0  0  0  0  0  0  0  0  0
    4.8022    1.3072   19.1011 C   0  0  0  0  0  0  0  0  0  0  0  0
    3.8739    1.8421   19.2541 H   0  0  0  0  0  0  0  0  0  0  0  0
  1  2  1  0
  2  3  2  0
  3  4  1  0
  4  5  1  0
  4  6  2  0
  6  7  1  0
  7  8  1  0
  8  9  2  0
  9 10  1  0
  9 11  1  0
 11 12  1  0
 11 13  1  0
 13 14  1  0
 14 15  2  0
 15 16  1  0
 16 17  1  0
 17 18  1  0
 17 19  1  0
 17 20  1  0
 16 21  2  0
 21 22  1  0
 21 23  1  0
 23 24  1  0
 23 25  2  0
 25 26  1  0
  6 27  1  0
 27 28  1  0
 27 29  2  0
 29 30  1  0
 29  2  1  0
 13  7  2  0
 25 14  1  0
M  END
>  <cnnaffinity>  (1) 
-5.42699

>  <filename>  (1) 
FC(F)(F)c1cccc(-c2[nH]cnc2-c2cccnc2)n1

$$$$
