
     RDKit          3D

 23 24  0  0  0  0  0  0  0  0999 V2000
    4.9199    1.7816   16.9996 H   0  0  0  0  0  0  0  0  0  0  0  0
    5.4047    1.2896   17.8420 C   0  0  0  0  0  0  0  0  0  0  0  0
    6.5638    0.6679   17.5844 N   0  0  0  0  0  0  0  0  0  0  0  0
    7.1890    0.0534   18.5984 C   0  0  0  0  0  0  0  0  0  0  0  0
    8.1280   -0.4391   18.3636 H   0  0  0  0  0  0  0  0  0  0  0  0
    6.6895    0.0201   19.9147 C   0  0  0  0  0  0  0  0  0  0  0  0
    7.2819   -0.6632   20.9500 O   0  0  0  0  0  0  0  0  0  0  0  0
    8.6392   -0.7561   21.0758 C   0  0  0  0  0  0  0  0  0  0  0  0
    9.6712    0.0905   20.6248 C   0  0  0  0  0  0  0  0  0  0  0  0
    9.5825    0.9405   19.9733 H   0  0  0  0  0  0  0  0  0  0  0  0
   10.8541   -0.2992   21.0774 N   0  0  0  0  0  0  0  0  0  0  0  0
   10.5962   -1.3900   21.7983 N   0  0  0  0  0  0  0  0  0  0  0  0
   11.3485   -1.8420   22.2993 H   0  0  0  0  0  0  0  0  0  0  0  0
    9.2733   -1.7194   21.8409 C   0  0  0  0  0  0  0  0  0  0  0  0
    8.6206   -2.9855   22.8652 S   0  0  0  0  0  0  0  0  0  0  0  0
    8.3457   -1.9751   24.3896 C   0  0  0  0  0  0  0  0  0  0  0  0
    7.7903   -2.7546   25.3117 F   0  0  0  0  0  0  0  0  0  0  0  0
    7.5442   -0.9420   24.1378 F   0  0  0  0  0  0  0  0  0  0  0  0
    9.5099   -1.5140   24.8448 F   0  0  0  0  0  0  0  0  0  0  0  0
    5.4642    0.6449   20.1726 C   0  0  0  0  0  0  0  0  0  0  0  0
    5.0410    0.6082   21.1771 H   0  0  0  0  0  0  0  0  0  0  0  0
    4.8228    1.3004   19.1159 C   0  0  0  0  0  0  0  0  0  0  0  0
    3.8895    1.8289   19.2674 H   0  0  0  0  0  0  0  0  0  0  0  0
  1  2  1  0
  2  3  2  0
  3  4  1  0
  4  5  1  0
  4  6  2  0
  6  7  1  0
  7  8  1  0
  8  9  1  0
  9 10  1  0
  9 11  2  0
 11 12  1  0
 12 13  1  0
 12 14  1  0
 14 15  1  0
 15 16  1  0
 16 17  1  0
 16 18  1  0
 16 19  1  0
  6 20  1  0
 20 21  1  0
 20 22  2  0
 22 23  1  0
 22  2  1  0
 14  8  2  0
M  END
>  <cnnaffinity>  (1) 
-5.08201

>  <filename>  (1) 
FC(F)(F)Sc1[nH]ncc1Oc1cccnc1

$$$$
