
     RDKit          3D

 35 37  0  0  0  0  0  0  0  0999 V2000
    5.8539    6.6525   23.4628 F   0  0  0  0  0  0  0  0  0  0  0  0
    6.2767    6.0158   24.5702 C   0  0  0  0  0  0  0  0  0  0  0  0
    7.6199    5.9563   24.4974 F   0  0  0  0  0  0  0  0  0  0  0  0
    5.9667    6.7972   25.6206 F   0  0  0  0  0  0  0  0  0  0  0  0
    5.6537    4.6148   24.6930 C   0  0  0  0  0  0  0  0  0  0  0  0
    4.4516    4.3668   25.3873 C   0  0  0  0  0  0  0  0  0  0  0  0
    3.9192    3.0716   25.4149 C   0  0  0  0  0  0  0  0  0  0  0  0
    4.4728    2.0200   24.8012 N   0  0  0  0  0  0  0  0  0  0  0  0
    5.6035    2.2608   24.1296 C   0  0  0  0  0  0  0  0  0  0  0  0
    6.0840    1.1707   23.4930 N   0  0  0  0  0  0  0  0  0  0  0  0
    7.3236    1.1393   22.7407 C   0  0  0  0  0  0  0  0  0  0  0  0
    7.6504   -0.2320   22.2325 C   0  0  0  0  0  0  0  0  0  0  0  0
    8.3486   -1.2514   22.8418 C   0  0  0  0  0  0  0  0  0  0  0  0
    8.4212   -2.2659   21.8635 C   0  0  0  0  0  0  0  0  0  0  0  0
    7.8351   -1.9045   20.7359 N   0  0  0  0  0  0  0  0  0  0  0  0
    7.3434   -0.6718   20.9682 N   0  0  0  0  0  0  0  0  0  0  0  0
    6.6464    0.0035   19.9299 C   0  0  0  0  0  0  0  0  0  0  0  0
    5.4317    0.6516   20.1720 C   0  0  0  0  0  0  0  0  0  0  0  0
    4.8047    1.3022   19.1077 C   0  0  0  0  0  0  0  0  0  0  0  0
    5.4120    1.2819   17.8493 C   0  0  0  0  0  0  0  0  0  0  0  0
    6.5754    0.6527   17.6091 N   0  0  0  0  0  0  0  0  0  0  0  0
    7.1732    0.0251   18.6255 C   0  0  0  0  0  0  0  0  0  0  0  0
    8.1172   -0.4630   18.3936 H   0  0  0  0  0  0  0  0  0  0  0  0
    4.9543    1.7852   17.0015 H   0  0  0  0  0  0  0  0  0  0  0  0
    3.8741    1.8383   19.2502 H   0  0  0  0  0  0  0  0  0  0  0  0
    5.0046    0.6575   21.1742 H   0  0  0  0  0  0  0  0  0  0  0  0
    8.8631   -3.2491   21.9288 H   0  0  0  0  0  0  0  0  0  0  0  0
    8.7705   -1.2606   23.8371 H   0  0  0  0  0  0  0  0  0  0  0  0
    8.1717    1.4655   23.3644 H   0  0  0  0  0  0  0  0  0  0  0  0
    7.2710    1.8576   21.9056 H   0  0  0  0  0  0  0  0  0  0  0  0
    5.5499    0.3672   23.7868 H   0  0  0  0  0  0  0  0  0  0  0  0
    6.2371    3.5173   24.0592 C   0  0  0  0  0  0  0  0  0  0  0  0
    7.1588    3.5624   23.4978 H   0  0  0  0  0  0  0  0  0  0  0  0
    2.9899    2.8862   25.9590 H   0  0  0  0  0  0  0  0  0  0  0  0
    3.9251    5.1573   25.9032 H   0  0  0  0  0  0  0  0  0  0  0  0
  1  2  1  0
  2  3  1  0
  2  4  1  0
  2  5  1  0
  5  6  2  0
  6  7  1  0
  7  8  2  0
  8  9  1  0
  9 10  1  0
 10 11  1  0
 11 12  1  0
 12 13  2  0
 13 14  1  0
 14 15  2  0
 15 16  1  0
 16 17  1  0
 17 18  2  0
 18 19  1  0
 19 20  2  0
 20 21  1  0
 21 22  2  0
 22 23  1  0
 20 24  1  0
 19 25  1  0
 18 26  1  0
 14 27  1  0
 13 28  1  0
 11 29  1  0
 11 30  1  0
 10 31  1  0
  9 32  2  0
 32 33  1  0
  7 34  1  0
  6 35  1  0
 32  5  1  0
 16 12  1  0
 22 17  1  0
M  END
>  <cnnaffinity>  (1) 
-5.2545

>  <filename>  (1) 
FC(F)(F)c1ccnc(NCc2ccnn2-c2cccnc2)c1

$$$$
