
     RDKit          3D

 32 33  0  0  0  0  0  0  0  0999 V2000
    9.8854   -5.3676   24.9490 F   0  0  0  0  0  0  0  0  0  0  0  0
    8.8371   -4.6611   24.5020 C   0  0  0  0  0  0  0  0  0  0  0  0
    9.0986   -4.3485   23.2144 F   0  0  0  0  0  0  0  0  0  0  0  0
    7.7811   -5.5026   24.4878 F   0  0  0  0  0  0  0  0  0  0  0  0
    8.5544   -3.4085   25.3396 C   0  0  0  0  0  0  0  0  0  0  0  0
    9.3637   -3.0706   26.4346 C   0  0  0  0  0  0  0  0  0  0  0  0
    9.1639   -1.8625   27.1086 C   0  0  0  0  0  0  0  0  0  0  0  0
    8.1982   -0.9977   26.7808 N   0  0  0  0  0  0  0  0  0  0  0  0
    7.4123   -1.3228   25.7523 C   0  0  0  0  0  0  0  0  0  0  0  0
    7.5308   -2.5035   24.9949 C   0  0  0  0  0  0  0  0  0  0  0  0
    6.6029   -2.6934   23.8231 C   0  0  0  0  0  0  0  0  0  0  0  0
    6.9978   -1.7325   22.7990 N   0  0  0  0  0  0  0  0  0  0  0  0
    6.6802   -1.8095   21.4914 C   0  0  0  0  0  0  0  0  0  0  0  0
    5.6807   -2.9550   20.8523 S   0  0  0  0  0  0  0  0  0  0  0  0
    7.3240   -0.8247   20.7635 N   0  0  0  0  0  0  0  0  0  0  0  0
    6.7010   -0.0790   19.7024 C   0  0  0  0  0  0  0  0  0  0  0  0
    5.5137    0.6234   19.9444 C   0  0  0  0  0  0  0  0  0  0  0  0
    4.9239    1.3325   18.8940 C   0  0  0  0  0  0  0  0  0  0  0  0
    5.5590    1.3464   17.6475 C   0  0  0  0  0  0  0  0  0  0  0  0
    6.7218    0.7188   17.4160 N   0  0  0  0  0  0  0  0  0  0  0  0
    7.2824    0.0382   18.4256 C   0  0  0  0  0  0  0  0  0  0  0  0
    8.2403   -0.4418   18.2372 H   0  0  0  0  0  0  0  0  0  0  0  0
    5.1171    1.8753   16.8034 H   0  0  0  0  0  0  0  0  0  0  0  0
    4.0015    1.8826   19.0350 H   0  0  0  0  0  0  0  0  0  0  0  0
    5.0838    0.6159   20.9457 H   0  0  0  0  0  0  0  0  0  0  0  0
    7.9092   -0.2569   21.3561 H   0  0  0  0  0  0  0  0  0  0  0  0
    7.7220   -1.0805   23.0418 H   0  0  0  0  0  0  0  0  0  0  0  0
    6.6453   -3.7151   23.4347 H   0  0  0  0  0  0  0  0  0  0  0  0
    5.5635   -2.5208   24.1397 H   0  0  0  0  0  0  0  0  0  0  0  0
    6.6535   -0.5847   25.5000 H   0  0  0  0  0  0  0  0  0  0  0  0
    9.8161   -1.5733   27.9253 H   0  0  0  0  0  0  0  0  0  0  0  0
   10.1498   -3.7362   26.7633 H   0  0  0  0  0  0  0  0  0  0  0  0
  1  2  1  0
  2  3  1  0
  2  4  1  0
  2  5  1  0
  5  6  2  0
  6  7  1  0
  7  8  2  0
  8  9  1  0
  9 10  2  0
 10 11  1  0
 11 12  1  0
 12 13  1  0
 13 14  2  0
 13 15  1  0
 15 16  1  0
 16 17  2  0
 17 18  1  0
 18 19  2  0
 19 20  1  0
 20 21  2  0
 21 22  1  0
 19 23  1  0
 18 24  1  0
 17 25  1  0
 15 26  1  0
 12 27  1  0
 11 28  1  0
 11 29  1  0
  9 30  1  0
  7 31  1  0
  6 32  1  0
 10  5  1  0
 21 16  1  0
M  END
>  <cnnaffinity>  (1) 
-4.96357

>  <filename>  (1) 
FC(F)(F)c1ccncc1CNC(=S)Nc1cccnc1

$$$$
