
     RDKit          3D

 37 40  0  0  0  0  0  0  0  0999 V2000
   11.3627   -0.4835   23.2412 F   0  0  0  0  0  0  0  0  0  0  0  0
   11.2506   -1.2125   22.1030 C   0  0  0  0  0  0  0  0  0  0  0  0
   12.3466   -2.0248   22.0261 F   0  0  0  0  0  0  0  0  0  0  0  0
   10.0344   -2.1123   22.1541 C   0  0  0  0  0  0  0  0  0  0  0  0
    8.7733   -1.3937   22.0036 N   0  0  0  0  0  0  0  0  0  0  0  0
    8.5229   -0.8616   20.7928 N   0  0  0  0  0  0  0  0  0  0  0  0
    7.2484   -0.5080   20.8667 C   0  0  0  0  0  0  0  0  0  0  0  0
    6.5332    0.1377   19.7654 C   0  0  0  0  0  0  0  0  0  0  0  0
    5.3062    0.8068   19.9137 C   0  0  0  0  0  0  0  0  0  0  0  0
    4.7556    1.4214   18.7897 C   0  0  0  0  0  0  0  0  0  0  0  0
    5.4368    1.3470   17.5705 C   0  0  0  0  0  0  0  0  0  0  0  0
    6.6015    0.7013   17.4171 N   0  0  0  0  0  0  0  0  0  0  0  0
    7.1283    0.1164   18.4960 C   0  0  0  0  0  0  0  0  0  0  0  0
    8.0716   -0.4041   18.3418 H   0  0  0  0  0  0  0  0  0  0  0  0
    5.0259    1.8193   16.6807 H   0  0  0  0  0  0  0  0  0  0  0  0
    3.8168    1.9615   18.8409 H   0  0  0  0  0  0  0  0  0  0  0  0
    4.7962    0.8546   20.8779 H   0  0  0  0  0  0  0  0  0  0  0  0
    6.6665   -0.8004   22.0471 N   0  0  0  0  0  0  0  0  0  0  0  0
    7.6512   -1.3298   22.7701 C   0  0  0  0  0  0  0  0  0  0  0  0
    7.7157   -1.7189   24.2173 C   0  0  0  0  0  0  0  0  0  0  0  0
    8.8546   -1.4192   24.8425 N   0  0  0  0  0  0  0  0  0  0  0  0
    8.9587   -1.6032   26.1800 C   0  0  0  0  0  0  0  0  0  0  0  0
    7.9666   -2.1810   26.9281 C   0  0  0  0  0  0  0  0  0  0  0  0
    6.7585   -2.5507   26.3033 C   0  0  0  0  0  0  0  0  0  0  0  0
    5.6707   -3.0903   27.0239 C   0  0  0  0  0  0  0  0  0  0  0  0
    4.5509   -3.4862   26.3371 C   0  0  0  0  0  0  0  0  0  0  0  0
    4.4298   -3.4153   24.9873 N   0  0  0  0  0  0  0  0  0  0  0  0
    5.4307   -2.8877   24.3025 C   0  0  0  0  0  0  0  0  0  0  0  0
    6.6234   -2.3738   24.8994 C   0  0  0  0  0  0  0  0  0  0  0  0
    5.3194   -2.8348   23.2205 H   0  0  0  0  0  0  0  0  0  0  0  0
    3.6932   -3.9030   26.8588 H   0  0  0  0  0  0  0  0  0  0  0  0
    5.7397   -3.1815   28.1023 H   0  0  0  0  0  0  0  0  0  0  0  0
    8.1234   -2.3915   27.9703 H   0  0  0  0  0  0  0  0  0  0  0  0
    9.8760   -1.2626   26.6506 H   0  0  0  0  0  0  0  0  0  0  0  0
   10.1189   -2.7764   21.2975 H   0  0  0  0  0  0  0  0  0  0  0  0
   10.0578   -2.6845   23.0846 H   0  0  0  0  0  0  0  0  0  0  0  0
   11.2580   -0.5262   21.2530 H   0  0  0  0  0  0  0  0  0  0  0  0
  1  2  1  0
  2  3  1  0
  2  4  1  0
  4  5  1  0
  5  6  1  0
  6  7  2  0
  7  8  1  0
  8  9  2  0
  9 10  1  0
 10 11  2  0
 11 12  1  0
 12 13  2  0
 13 14  1  0
 11 15  1  0
 10 16  1  0
  9 17  1  0
  7 18  1  0
 18 19  2  0
 19 20  1  0
 20 21  2  0
 21 22  1  0
 22 23  2  0
 23 24  1  0
 24 25  2  0
 25 26  1  0
 26 27  2  0
 27 28  1  0
 28 29  2  0
 28 30  1  0
 26 31  1  0
 25 32  1  0
 23 33  1  0
 22 34  1  0
  4 35  1  0
  4 36  1  0
  2 37  1  0
 19  5  1  0
 29 20  1  0
 13  8  1  0
 29 24  1  0
M  END
>  <cnnaffinity>  (1) 
-5.6176

>  <filename>  (1) 
FC(F)Cn1nc(-c2cccnc2)nc1-c1nccc2ccncc12

$$$$
