
     RDKit          3D

 40 43  0  0  0  0  0  0  0  0999 V2000
    5.4683    3.9130   23.8525 F   0  0  0  0  0  0  0  0  0  0  0  0
    6.7653    4.0077   24.1570 C   0  0  0  0  0  0  0  0  0  0  0  0
    7.3598    4.7195   23.1826 F   0  0  0  0  0  0  0  0  0  0  0  0
    6.8607    4.7281   25.2918 F   0  0  0  0  0  0  0  0  0  0  0  0
    7.4086    2.6448   24.4307 C   0  0  0  0  0  0  0  0  0  0  0  0
    7.7711    1.8404   23.2779 N   0  0  0  0  0  0  0  0  0  0  0  0
    6.8088    1.1011   22.6803 N   0  0  0  0  0  0  0  0  0  0  0  0
    7.4819    0.3484   21.8348 C   0  0  0  0  0  0  0  0  0  0  0  0
    6.8156   -0.6390   20.9134 C   0  0  0  0  0  0  0  0  0  0  0  0
    6.2376   -0.0422   19.6283 C   0  0  0  0  0  0  0  0  0  0  0  0
    5.1440    0.8326   19.7050 C   0  0  0  0  0  0  0  0  0  0  0  0
    4.7015    1.4632   18.5403 C   0  0  0  0  0  0  0  0  0  0  0  0
    5.3632    1.1946   17.3389 C   0  0  0  0  0  0  0  0  0  0  0  0
    6.3815    0.3283   17.2325 N   0  0  0  0  0  0  0  0  0  0  0  0
    6.7890   -0.2793   18.3539 C   0  0  0  0  0  0  0  0  0  0  0  0
    7.6076   -0.9914   18.2363 H   0  0  0  0  0  0  0  0  0  0  0  0
    5.0595    1.6910   16.4203 H   0  0  0  0  0  0  0  0  0  0  0  0
    3.8797    2.1709   18.5546 H   0  0  0  0  0  0  0  0  0  0  0  0
    4.6642    1.0160   20.6697 H   0  0  0  0  0  0  0  0  0  0  0  0
    6.0070   -1.1022   21.4902 H   0  0  0  0  0  0  0  0  0  0  0  0
    7.5601   -1.4117   20.6983 H   0  0  0  0  0  0  0  0  0  0  0  0
    8.8258    0.5188   21.8704 N   0  0  0  0  0  0  0  0  0  0  0  0
    8.9865    1.4892   22.7578 C   0  0  0  0  0  0  0  0  0  0  0  0
   10.1916    2.2326   23.0522 C   0  0  0  0  0  0  0  0  0  0  0  0
   11.4898    1.7035   23.0208 C   0  0  0  0  0  0  0  0  0  0  0  0
   12.0490    0.3947   22.9841 C   0  0  0  0  0  0  0  0  0  0  0  0
   13.4186    0.2419   22.8722 C   0  0  0  0  0  0  0  0  0  0  0  0
   14.2598    1.3987   22.8127 C   0  0  0  0  0  0  0  0  0  0  0  0
   13.7205    2.6532   22.9003 C   0  0  0  0  0  0  0  0  0  0  0  0
   12.3526    2.8003   23.0403 N   0  0  0  0  0  0  0  0  0  0  0  0
   11.6234    3.9675   23.1356 C   0  0  0  0  0  0  0  0  0  0  0  0
   10.2964    3.6441   23.1442 C   0  0  0  0  0  0  0  0  0  0  0  0
    9.4528    4.3225   23.1224 H   0  0  0  0  0  0  0  0  0  0  0  0
   12.1372    4.9181   23.0934 H   0  0  0  0  0  0  0  0  0  0  0  0
   14.2984    3.5725   22.8789 H   0  0  0  0  0  0  0  0  0  0  0  0
   15.3246    1.3069   22.6440 H   0  0  0  0  0  0  0  0  0  0  0  0
   13.8576   -0.7506   22.8307 H   0  0  0  0  0  0  0  0  0  0  0  0
   11.3676   -0.4460   23.0096 H   0  0  0  0  0  0  0  0  0  0  0  0
    8.2826    2.8165   25.0608 H   0  0  0  0  0  0  0  0  0  0  0  0
    6.6603    2.0914   25.0026 H   0  0  0  0  0  0  0  0  0  0  0  0
  1  2  1  0
  2  3  1  0
  2  4  1  0
  2  5  1  0
  5  6  1  0
  6  7  1  0
  7  8  2  0
  8  9  1  0
  9 10  1  0
 10 11  2  0
 11 12  1  0
 12 13  2  0
 13 14  1  0
 14 15  2  0
 15 16  1  0
 13 17  1  0
 12 18  1  0
 11 19  1  0
  9 20  1  0
  9 21  1  0
  8 22  1  0
 22 23  2  0
 23 24  1  0
 24 25  2  0
 25 26  1  0
 26 27  2  0
 27 28  1  0
 28 29  2  0
 29 30  1  0
 30 31  1  0
 31 32  2  0
 32 33  1  0
 31 34  1  0
 29 35  1  0
 28 36  1  0
 27 37  1  0
 26 38  1  0
  5 39  1  0
  5 40  1  0
 23  6  1  0
 32 24  1  0
 15 10  1  0
 30 25  1  0
M  END
>  <cnnaffinity>  (1) 
-6.04383

>  <filename>  (1) 
FC(F)(F)Cn1nc(Cc2cccnc2)nc1-c1ccn2ccccc12

$$$$
