
     RDKit          3D

 25 26  0  0  0  0  0  0  0  0999 V2000
    4.9211    1.7857   16.9930 H   0  0  0  0  0  0  0  0  0  0  0  0
    5.4001    1.2923   17.8375 C   0  0  0  0  0  0  0  0  0  0  0  0
    6.5639    0.6766   17.5778 N   0  0  0  0  0  0  0  0  0  0  0  0
    7.1756    0.0557   18.5952 C   0  0  0  0  0  0  0  0  0  0  0  0
    8.1227   -0.4135   18.3510 H   0  0  0  0  0  0  0  0  0  0  0  0
    6.6786   -0.0154   19.9200 C   0  0  0  0  0  0  0  0  0  0  0  0
    7.3954   -0.7154   21.0113 C   0  0  0  0  0  0  0  0  0  0  0  0
    8.6289   -1.9270   20.7512 S   0  0  0  0  0  0  0  0  0  0  0  0
    8.8469   -2.1546   22.4326 C   0  0  0  0  0  0  0  0  0  0  0  0
    9.7952   -3.0619   22.7733 O   0  0  0  0  0  0  0  0  0  0  0  0
    9.9503   -3.4064   24.1395 C   0  0  0  0  0  0  0  0  0  0  0  0
    9.9178   -2.5377   24.8050 H   0  0  0  0  0  0  0  0  0  0  0  0
   10.9408   -3.8538   24.2205 H   0  0  0  0  0  0  0  0  0  0  0  0
    8.9445   -4.4420   24.6472 C   0  0  0  0  0  0  0  0  0  0  0  0
    7.6869   -3.9702   24.6385 F   0  0  0  0  0  0  0  0  0  0  0  0
    9.2503   -4.7508   25.9197 F   0  0  0  0  0  0  0  0  0  0  0  0
    8.9814   -5.5700   23.9305 F   0  0  0  0  0  0  0  0  0  0  0  0
    8.0607   -1.3366   23.1837 C   0  0  0  0  0  0  0  0  0  0  0  0
    8.0474   -1.3210   24.2667 H   0  0  0  0  0  0  0  0  0  0  0  0
    7.2359   -0.5155   22.3585 C   0  0  0  0  0  0  0  0  0  0  0  0
    6.5529    0.2259   22.7601 H   0  0  0  0  0  0  0  0  0  0  0  0
    5.4524    0.6440   20.1564 C   0  0  0  0  0  0  0  0  0  0  0  0
    5.0009    0.6309   21.1490 H   0  0  0  0  0  0  0  0  0  0  0  0
    4.8100    1.3059   19.1056 C   0  0  0  0  0  0  0  0  0  0  0  0
    3.8784    1.8389   19.2572 H   0  0  0  0  0  0  0  0  0  0  0  0
  1  2  1  0
  2  3  2  0
  3  4  1  0
  4  5  1  0
  4  6  2  0
  6  7  1  0
  7  8  1  0
  8  9  1  0
  9 10  1  0
 10 11  1  0
 11 12  1  0
 11 13  1  0
 11 14  1  0
 14 15  1  0
 14 16  1  0
 14 17  1  0
  9 18  2  0
 18 19  1  0
 18 20  1  0
 20 21  1  0
  6 22  1  0
 22 23  1  0
 22 24  2  0
 24 25  1  0
 24  2  1  0
 20  7  2  0
M  END
>  <cnnaffinity>  (1) 
-4.89177

>  <filename>  (1) 
FC(F)(F)COc1ccc(-c2cccnc2)s1

$$$$
