
     RDKit          3D

 25 26  0  0  0  0  0  0  0  0999 V2000
    4.9191    1.8175   16.9664 H   0  0  0  0  0  0  0  0  0  0  0  0
    5.3934    1.3387   17.8242 C   0  0  0  0  0  0  0  0  0  0  0  0
    6.5674    0.7329   17.5866 N   0  0  0  0  0  0  0  0  0  0  0  0
    7.1631    0.1260   18.6208 C   0  0  0  0  0  0  0  0  0  0  0  0
    8.1106   -0.3632   18.4091 H   0  0  0  0  0  0  0  0  0  0  0  0
    6.6526    0.0838   19.9361 C   0  0  0  0  0  0  0  0  0  0  0  0
    7.3746   -0.6359   21.0144 C   0  0  0  0  0  0  0  0  0  0  0  0
    7.5864   -1.9786   21.1884 C   0  0  0  0  0  0  0  0  0  0  0  0
    7.2634   -2.7782   20.5414 H   0  0  0  0  0  0  0  0  0  0  0  0
    8.2835   -2.2253   22.3449 N   0  0  0  0  0  0  0  0  0  0  0  0
    8.4956   -1.0534   22.8785 C   0  0  0  0  0  0  0  0  0  0  0  0
    9.0367   -0.8784   23.8019 H   0  0  0  0  0  0  0  0  0  0  0  0
    7.9542   -0.0362   22.1308 N   0  0  0  0  0  0  0  0  0  0  0  0
    7.9683    1.3646   22.5137 C   0  0  0  0  0  0  0  0  0  0  0  0
    8.9622    1.7964   22.3453 H   0  0  0  0  0  0  0  0  0  0  0  0
    7.2665    1.9116   21.8760 H   0  0  0  0  0  0  0  0  0  0  0  0
    7.5997    1.6732   24.2760 S   0  0  0  0  0  0  0  0  0  0  0  0
    5.9114    0.9924   24.4421 C   0  0  0  0  0  0  0  0  0  0  0  0
    5.1043    1.4797   23.4949 F   0  0  0  0  0  0  0  0  0  0  0  0
    5.4474    1.3433   25.6429 F   0  0  0  0  0  0  0  0  0  0  0  0
    5.9137   -0.3337   24.3707 F   0  0  0  0  0  0  0  0  0  0  0  0
    5.4190    0.7156   20.1547 C   0  0  0  0  0  0  0  0  0  0  0  0
    4.9799    0.7112   21.1555 H   0  0  0  0  0  0  0  0  0  0  0  0
    4.7827    1.3461   19.0826 C   0  0  0  0  0  0  0  0  0  0  0  0
    3.8319    1.8437   19.2094 H   0  0  0  0  0  0  0  0  0  0  0  0
  1  2  1  0
  2  3  2  0
  3  4  1  0
  4  5  1  0
  4  6  2  0
  6  7  1  0
  7  8  2  0
  8  9  1  0
  8 10  1  0
 10 11  2  0
 11 12  1  0
 11 13  1  0
 13 14  1  0
 14 15  1  0
 14 16  1  0
 14 17  1  0
 17 18  1  0
 18 19  1  0
 18 20  1  0
 18 21  1  0
  6 22  1  0
 22 23  1  0
 22 24  2  0
 24 25  1  0
 24  2  1  0
 13  7  1  0
M  END
>  <cnnaffinity>  (1) 
-4.51978

>  <filename>  (1) 
FC(F)(F)SCn1cncc1-c1cccnc1

$$$$
