
     RDKit          3D

 40 42  0  0  0  0  0  0  0  0999 V2000
   13.0061   -0.3338   22.1864 F   0  0  0  0  0  0  0  0  0  0  0  0
   11.6784   -0.4833   22.3613 C   0  0  0  0  0  0  0  0  0  0  0  0
   11.4485   -0.2551   23.6753 F   0  0  0  0  0  0  0  0  0  0  0  0
   11.0661    0.5023   21.6822 F   0  0  0  0  0  0  0  0  0  0  0  0
   11.2472   -1.8652   21.9216 C   0  0  0  0  0  0  0  0  0  0  0  0
    9.9487   -2.4091   22.4958 C   0  0  0  0  0  0  0  0  0  0  0  0
    8.7463   -1.6672   22.1519 N   0  0  0  0  0  0  0  0  0  0  0  0
    8.5064   -1.2270   20.8980 N   0  0  0  0  0  0  0  0  0  0  0  0
    7.2954   -0.7113   20.9987 C   0  0  0  0  0  0  0  0  0  0  0  0
    6.6242   -0.0203   19.9052 C   0  0  0  0  0  0  0  0  0  0  0  0
    5.4120    0.6506   20.1213 C   0  0  0  0  0  0  0  0  0  0  0  0
    4.8237    1.3049   19.0448 C   0  0  0  0  0  0  0  0  0  0  0  0
    5.4680    1.2725   17.8022 C   0  0  0  0  0  0  0  0  0  0  0  0
    6.6283    0.6337   17.5844 N   0  0  0  0  0  0  0  0  0  0  0  0
    7.1947    0.0088   18.6228 C   0  0  0  0  0  0  0  0  0  0  0  0
    8.1413   -0.4900   18.4181 H   0  0  0  0  0  0  0  0  0  0  0  0
    5.0318    1.7855   16.9474 H   0  0  0  0  0  0  0  0  0  0  0  0
    3.8972    1.8557   19.1664 H   0  0  0  0  0  0  0  0  0  0  0  0
    4.9680    0.6568   21.1198 H   0  0  0  0  0  0  0  0  0  0  0  0
    6.7235   -0.8494   22.2273 N   0  0  0  0  0  0  0  0  0  0  0  0
    7.6586   -1.4540   22.9316 C   0  0  0  0  0  0  0  0  0  0  0  0
    7.6949   -1.8040   24.3890 C   0  0  0  0  0  0  0  0  0  0  0  0
    8.5724   -0.8298   25.2181 C   0  0  0  0  0  0  0  0  0  0  0  0
    7.9776    0.5576   25.1955 C   0  0  0  0  0  0  0  0  0  0  0  0
    6.8491    0.8591   25.9653 C   0  0  0  0  0  0  0  0  0  0  0  0
    6.1955    2.0177   25.8992 N   0  0  0  0  0  0  0  0  0  0  0  0
    6.6725    2.9121   25.0307 C   0  0  0  0  0  0  0  0  0  0  0  0
    7.7412    2.7591   24.2550 N   0  0  0  0  0  0  0  0  0  0  0  0
    8.3753    1.5824   24.3363 C   0  0  0  0  0  0  0  0  0  0  0  0
    9.2453    1.4477   23.6789 H   0  0  0  0  0  0  0  0  0  0  0  0
    6.1351    3.8610   24.9647 H   0  0  0  0  0  0  0  0  0  0  0  0
    6.4549    0.1052   26.6586 H   0  0  0  0  0  0  0  0  0  0  0  0
    8.6206   -1.1938   26.2511 H   0  0  0  0  0  0  0  0  0  0  0  0
    9.6031   -0.8023   24.8496 H   0  0  0  0  0  0  0  0  0  0  0  0
    8.0684   -2.8296   24.4952 H   0  0  0  0  0  0  0  0  0  0  0  0
    6.6765   -1.8067   24.7890 H   0  0  0  0  0  0  0  0  0  0  0  0
   10.0480   -2.4338   23.5824 H   0  0  0  0  0  0  0  0  0  0  0  0
    9.8292   -3.4351   22.1553 H   0  0  0  0  0  0  0  0  0  0  0  0
   12.0437   -2.5545   22.2184 H   0  0  0  0  0  0  0  0  0  0  0  0
   11.1906   -1.8507   20.8366 H   0  0  0  0  0  0  0  0  0  0  0  0
  1  2  1  0
  2  3  1  0
  2  4  1  0
  2  5  1  0
  5  6  1  0
  6  7  1  0
  7  8  1  0
  8  9  2  0
  9 10  1  0
 10 11  2  0
 11 12  1  0
 12 13  2  0
 13 14  1  0
 14 15  2  0
 15 16  1  0
 13 17  1  0
 12 18  1  0
 11 19  1  0
  9 20  1  0
 20 21  2  0
 21 22  1  0
 22 23  1  0
 23 24  1  0
 24 25  2  0
 25 26  1  0
 26 27  2  0
 27 28  1  0
 28 29  2  0
 29 30  1  0
 27 31  1  0
 25 32  1  0
 23 33  1  0
 23 34  1  0
 22 35  1  0
 22 36  1  0
  6 37  1  0
  6 38  1  0
  5 39  1  0
  5 40  1  0
 21  7  1  0
 29 24  1  0
 15 10  1  0
M  END
>  <cnnaffinity>  (1) 
-6.26433

>  <filename>  (1) 
FC(F)(F)CCn1nc(-c2cccnc2)nc1CCc1cncnc1

$$$$
