
     RDKit          3D

 39 42  0  0  0  0  0  0  0  0999 V2000
   10.4307    0.3028   22.4090 F   0  0  0  0  0  0  0  0  0  0  0  0
   11.4029   -0.6213   22.3531 C   0  0  0  0  0  0  0  0  0  0  0  0
   12.3942   -0.1834   23.1463 F   0  0  0  0  0  0  0  0  0  0  0  0
   11.8599   -0.6540   21.0873 F   0  0  0  0  0  0  0  0  0  0  0  0
   10.8963   -1.9931   22.7673 C   0  0  0  0  0  0  0  0  0  0  0  0
    9.7936   -2.5624   21.8421 C   0  0  0  0  0  0  0  0  0  0  0  0
    8.5528   -1.7466   21.6615 C   0  0  0  0  0  0  0  0  0  0  0  0
    8.1763   -1.2743   20.4984 N   0  0  0  0  0  0  0  0  0  0  0  0
    7.0796   -0.5295   20.7876 C   0  0  0  0  0  0  0  0  0  0  0  0
    6.3770    0.1792   19.7232 C   0  0  0  0  0  0  0  0  0  0  0  0
    5.1689    0.8717   19.8938 C   0  0  0  0  0  0  0  0  0  0  0  0
    4.6402    1.5249   18.7809 C   0  0  0  0  0  0  0  0  0  0  0  0
    5.3239    1.4595   17.5593 C   0  0  0  0  0  0  0  0  0  0  0  0
    6.4634    0.7750   17.3838 N   0  0  0  0  0  0  0  0  0  0  0  0
    6.9704    0.1578   18.4520 C   0  0  0  0  0  0  0  0  0  0  0  0
    7.9025   -0.3824   18.3050 H   0  0  0  0  0  0  0  0  0  0  0  0
    4.9443    1.9735   16.6803 H   0  0  0  0  0  0  0  0  0  0  0  0
    3.7234    2.0989   18.8441 H   0  0  0  0  0  0  0  0  0  0  0  0
    4.6667    0.8972   20.8647 H   0  0  0  0  0  0  0  0  0  0  0  0
    6.7578   -0.5071   22.0699 N   0  0  0  0  0  0  0  0  0  0  0  0
    7.6834   -1.3511   22.6265 N   0  0  0  0  0  0  0  0  0  0  0  0
    7.6908   -1.6907   24.0096 C   0  0  0  0  0  0  0  0  0  0  0  0
    7.8156   -2.9972   24.5079 C   0  0  0  0  0  0  0  0  0  0  0  0
    7.9111   -3.2373   25.8981 C   0  0  0  0  0  0  0  0  0  0  0  0
    7.8968   -2.1889   26.8161 C   0  0  0  0  0  0  0  0  0  0  0  0
    7.7267   -0.8753   26.3348 C   0  0  0  0  0  0  0  0  0  0  0  0
    7.5951   -0.6527   24.9559 C   0  0  0  0  0  0  0  0  0  0  0  0
    7.3755    0.6983   24.8336 N   0  0  0  0  0  0  0  0  0  0  0  0
    7.4061    1.2147   26.0934 C   0  0  0  0  0  0  0  0  0  0  0  0
    7.6149    0.3255   27.0200 N   0  0  0  0  0  0  0  0  0  0  0  0
    7.2780    2.2759   26.2807 H   0  0  0  0  0  0  0  0  0  0  0  0
    7.0674    1.1423   23.9834 H   0  0  0  0  0  0  0  0  0  0  0  0
    8.0008   -2.3501   27.8763 H   0  0  0  0  0  0  0  0  0  0  0  0
    7.9911   -4.2639   26.2546 H   0  0  0  0  0  0  0  0  0  0  0  0
    7.7853   -3.8428   23.8264 H   0  0  0  0  0  0  0  0  0  0  0  0
    9.4994   -3.5590   22.1899 H   0  0  0  0  0  0  0  0  0  0  0  0
   10.2005   -2.6546   20.8307 H   0  0  0  0  0  0  0  0  0  0  0  0
   10.5554   -1.9141   23.8012 H   0  0  0  0  0  0  0  0  0  0  0  0
   11.7670   -2.6562   22.7502 H   0  0  0  0  0  0  0  0  0  0  0  0
  1  2  1  0
  2  3  1  0
  2  4  1  0
  2  5  1  0
  5  6  1  0
  6  7  1  0
  7  8  2  0
  8  9  1  0
  9 10  1  0
 10 11  2  0
 11 12  1  0
 12 13  2  0
 13 14  1  0
 14 15  2  0
 15 16  1  0
 13 17  1  0
 12 18  1  0
 11 19  1  0
  9 20  2  0
 20 21  1  0
 21 22  1  0
 22 23  2  0
 23 24  1  0
 24 25  2  0
 25 26  1  0
 26 27  2  0
 27 28  1  0
 28 29  1  0
 29 30  2  0
 29 31  1  0
 28 32  1  0
 25 33  1  0
 24 34  1  0
 23 35  1  0
  6 36  1  0
  6 37  1  0
  5 38  1  0
  5 39  1  0
 21  7  1  0
 27 22  1  0
 15 10  1  0
 30 26  1  0
M  END
>  <cnnaffinity>  (1) 
-6.41186

>  <filename>  (1) 
FC(F)(F)CCc1nc(-c2cccnc2)nn1-c1cccc2nc[nH]c12

$$$$
