
     RDKit          3D

 28 30  0  0  0  0  0  0  0  0999 V2000
    6.0967   -0.6421   24.8066 F   0  0  0  0  0  0  0  0  0  0  0  0
    6.7137    0.4874   25.1929 C   0  0  0  0  0  0  0  0  0  0  0  0
    7.8854    0.1196   25.7547 F   0  0  0  0  0  0  0  0  0  0  0  0
    5.9640    1.0648   26.1498 F   0  0  0  0  0  0  0  0  0  0  0  0
    6.9176    1.4254   24.0734 C   0  0  0  0  0  0  0  0  0  0  0  0
    6.8226    2.7976   24.0638 C   0  0  0  0  0  0  0  0  0  0  0  0
    7.1151    3.1694   22.8025 N   0  0  0  0  0  0  0  0  0  0  0  0
    7.3965    2.1443   21.9929 N   0  0  0  0  0  0  0  0  0  0  0  0
    7.2895    1.0596   22.7587 C   0  0  0  0  0  0  0  0  0  0  0  0
    7.6099   -0.2675   22.2508 C   0  0  0  0  0  0  0  0  0  0  0  0
    8.2586   -1.3198   22.8626 C   0  0  0  0  0  0  0  0  0  0  0  0
    8.3902   -2.2894   21.8579 C   0  0  0  0  0  0  0  0  0  0  0  0
    7.8689   -1.8853   20.7099 N   0  0  0  0  0  0  0  0  0  0  0  0
    7.3773   -0.6590   20.9487 N   0  0  0  0  0  0  0  0  0  0  0  0
    6.6480    0.0005   19.9219 C   0  0  0  0  0  0  0  0  0  0  0  0
    5.4188    0.6252   20.1653 C   0  0  0  0  0  0  0  0  0  0  0  0
    4.8013    1.2841   19.1006 C   0  0  0  0  0  0  0  0  0  0  0  0
    5.4108    1.2808   17.8442 C   0  0  0  0  0  0  0  0  0  0  0  0
    6.5776    0.6577   17.6017 N   0  0  0  0  0  0  0  0  0  0  0  0
    7.1724    0.0287   18.6163 C   0  0  0  0  0  0  0  0  0  0  0  0
    8.1196   -0.4537   18.3827 H   0  0  0  0  0  0  0  0  0  0  0  0
    4.9562    1.7885   16.9959 H   0  0  0  0  0  0  0  0  0  0  0  0
    3.8796    1.8297   19.2479 H   0  0  0  0  0  0  0  0  0  0  0  0
    4.9987    0.6469   21.1720 H   0  0  0  0  0  0  0  0  0  0  0  0
    8.8400   -3.2735   21.9018 H   0  0  0  0  0  0  0  0  0  0  0  0
    8.5836   -1.3413   23.8949 H   0  0  0  0  0  0  0  0  0  0  0  0
    7.1583    4.1033   22.4156 H   0  0  0  0  0  0  0  0  0  0  0  0
    6.5785    3.5112   24.8422 H   0  0  0  0  0  0  0  0  0  0  0  0
  1  2  1  0
  2  3  1  0
  2  4  1  0
  2  5  1  0
  5  6  2  0
  6  7  1  0
  7  8  1  0
  8  9  2  0
  9 10  1  0
 10 11  2  0
 11 12  1  0
 12 13  2  0
 13 14  1  0
 14 15  1  0
 15 16  2  0
 16 17  1  0
 17 18  2  0
 18 19  1  0
 19 20  2  0
 20 21  1  0
 18 22  1  0
 17 23  1  0
 16 24  1  0
 12 25  1  0
 11 26  1  0
  7 27  1  0
  6 28  1  0
  9  5  1  0
 14 10  1  0
 20 15  1  0
M  END
>  <cnnaffinity>  (1) 
-5.28346

>  <filename>  (1) 
FC(F)(F)c1c[nH]nc1-c1ccnn1-c1cccnc1

$$$$
