
     RDKit          3D

 34 37  0  0  0  0  0  0  0  0999 V2000
   12.0764   -2.3319   22.2595 F   0  0  0  0  0  0  0  0  0  0  0  0
   11.1253   -1.4030   22.0324 C   0  0  0  0  0  0  0  0  0  0  0  0
   11.2883   -0.4594   22.9611 F   0  0  0  0  0  0  0  0  0  0  0  0
   11.3689   -0.8477   20.8468 F   0  0  0  0  0  0  0  0  0  0  0  0
    9.7802   -2.1279   22.1170 C   0  0  0  0  0  0  0  0  0  0  0  0
    8.5888   -1.3225   21.8963 N   0  0  0  0  0  0  0  0  0  0  0  0
    8.3615   -0.8895   20.6392 N   0  0  0  0  0  0  0  0  0  0  0  0
    7.1391   -0.3965   20.7124 C   0  0  0  0  0  0  0  0  0  0  0  0
    6.4714    0.2114   19.5702 C   0  0  0  0  0  0  0  0  0  0  0  0
    5.2418    0.8764   19.6562 C   0  0  0  0  0  0  0  0  0  0  0  0
    4.7704    1.5028   18.5038 C   0  0  0  0  0  0  0  0  0  0  0  0
    5.5261    1.4153   17.3275 C   0  0  0  0  0  0  0  0  0  0  0  0
    6.6838    0.7488   17.2362 N   0  0  0  0  0  0  0  0  0  0  0  0
    7.1427    0.1617   18.3435 C   0  0  0  0  0  0  0  0  0  0  0  0
    8.0878   -0.3729   18.2638 H   0  0  0  0  0  0  0  0  0  0  0  0
    5.1767    1.8870   16.4118 H   0  0  0  0  0  0  0  0  0  0  0  0
    3.8383    2.0546   18.4971 H   0  0  0  0  0  0  0  0  0  0  0  0
    4.6836    0.8990   20.5976 H   0  0  0  0  0  0  0  0  0  0  0  0
    6.5556   -0.4993   21.9243 N   0  0  0  0  0  0  0  0  0  0  0  0
    7.4788   -1.0855   22.6595 C   0  0  0  0  0  0  0  0  0  0  0  0
    7.4127   -1.4520   24.0670 C   0  0  0  0  0  0  0  0  0  0  0  0
    8.2510   -0.9331   25.0453 C   0  0  0  0  0  0  0  0  0  0  0  0
    9.5600    0.2040   25.2476 S   0  0  0  0  0  0  0  0  0  0  0  0
    9.7524   -0.3142   26.8970 C   0  0  0  0  0  0  0  0  0  0  0  0
    8.8311   -1.2170   27.2619 C   0  0  0  0  0  0  0  0  0  0  0  0
    7.9548   -1.5319   26.2334 N   0  0  0  0  0  0  0  0  0  0  0  0
    6.9058   -2.4124   26.0622 C   0  0  0  0  0  0  0  0  0  0  0  0
    6.5629   -2.4020   24.7405 C   0  0  0  0  0  0  0  0  0  0  0  0
    5.7953   -3.0224   24.2989 H   0  0  0  0  0  0  0  0  0  0  0  0
    6.4828   -2.9401   26.9017 H   0  0  0  0  0  0  0  0  0  0  0  0
    8.7140   -1.7082   28.2086 H   0  0  0  0  0  0  0  0  0  0  0  0
   10.5989    0.0104   27.4827 H   0  0  0  0  0  0  0  0  0  0  0  0
    9.7286   -2.6062   23.0959 H   0  0  0  0  0  0  0  0  0  0  0  0
    9.8093   -2.8812   21.3283 H   0  0  0  0  0  0  0  0  0  0  0  0
  1  2  1  0
  2  3  1  0
  2  4  1  0
  2  5  1  0
  5  6  1  0
  6  7  1  0
  7  8  2  0
  8  9  1  0
  9 10  2  0
 10 11  1  0
 11 12  2  0
 12 13  1  0
 13 14  2  0
 14 15  1  0
 12 16  1  0
 11 17  1  0
 10 18  1  0
  8 19  1  0
 19 20  2  0
 20 21  1  0
 21 22  2  0
 22 23  1  0
 23 24  1  0
 24 25  2  0
 25 26  1  0
 26 27  1  0
 27 28  2  0
 28 29  1  0
 27 30  1  0
 25 31  1  0
 24 32  1  0
  5 33  1  0
  5 34  1  0
 20  6  1  0
 28 21  1  0
 14  9  1  0
 26 22  1  0
M  END
>  <cnnaffinity>  (1) 
-5.88632

>  <filename>  (1) 
FC(F)(F)Cn1nc(-c2cccnc2)nc1-c1ccn2ccsc12

$$$$
