
     RDKit          3D

 27 28  0  0  0  0  0  0  0  0999 V2000
    9.8661    5.6955   22.4889 F   0  0  0  0  0  0  0  0  0  0  0  0
   10.5842    4.6784   23.0356 C   0  0  0  0  0  0  0  0  0  0  0  0
   10.4693    4.7758   24.3864 F   0  0  0  0  0  0  0  0  0  0  0  0
   11.8896    4.8728   22.6979 F   0  0  0  0  0  0  0  0  0  0  0  0
   10.0590    3.3159   22.5786 C   0  0  0  0  0  0  0  0  0  0  0  0
    8.6738    3.1065   22.4138 C   0  0  0  0  0  0  0  0  0  0  0  0
    8.1971    1.8792   21.9450 C   0  0  0  0  0  0  0  0  0  0  0  0
    9.1009    0.8447   21.6645 C   0  0  0  0  0  0  0  0  0  0  0  0
    8.6904   -0.3712   21.1368 O   0  0  0  0  0  0  0  0  0  0  0  0
    7.2741   -0.6408   21.0821 C   0  0  0  0  0  0  0  0  0  0  0  0
    6.6004    0.0601   19.9283 C   0  0  0  0  0  0  0  0  0  0  0  0
    5.3794    0.7082   20.1240 C   0  0  0  0  0  0  0  0  0  0  0  0
    4.7973    1.3491   19.0333 C   0  0  0  0  0  0  0  0  0  0  0  0
    5.4383    1.3320   17.7909 C   0  0  0  0  0  0  0  0  0  0  0  0
    6.6041    0.6885   17.5936 N   0  0  0  0  0  0  0  0  0  0  0  0
    7.1694    0.0636   18.6421 C   0  0  0  0  0  0  0  0  0  0  0  0
    8.1080   -0.4537   18.4715 H   0  0  0  0  0  0  0  0  0  0  0  0
    4.9754    1.8500   16.9564 H   0  0  0  0  0  0  0  0  0  0  0  0
    3.8575    1.8794   19.1396 H   0  0  0  0  0  0  0  0  0  0  0  0
    4.9036    0.7258   21.1048 H   0  0  0  0  0  0  0  0  0  0  0  0
    6.7932   -0.3517   22.0250 H   0  0  0  0  0  0  0  0  0  0  0  0
    7.1203   -1.7184   20.9728 H   0  0  0  0  0  0  0  0  0  0  0  0
   10.4679    1.0877   21.9431 C   0  0  0  0  0  0  0  0  0  0  0  0
   11.7468   -0.3314   21.7897 Br  0  0  0  0  0  0  0  0  0  0  0  0
   10.9194    2.2869   22.3702 N   0  0  0  0  0  0  0  0  0  0  0  0
    7.1327    1.7259   21.7863 H   0  0  0  0  0  0  0  0  0  0  0  0
    7.9594    3.9006   22.6273 H   0  0  0  0  0  0  0  0  0  0  0  0
  1  2  1  0
  2  3  1  0
  2  4  1  0
  2  5  1  0
  5  6  2  0
  6  7  1  0
  7  8  2  0
  8  9  1  0
  9 10  1  0
 10 11  1  0
 11 12  2  0
 12 13  1  0
 13 14  2  0
 14 15  1  0
 15 16  2  0
 16 17  1  0
 14 18  1  0
 13 19  1  0
 12 20  1  0
 10 21  1  0
 10 22  1  0
  8 23  1  0
 23 24  1  0
 23 25  2  0
  7 26  1  0
  6 27  1  0
 25  5  1  0
 16 11  1  0
M  END
>  <cnnaffinity>  (1) 
-4.95479

>  <filename>  (1) 
FC(F)(F)c1ccc(OCc2cccnc2)c(Br)n1

$$$$
