
     RDKit          3D

 39 42  0  0  0  0  0  0  0  0999 V2000
   12.2834   -2.3852   22.4241 F   0  0  0  0  0  0  0  0  0  0  0  0
   11.1944   -1.5995   22.3675 C   0  0  0  0  0  0  0  0  0  0  0  0
   11.4635   -0.6326   21.4836 F   0  0  0  0  0  0  0  0  0  0  0  0
   11.0132   -1.0224   23.5725 F   0  0  0  0  0  0  0  0  0  0  0  0
   10.0037   -2.4787   22.0314 C   0  0  0  0  0  0  0  0  0  0  0  0
    8.7369   -1.7920   21.9495 N   0  0  0  0  0  0  0  0  0  0  0  0
    8.4401   -1.2857   20.7384 N   0  0  0  0  0  0  0  0  0  0  0  0
    7.3160   -0.6406   20.9491 C   0  0  0  0  0  0  0  0  0  0  0  0
    6.6133    0.0465   19.8868 C   0  0  0  0  0  0  0  0  0  0  0  0
    5.3982    0.6937   20.1222 C   0  0  0  0  0  0  0  0  0  0  0  0
    4.7923    1.3311   19.0465 C   0  0  0  0  0  0  0  0  0  0  0  0
    5.4238    1.2986   17.7953 C   0  0  0  0  0  0  0  0  0  0  0  0
    6.5855    0.6661   17.5654 N   0  0  0  0  0  0  0  0  0  0  0  0
    7.1663    0.0547   18.5993 C   0  0  0  0  0  0  0  0  0  0  0  0
    8.1130   -0.4517   18.4062 H   0  0  0  0  0  0  0  0  0  0  0  0
    4.9847    1.8051   16.9397 H   0  0  0  0  0  0  0  0  0  0  0  0
    3.8554    1.8592   19.1678 H   0  0  0  0  0  0  0  0  0  0  0  0
    4.9743    0.6861   21.1293 H   0  0  0  0  0  0  0  0  0  0  0  0
    6.8725   -0.6815   22.2269 N   0  0  0  0  0  0  0  0  0  0  0  0
    7.7709   -1.4287   22.8387 C   0  0  0  0  0  0  0  0  0  0  0  0
    7.7405   -1.9032   24.2616 C   0  0  0  0  0  0  0  0  0  0  0  0
    7.2426   -0.8007   25.2466 C   0  0  0  0  0  0  0  0  0  0  0  0
    6.1768   -1.4611   26.0799 C   0  0  0  0  0  0  0  0  0  0  0  0
    5.4072   -0.9601   27.1305 C   0  0  0  0  0  0  0  0  0  0  0  0
    4.4501   -1.8187   27.6964 C   0  0  0  0  0  0  0  0  0  0  0  0
    4.3125   -3.1188   27.1929 C   0  0  0  0  0  0  0  0  0  0  0  0
    5.0478   -3.6102   26.1858 N   0  0  0  0  0  0  0  0  0  0  0  0
    5.9482   -2.7742   25.6606 C   0  0  0  0  0  0  0  0  0  0  0  0
    6.8277   -3.1617   24.5096 C   0  0  0  0  0  0  0  0  0  0  0  0
    7.4056   -4.0533   24.7753 H   0  0  0  0  0  0  0  0  0  0  0  0
    6.1980   -3.4361   23.6559 H   0  0  0  0  0  0  0  0  0  0  0  0
    3.5689   -3.7987   27.6103 H   0  0  0  0  0  0  0  0  0  0  0  0
    3.8147   -1.4916   28.5077 H   0  0  0  0  0  0  0  0  0  0  0  0
    5.5338    0.0593   27.4995 H   0  0  0  0  0  0  0  0  0  0  0  0
    8.0737   -0.4240   25.8503 H   0  0  0  0  0  0  0  0  0  0  0  0
    6.8365    0.0713   24.7228 H   0  0  0  0  0  0  0  0  0  0  0  0
    8.7732   -2.1673   24.5286 H   0  0  0  0  0  0  0  0  0  0  0  0
    9.9620   -3.2950   22.7555 H   0  0  0  0  0  0  0  0  0  0  0  0
   10.1634   -2.8677   21.0314 H   0  0  0  0  0  0  0  0  0  0  0  0
  1  2  1  0
  2  3  1  0
  2  4  1  0
  2  5  1  0
  5  6  1  0
  6  7  1  0
  7  8  2  0
  8  9  1  0
  9 10  2  0
 10 11  1  0
 11 12  2  0
 12 13  1  0
 13 14  2  0
 14 15  1  0
 12 16  1  0
 11 17  1  0
 10 18  1  0
  8 19  1  0
 19 20  2  0
 20 21  1  0
 21 22  1  0
 22 23  1  0
 23 24  2  0
 24 25  1  0
 25 26  2  0
 26 27  1  0
 27 28  2  0
 28 29  1  0
 29 30  1  0
 29 31  1  0
 26 32  1  0
 25 33  1  0
 24 34  1  0
 22 35  1  0
 22 36  1  0
 21 37  1  0
  5 38  1  0
  5 39  1  0
 20  6  1  0
 29 21  1  0
 14  9  1  0
 28 23  1  0
M  END
>  <cnnaffinity>  (1) 
-6.28496

>  <filename>  (1) 
FC(F)(F)Cn1nc(-c2cccnc2)nc1C1Cc2cccnc2C1

$$$$
