
     RDKit          3D

 26 27  0  0  0  0  0  0  0  0999 V2000
    4.9366    1.7790   16.9985 H   0  0  0  0  0  0  0  0  0  0  0  0
    5.4107    1.2872   17.8456 C   0  0  0  0  0  0  0  0  0  0  0  0
    6.5676    0.6601   17.5944 N   0  0  0  0  0  0  0  0  0  0  0  0
    7.1637    0.0357   18.6191 C   0  0  0  0  0  0  0  0  0  0  0  0
    8.1153   -0.4369   18.3767 H   0  0  0  0  0  0  0  0  0  0  0  0
    6.6353   -0.0146   19.9125 C   0  0  0  0  0  0  0  0  0  0  0  0
    7.3423   -0.7791   20.9632 C   0  0  0  0  0  0  0  0  0  0  0  0
    6.7071   -1.8699   21.4057 N   0  0  0  0  0  0  0  0  0  0  0  0
    7.3011   -2.5772   22.3725 C   0  0  0  0  0  0  0  0  0  0  0  0
    6.7566   -3.4583   22.6977 H   0  0  0  0  0  0  0  0  0  0  0  0
    8.5261   -2.2416   22.9537 C   0  0  0  0  0  0  0  0  0  0  0  0
    8.9434   -2.8556   23.7412 H   0  0  0  0  0  0  0  0  0  0  0  0
    9.1810   -1.0991   22.5093 C   0  0  0  0  0  0  0  0  0  0  0  0
   10.1207   -0.7585   22.9578 H   0  0  0  0  0  0  0  0  0  0  0  0
    8.5939   -0.3524   21.4826 C   0  0  0  0  0  0  0  0  0  0  0  0
    9.2556    0.9616   21.1203 C   0  0  0  0  0  0  0  0  0  0  0  0
    9.0080    1.2312   20.0973 H   0  0  0  0  0  0  0  0  0  0  0  0
   10.3446    0.9016   21.2084 H   0  0  0  0  0  0  0  0  0  0  0  0
    8.8149    2.1176   22.0092 C   0  0  0  0  0  0  0  0  0  0  0  0
    9.4346    3.2463   21.6781 F   0  0  0  0  0  0  0  0  0  0  0  0
    9.0982    1.8987   23.3080 F   0  0  0  0  0  0  0  0  0  0  0  0
    7.4897    2.3369   21.9034 F   0  0  0  0  0  0  0  0  0  0  0  0
    5.4237    0.6346   20.1619 C   0  0  0  0  0  0  0  0  0  0  0  0
    4.9960    0.6339   21.1695 H   0  0  0  0  0  0  0  0  0  0  0  0
    4.8079    1.3083   19.1095 C   0  0  0  0  0  0  0  0  0  0  0  0
    3.8798    1.8435   19.2545 H   0  0  0  0  0  0  0  0  0  0  0  0
  1  2  1  0
  2  3  2  0
  3  4  1  0
  4  5  1  0
  4  6  2  0
  6  7  1  0
  7  8  2  0
  8  9  1  0
  9 10  1  0
  9 11  2  0
 11 12  1  0
 11 13  1  0
 13 14  1  0
 13 15  2  0
 15 16  1  0
 16 17  1  0
 16 18  1  0
 16 19  1  0
 19 20  1  0
 19 21  1  0
 19 22  1  0
  6 23  1  0
 23 24  1  0
 23 25  2  0
 25 26  1  0
 25  2  1  0
 15  7  1  0
M  END
>  <cnnaffinity>  (1) 
-4.79023

>  <filename>  (1) 
FC(F)(F)Cc1cccnc1-c1cccnc1

$$$$
