
     RDKit          3D

 24 25  0  0  0  0  0  0  0  0999 V2000
   11.4497   -3.5828   23.3526 H   0  0  0  0  0  0  0  0  0  0  0  0
   10.4798   -3.1455   23.5694 C   0  0  0  0  0  0  0  0  0  0  0  0
    9.8590   -2.5111   22.5766 N   0  0  0  0  0  0  0  0  0  0  0  0
    8.6676   -1.9752   22.8749 C   0  0  0  0  0  0  0  0  0  0  0  0
    7.9592   -1.2789   21.8336 C   0  0  0  0  0  0  0  0  0  0  0  0
    7.3676   -0.6938   20.9602 C   0  0  0  0  0  0  0  0  0  0  0  0
    6.6664    0.0025   19.9134 C   0  0  0  0  0  0  0  0  0  0  0  0
    7.1803    0.0605   18.5980 C   0  0  0  0  0  0  0  0  0  0  0  0
    8.1273   -0.4319   18.3764 H   0  0  0  0  0  0  0  0  0  0  0  0
    6.5689    0.6794   17.5796 N   0  0  0  0  0  0  0  0  0  0  0  0
    5.4010    1.2918   17.8440 C   0  0  0  0  0  0  0  0  0  0  0  0
    4.9107    1.7748   17.0023 H   0  0  0  0  0  0  0  0  0  0  0  0
    4.8038    1.3117   19.1097 C   0  0  0  0  0  0  0  0  0  0  0  0
    3.8697    1.8466   19.2633 H   0  0  0  0  0  0  0  0  0  0  0  0
    5.4421    0.6515   20.1612 C   0  0  0  0  0  0  0  0  0  0  0  0
    5.0093    0.6294   21.1619 H   0  0  0  0  0  0  0  0  0  0  0  0
    8.0714   -2.0380   24.0662 N   0  0  0  0  0  0  0  0  0  0  0  0
    8.7014   -2.6786   25.0516 C   0  0  0  0  0  0  0  0  0  0  0  0
    8.0417   -2.7699   26.4469 C   0  0  0  0  0  0  0  0  0  0  0  0
    6.8556   -2.1718   26.5219 F   0  0  0  0  0  0  0  0  0  0  0  0
    8.8356   -2.2126   27.3802 F   0  0  0  0  0  0  0  0  0  0  0  0
    7.8747   -4.0561   26.8158 F   0  0  0  0  0  0  0  0  0  0  0  0
    9.9482   -3.2702   24.8495 C   0  0  0  0  0  0  0  0  0  0  0  0
   10.4780   -3.7962   25.6353 H   0  0  0  0  0  0  0  0  0  0  0  0
  1  2  1  0
  2  3  2  0
  3  4  1  0
  4  5  1  0
  5  6  3  0
  6  7  1  0
  7  8  2  0
  8  9  1  0
  8 10  1  0
 10 11  2  0
 11 12  1  0
 11 13  1  0
 13 14  1  0
 13 15  2  0
 15 16  1  0
  4 17  2  0
 17 18  1  0
 18 19  1  0
 19 20  1  0
 19 21  1  0
 19 22  1  0
 18 23  2  0
 23 24  1  0
 23  2  1  0
 15  7  1  0
M  END
>  <cnnaffinity>  (1) 
-5.06192

>  <filename>  (1) 
FC(F)(F)c1ccnc(C#Cc2cccnc2)n1

$$$$
