
     RDKit          3D

 27 28  0  0  0  0  0  0  0  0999 V2000
    4.9240    1.8127   16.9881 H   0  0  0  0  0  0  0  0  0  0  0  0
    5.3925    1.3032   17.8250 C   0  0  0  0  0  0  0  0  0  0  0  0
    6.5549    0.6841   17.5599 N   0  0  0  0  0  0  0  0  0  0  0  0
    7.1637    0.0513   18.5723 C   0  0  0  0  0  0  0  0  0  0  0  0
    8.1124   -0.4322   18.3474 H   0  0  0  0  0  0  0  0  0  0  0  0
    6.6481   -0.0228   19.8928 C   0  0  0  0  0  0  0  0  0  0  0  0
    7.2680   -0.7587   20.9152 N   0  0  0  0  0  0  0  0  0  0  0  0
    6.7212   -0.8721   21.7607 H   0  0  0  0  0  0  0  0  0  0  0  0
    8.6734   -0.8266   21.0866 C   0  0  0  0  0  0  0  0  0  0  0  0
    9.6835    0.1219   20.7447 C   0  0  0  0  0  0  0  0  0  0  0  0
    9.5672    1.0764   20.2458 H   0  0  0  0  0  0  0  0  0  0  0  0
   10.9005   -0.3008   21.0537 N   0  0  0  0  0  0  0  0  0  0  0  0
   10.6987   -1.5316   21.5834 N   0  0  0  0  0  0  0  0  0  0  0  0
   11.4640   -2.0992   21.9252 H   0  0  0  0  0  0  0  0  0  0  0  0
    9.4004   -1.8762   21.6313 C   0  0  0  0  0  0  0  0  0  0  0  0
    9.1251   -3.0871   22.1658 O   0  0  0  0  0  0  0  0  0  0  0  0
    7.7730   -3.5046   22.1377 C   0  0  0  0  0  0  0  0  0  0  0  0
    7.3486   -3.3990   21.1350 H   0  0  0  0  0  0  0  0  0  0  0  0
    7.1729   -2.9355   22.8523 H   0  0  0  0  0  0  0  0  0  0  0  0
    7.6976   -4.9635   22.5356 C   0  0  0  0  0  0  0  0  0  0  0  0
    6.4000   -5.3215   22.5038 F   0  0  0  0  0  0  0  0  0  0  0  0
    8.1635   -5.1860   23.7689 F   0  0  0  0  0  0  0  0  0  0  0  0
    8.3666   -5.7578   21.6921 F   0  0  0  0  0  0  0  0  0  0  0  0
    5.4379    0.6343   20.1459 C   0  0  0  0  0  0  0  0  0  0  0  0
    5.0276    0.6182   21.1571 H   0  0  0  0  0  0  0  0  0  0  0  0
    4.8047    1.3072   19.0981 C   0  0  0  0  0  0  0  0  0  0  0  0
    3.8734    1.8412   19.2539 H   0  0  0  0  0  0  0  0  0  0  0  0
  1  2  1  0
  2  3  2  0
  3  4  1  0
  4  5  1  0
  4  6  2  0
  6  7  1  0
  7  8  1  0
  7  9  1  0
  9 10  1  0
 10 11  1  0
 10 12  2  0
 12 13  1  0
 13 14  1  0
 13 15  1  0
 15 16  1  0
 16 17  1  0
 17 18  1  0
 17 19  1  0
 17 20  1  0
 20 21  1  0
 20 22  1  0
 20 23  1  0
  6 24  1  0
 24 25  1  0
 24 26  2  0
 26 27  1  0
 26  2  1  0
 15  9  2  0
M  END
>  <cnnaffinity>  (1) 
-5.30551

>  <filename>  (1) 
FC(F)(F)COc1[nH]ncc1Nc1cccnc1

$$$$
