
     RDKit          3D

 32 34  0  0  0  0  0  0  0  0999 V2000
    5.0794    1.7852   16.8849 H   0  0  0  0  0  0  0  0  0  0  0  0
    5.4981    1.2897   17.7556 C   0  0  0  0  0  0  0  0  0  0  0  0
    6.6499    0.6324   17.5567 N   0  0  0  0  0  0  0  0  0  0  0  0
    7.1858    0.0051   18.6048 C   0  0  0  0  0  0  0  0  0  0  0  0
    8.1138   -0.5364   18.4292 H   0  0  0  0  0  0  0  0  0  0  0  0
    6.6149    0.0141   19.8882 C   0  0  0  0  0  0  0  0  0  0  0  0
    7.3454   -0.6656   20.9610 C   0  0  0  0  0  0  0  0  0  0  0  0
    8.4983   -1.3641   20.7792 N   0  0  0  0  0  0  0  0  0  0  0  0
    8.8569   -1.7988   21.9515 N   0  0  0  0  0  0  0  0  0  0  0  0
    7.9576   -1.3503   22.8000 N   0  0  0  0  0  0  0  0  0  0  0  0
    7.8974   -1.7504   24.2010 C   0  0  0  0  0  0  0  0  0  0  0  0
    8.9216   -1.8993   24.5508 H   0  0  0  0  0  0  0  0  0  0  0  0
    7.4648   -0.8986   24.7339 H   0  0  0  0  0  0  0  0  0  0  0  0
    7.0372   -2.9807   24.3518 C   0  0  0  0  0  0  0  0  0  0  0  0
    5.6681   -2.8362   24.5873 C   0  0  0  0  0  0  0  0  0  0  0  0
    5.2693   -1.8423   24.7787 H   0  0  0  0  0  0  0  0  0  0  0  0
    4.8171   -3.9414   24.5538 C   0  0  0  0  0  0  0  0  0  0  0  0
    3.7588   -3.7855   24.7411 H   0  0  0  0  0  0  0  0  0  0  0  0
    5.3317   -5.2192   24.2705 C   0  0  0  0  0  0  0  0  0  0  0  0
    4.4174   -6.4215   24.1153 C   0  0  0  0  0  0  0  0  0  0  0  0
    4.9264   -7.5228   24.6997 F   0  0  0  0  0  0  0  0  0  0  0  0
    4.2390   -6.7307   22.8145 F   0  0  0  0  0  0  0  0  0  0  0  0
    3.1949   -6.2292   24.6442 F   0  0  0  0  0  0  0  0  0  0  0  0
    6.7148   -5.3702   24.0548 C   0  0  0  0  0  0  0  0  0  0  0  0
    7.1403   -6.3380   23.8074 H   0  0  0  0  0  0  0  0  0  0  0  0
    7.5556   -4.2580   24.1148 C   0  0  0  0  0  0  0  0  0  0  0  0
    8.6244   -4.3878   23.9745 H   0  0  0  0  0  0  0  0  0  0  0  0
    6.9851   -0.6616   22.2352 N   0  0  0  0  0  0  0  0  0  0  0  0
    5.3994    0.6943   20.0842 C   0  0  0  0  0  0  0  0  0  0  0  0
    4.9260    0.7188   21.0703 H   0  0  0  0  0  0  0  0  0  0  0  0
    4.8314    1.3400   18.9878 C   0  0  0  0  0  0  0  0  0  0  0  0
    3.8940    1.8834   19.0686 H   0  0  0  0  0  0  0  0  0  0  0  0
  1  2  1  0
  2  3  2  0
  3  4  1  0
  4  5  1  0
  4  6  2  0
  6  7  1  0
  7  8  1  0
  8  9  2  0
  9 10  1  0
 10 11  1  0
 11 12  1  0
 11 13  1  0
 11 14  1  0
 14 15  2  0
 15 16  1  0
 15 17  1  0
 17 18  1  0
 17 19  2  0
 19 20  1  0
 20 21  1  0
 20 22  1  0
 20 23  1  0
 19 24  1  0
 24 25  1  0
 24 26  2  0
 26 27  1  0
 10 28  1  0
  6 29  1  0
 29 30  1  0
 29 31  2  0
 31 32  1  0
 31  2  1  0
 28  7  2  0
 26 14  1  0
M  END
>  <cnnaffinity>  (1) 
-5.38117

>  <filename>  (1) 
FC(F)(F)c1ccc(Cn2nnc(-c3cccnc3)n2)cc1

$$$$
