
     RDKit          3D

 39 42  0  0  0  0  0  0  0  0999 V2000
   12.3257    0.3016   23.5509 F   0  0  0  0  0  0  0  0  0  0  0  0
   11.1660   -0.3717   23.4274 C   0  0  0  0  0  0  0  0  0  0  0  0
   10.2043    0.5397   23.2178 F   0  0  0  0  0  0  0  0  0  0  0  0
   10.9057   -0.9409   24.6174 F   0  0  0  0  0  0  0  0  0  0  0  0
   11.2695   -1.3755   22.2983 C   0  0  0  0  0  0  0  0  0  0  0  0
   10.1277   -2.3845   22.2159 C   0  0  0  0  0  0  0  0  0  0  0  0
    8.8308   -1.7841   21.9785 N   0  0  0  0  0  0  0  0  0  0  0  0
    8.5369   -1.3271   20.7395 N   0  0  0  0  0  0  0  0  0  0  0  0
    7.3847   -0.7119   20.9275 C   0  0  0  0  0  0  0  0  0  0  0  0
    6.6594   -0.0037   19.8915 C   0  0  0  0  0  0  0  0  0  0  0  0
    5.4447    0.6464   20.1601 C   0  0  0  0  0  0  0  0  0  0  0  0
    4.8155    1.2993   19.1061 C   0  0  0  0  0  0  0  0  0  0  0  0
    5.4179    1.2794   17.8418 C   0  0  0  0  0  0  0  0  0  0  0  0
    6.5783    0.6590   17.5815 N   0  0  0  0  0  0  0  0  0  0  0  0
    7.1865    0.0407   18.5959 C   0  0  0  0  0  0  0  0  0  0  0  0
    8.1382   -0.4381   18.3676 H   0  0  0  0  0  0  0  0  0  0  0  0
    4.9547    1.7855   16.9988 H   0  0  0  0  0  0  0  0  0  0  0  0
    3.8824    1.8337   19.2459 H   0  0  0  0  0  0  0  0  0  0  0  0
    5.0183    0.6376   21.1674 H   0  0  0  0  0  0  0  0  0  0  0  0
    6.9216   -0.7557   22.1963 N   0  0  0  0  0  0  0  0  0  0  0  0
    7.8445   -1.4550   22.8348 C   0  0  0  0  0  0  0  0  0  0  0  0
    7.8489   -1.8584   24.2361 C   0  0  0  0  0  0  0  0  0  0  0  0
    8.1101   -3.0671   24.8452 C   0  0  0  0  0  0  0  0  0  0  0  0
    7.8691   -2.9518   26.1962 N   0  0  0  0  0  0  0  0  0  0  0  0
    7.4764   -1.6824   26.4834 C   0  0  0  0  0  0  0  0  0  0  0  0
    7.1676   -1.2324   27.6986 N   0  0  0  0  0  0  0  0  0  0  0  0
    6.8242    0.0599   27.7345 C   0  0  0  0  0  0  0  0  0  0  0  0
    6.7613    0.9053   26.5996 C   0  0  0  0  0  0  0  0  0  0  0  0
    7.0719    0.3965   25.3426 C   0  0  0  0  0  0  0  0  0  0  0  0
    7.4477   -0.9537   25.2774 C   0  0  0  0  0  0  0  0  0  0  0  0
    7.0237    0.9752   24.4167 H   0  0  0  0  0  0  0  0  0  0  0  0
    6.4580    1.9349   26.7335 H   0  0  0  0  0  0  0  0  0  0  0  0
    6.5777    0.4602   28.7144 H   0  0  0  0  0  0  0  0  0  0  0  0
    7.9557   -3.6279   26.9325 H   0  0  0  0  0  0  0  0  0  0  0  0
    8.3879   -4.0269   24.4187 H   0  0  0  0  0  0  0  0  0  0  0  0
   10.0750   -2.9933   23.1255 H   0  0  0  0  0  0  0  0  0  0  0  0
   10.2598   -2.9897   21.3297 H   0  0  0  0  0  0  0  0  0  0  0  0
   11.3130   -0.8081   21.3686 H   0  0  0  0  0  0  0  0  0  0  0  0
   12.2124   -1.9145   22.4089 H   0  0  0  0  0  0  0  0  0  0  0  0
  1  2  1  0
  2  3  1  0
  2  4  1  0
  2  5  1  0
  5  6  1  0
  6  7  1  0
  7  8  1  0
  8  9  2  0
  9 10  1  0
 10 11  2  0
 11 12  1  0
 12 13  2  0
 13 14  1  0
 14 15  2  0
 15 16  1  0
 13 17  1  0
 12 18  1  0
 11 19  1  0
  9 20  1  0
 20 21  2  0
 21 22  1  0
 22 23  2  0
 23 24  1  0
 24 25  1  0
 25 26  2  0
 26 27  1  0
 27 28  2  0
 28 29  1  0
 29 30  2  0
 29 31  1  0
 28 32  1  0
 27 33  1  0
 24 34  1  0
 23 35  1  0
  6 36  1  0
  6 37  1  0
  5 38  1  0
  5 39  1  0
 21  7  1  0
 30 22  1  0
 15 10  1  0
 30 25  1  0
M  END
>  <cnnaffinity>  (1) 
-6.32835

>  <filename>  (1) 
FC(F)(F)CCn1nc(-c2cccnc2)nc1-c1c[nH]c2ncccc12

$$$$
