
     RDKit          3D

 38 40  0  0  0  0  0  0  0  0999 V2000
    6.8371   -3.5606   22.9634 H   0  0  0  0  0  0  0  0  0  0  0  0
    7.1736   -2.5602   22.7026 C   0  0  0  0  0  0  0  0  0  0  0  0
    8.0376   -1.9262   23.5106 C   0  0  0  0  0  0  0  0  0  0  0  0
    8.5203   -2.6114   24.7404 C   0  0  0  0  0  0  0  0  0  0  0  0
    9.8186   -3.1451   24.7416 C   0  0  0  0  0  0  0  0  0  0  0  0
   10.4612   -2.9424   23.8931 H   0  0  0  0  0  0  0  0  0  0  0  0
   10.2828   -3.9239   25.8013 C   0  0  0  0  0  0  0  0  0  0  0  0
   11.2477   -4.4198   25.7399 H   0  0  0  0  0  0  0  0  0  0  0  0
    9.5005   -4.0480   26.9494 C   0  0  0  0  0  0  0  0  0  0  0  0
    9.8874   -4.5637   27.8220 H   0  0  0  0  0  0  0  0  0  0  0  0
    8.2187   -3.4960   26.9885 C   0  0  0  0  0  0  0  0  0  0  0  0
    7.6048   -3.6325   27.8731 H   0  0  0  0  0  0  0  0  0  0  0  0
    7.7116   -2.7891   25.8872 C   0  0  0  0  0  0  0  0  0  0  0  0
    6.2880   -2.2448   25.9229 C   0  0  0  0  0  0  0  0  0  0  0  0
    5.4559   -3.0106   25.1825 F   0  0  0  0  0  0  0  0  0  0  0  0
    6.1919   -0.9921   25.4334 F   0  0  0  0  0  0  0  0  0  0  0  0
    5.7624   -2.2075   27.1629 F   0  0  0  0  0  0  0  0  0  0  0  0
    8.6114   -0.5607   23.2026 C   0  0  0  0  0  0  0  0  0  0  0  0
    8.7071    0.0139   24.1338 H   0  0  0  0  0  0  0  0  0  0  0  0
    9.6377   -0.6866   22.8241 H   0  0  0  0  0  0  0  0  0  0  0  0
    7.7573    0.1914   22.1683 C   0  0  0  0  0  0  0  0  0  0  0  0
    6.8290    0.5357   22.6489 H   0  0  0  0  0  0  0  0  0  0  0  0
    8.2781    1.0883   21.8104 H   0  0  0  0  0  0  0  0  0  0  0  0
    7.4073   -0.7209   20.9727 C   0  0  2  0  0  0  0  0  0  0  0  0
    8.3609   -1.0909   20.5654 H   0  0  0  0  0  0  0  0  0  0  0  0
    6.6658    0.0148   19.8640 C   0  0  0  0  0  0  0  0  0  0  0  0
    7.1611    0.0673   18.5453 C   0  0  0  0  0  0  0  0  0  0  0  0
    8.1081   -0.4160   18.3042 H   0  0  0  0  0  0  0  0  0  0  0  0
    6.5499    0.6878   17.5282 N   0  0  0  0  0  0  0  0  0  0  0  0
    5.3929    1.3130   17.7938 C   0  0  0  0  0  0  0  0  0  0  0  0
    4.9234    1.8290   16.9615 H   0  0  0  0  0  0  0  0  0  0  0  0
    4.7978    1.3233   19.0598 C   0  0  0  0  0  0  0  0  0  0  0  0
    3.8579    1.8513   19.2129 H   0  0  0  0  0  0  0  0  0  0  0  0
    5.4451    0.6665   20.1047 C   0  0  0  0  0  0  0  0  0  0  0  0
    5.0067    0.6685   21.1063 H   0  0  0  0  0  0  0  0  0  0  0  0
    6.6055   -1.9497   21.4570 C   0  0  0  0  0  0  0  0  0  0  0  0
    5.5631   -1.6529   21.6428 H   0  0  0  0  0  0  0  0  0  0  0  0
    6.5522   -2.7122   20.6698 H   0  0  0  0  0  0  0  0  0  0  0  0
  1  2  1  0
  2  3  2  0
  3  4  1  0
  4  5  2  0
  5  6  1  0
  5  7  1  0
  7  8  1  0
  7  9  2  0
  9 10  1  0
  9 11  1  0
 11 12  1  0
 11 13  2  0
 13 14  1  0
 14 15  1  0
 14 16  1  0
 14 17  1  0
  3 18  1  0
 18 19  1  0
 18 20  1  0
 18 21  1  0
 21 22  1  0
 21 23  1  0
 21 24  1  0
 24 25  1  6
 24 26  1  0
 26 27  2  0
 27 28  1  0
 27 29  1  0
 29 30  2  0
 30 31  1  0
 30 32  1  0
 32 33  1  0
 32 34  2  0
 34 35  1  0
 24 36  1  0
 36 37  1  0
 36 38  1  0
 36  2  1  0
 13  4  1  0
 34 26  1  0
M  END
>  <cnnaffinity>  (1) 
-5.30998

>  <filename>  (1) 
FC(F)(F)c1ccccc1C1=CC[C@@H](c2cccnc2)CC1

$$$$
