
     RDKit          3D

 38 41  0  0  0  0  0  0  0  0999 V2000
    4.9266    1.8061   16.9915 H   0  0  0  0  0  0  0  0  0  0  0  0
    5.4001    1.2988   17.8281 C   0  0  0  0  0  0  0  0  0  0  0  0
    6.5670    0.6856   17.5676 N   0  0  0  0  0  0  0  0  0  0  0  0
    7.1827    0.0598   18.5787 C   0  0  0  0  0  0  0  0  0  0  0  0
    8.1226   -0.4230   18.3244 H   0  0  0  0  0  0  0  0  0  0  0  0
    6.6835   -0.0235   19.9139 C   0  0  0  0  0  0  0  0  0  0  0  0
    7.3470   -0.7449   20.9075 N   0  0  0  0  0  0  0  0  0  0  0  0
    6.7201   -1.2916   22.1310 C   0  0  0  0  0  0  0  0  0  0  0  0
    6.0925   -2.1700   21.9198 H   0  0  0  0  0  0  0  0  0  0  0  0
    6.1233   -0.5392   22.6580 H   0  0  0  0  0  0  0  0  0  0  0  0
    7.9675   -1.6780   22.9836 C   0  0  2  0  0  0  0  0  0  0  0  0
    7.7489   -2.3976   23.7752 H   0  0  0  0  0  0  0  0  0  0  0  0
    8.6338   -0.4513   23.4793 N   0  0  0  0  0  0  0  0  0  0  0  0
    8.3588    0.1706   24.6694 C   0  0  0  0  0  0  0  0  0  0  0  0
    7.5293   -0.4499   25.5167 N   0  0  0  0  0  0  0  0  0  0  0  0
    7.2821    0.1248   26.6890 C   0  0  0  0  0  0  0  0  0  0  0  0
    6.6063   -0.4179   27.3458 H   0  0  0  0  0  0  0  0  0  0  0  0
    7.8333    1.3359   27.0875 C   0  0  0  0  0  0  0  0  0  0  0  0
    7.4953    1.8683   28.4363 C   0  0  0  0  0  0  0  0  0  0  0  0
    7.5259    3.2143   28.4437 F   0  0  0  0  0  0  0  0  0  0  0  0
    8.3334    1.4470   29.4003 F   0  0  0  0  0  0  0  0  0  0  0  0
    6.2601    1.4956   28.8278 F   0  0  0  0  0  0  0  0  0  0  0  0
    8.6937    2.0084   26.2013 C   0  0  0  0  0  0  0  0  0  0  0  0
    9.1368    2.9749   26.4569 H   0  0  0  0  0  0  0  0  0  0  0  0
    8.9602    1.4154   24.9828 C   0  0  0  0  0  0  0  0  0  0  0  0
    9.6149    1.8501   24.2418 H   0  0  0  0  0  0  0  0  0  0  0  0
    9.1792    0.2379   22.2829 C   0  0  0  0  0  0  0  0  0  0  0  0
   10.2733    0.3467   22.3505 H   0  0  0  0  0  0  0  0  0  0  0  0
    8.7330    1.2292   22.1218 H   0  0  0  0  0  0  0  0  0  0  0  0
    8.7999   -0.7544   21.1500 C   0  0  1  0  0  0  0  0  0  0  0  0
    9.3840   -0.6025   20.2464 H   0  0  0  0  0  0  0  0  0  0  0  0
    8.9504   -2.0956   21.8805 C   0  0  0  0  0  0  0  0  0  0  0  0
    9.9638   -2.3114   22.2386 H   0  0  0  0  0  0  0  0  0  0  0  0
    8.5881   -2.9254   21.2736 H   0  0  0  0  0  0  0  0  0  0  0  0
    5.4565    0.6324   20.1538 C   0  0  0  0  0  0  0  0  0  0  0  0
    5.0267    0.6208   21.1525 H   0  0  0  0  0  0  0  0  0  0  0  0
    4.8210    1.2977   19.1015 C   0  0  0  0  0  0  0  0  0  0  0  0
    3.8872    1.8251   19.2589 H   0  0  0  0  0  0  0  0  0  0  0  0
  1  2  1  0
  2  3  2  0
  3  4  1  0
  4  5  1  0
  4  6  2  0
  6  7  1  0
  7  8  1  0
  8  9  1  0
  8 10  1  0
  8 11  1  0
 11 12  1  1
 11 13  1  0
 13 14  1  0
 14 15  2  0
 15 16  1  0
 16 17  1  0
 16 18  2  0
 18 19  1  0
 19 20  1  0
 19 21  1  0
 19 22  1  0
 18 23  1  0
 23 24  1  0
 23 25  2  0
 25 26  1  0
 13 27  1  0
 27 28  1  0
 27 29  1  0
 27 30  1  0
 30 31  1  6
 30 32  1  0
 32 33  1  0
 32 34  1  0
  6 35  1  0
 35 36  1  0
 35 37  2  0
 37 38  1  0
 37  2  1  0
 30  7  1  0
 32 11  1  0
 25 14  1  0
M  END
>  <cnnaffinity>  (1) 
-5.31183

>  <filename>  (1) 
FC(F)(F)c1ccc(N2C[C@H]3C[C@@H]2CN3c2cccnc2)nc1

$$$$
