
     RDKit          3D

 38 41  0  0  0  0  0  0  0  0999 V2000
   11.5325   -0.8182   21.1334 F   0  0  0  0  0  0  0  0  0  0  0  0
   11.2925   -1.4795   22.2885 C   0  0  0  0  0  0  0  0  0  0  0  0
   12.3241   -2.3475   22.4812 F   0  0  0  0  0  0  0  0  0  0  0  0
   10.0282   -2.3158   22.2007 C   0  0  0  0  0  0  0  0  0  0  0  0
    8.8144   -1.5288   22.1003 N   0  0  0  0  0  0  0  0  0  0  0  0
    8.5428   -1.0079   20.8801 N   0  0  0  0  0  0  0  0  0  0  0  0
    7.3165   -0.5391   21.0188 C   0  0  0  0  0  0  0  0  0  0  0  0
    6.5815    0.0993   19.9239 C   0  0  0  0  0  0  0  0  0  0  0  0
    5.3377    0.7378   20.0889 C   0  0  0  0  0  0  0  0  0  0  0  0
    4.7668    1.3556   18.9790 C   0  0  0  0  0  0  0  0  0  0  0  0
    5.4353    1.2972   17.7496 C   0  0  0  0  0  0  0  0  0  0  0  0
    6.5939    0.6430   17.5708 N   0  0  0  0  0  0  0  0  0  0  0  0
    7.1462    0.0630   18.6387 C   0  0  0  0  0  0  0  0  0  0  0  0
    8.0765   -0.4720   18.4548 H   0  0  0  0  0  0  0  0  0  0  0  0
    5.0187    1.7920   16.8751 H   0  0  0  0  0  0  0  0  0  0  0  0
    3.8268    1.8983   19.0521 H   0  0  0  0  0  0  0  0  0  0  0  0
    4.8326    0.7346   21.0587 H   0  0  0  0  0  0  0  0  0  0  0  0
    6.7846   -0.7261   22.2517 N   0  0  0  0  0  0  0  0  0  0  0  0
    7.7414   -1.3427   22.9131 C   0  0  0  0  0  0  0  0  0  0  0  0
    7.7044   -1.7747   24.3541 C   0  0  0  0  0  0  0  0  0  0  0  0
    8.8012   -1.1332   25.2397 C   0  0  0  0  0  0  0  0  0  0  0  0
    9.0377   -2.2283   26.6745 S   0  0  0  0  0  0  0  0  0  0  0  0
    8.5399   -3.6252   25.7330 C   0  0  0  0  0  0  0  0  0  0  0  0
    8.7885   -4.9609   26.0579 C   0  0  0  0  0  0  0  0  0  0  0  0
    8.2270   -5.9542   25.2518 C   0  0  0  0  0  0  0  0  0  0  0  0
    7.4619   -5.6146   24.1250 C   0  0  0  0  0  0  0  0  0  0  0  0
    7.2706   -4.2733   23.7811 C   0  0  0  0  0  0  0  0  0  0  0  0
    7.8290   -3.2742   24.5826 C   0  0  0  0  0  0  0  0  0  0  0  0
    6.6842   -3.9881   22.9105 H   0  0  0  0  0  0  0  0  0  0  0  0
    7.0147   -6.3896   23.5103 H   0  0  0  0  0  0  0  0  0  0  0  0
    8.3916   -6.9896   25.5273 H   0  0  0  0  0  0  0  0  0  0  0  0
    9.4112   -5.2022   26.9153 H   0  0  0  0  0  0  0  0  0  0  0  0
    8.5230   -0.1417   25.5981 H   0  0  0  0  0  0  0  0  0  0  0  0
    9.7604   -1.0657   24.7133 H   0  0  0  0  0  0  0  0  0  0  0  0
    6.7167   -1.4634   24.7180 H   0  0  0  0  0  0  0  0  0  0  0  0
   10.0985   -2.8892   21.2776 H   0  0  0  0  0  0  0  0  0  0  0  0
    9.9848   -3.0105   23.0388 H   0  0  0  0  0  0  0  0  0  0  0  0
   11.2988   -0.7497   23.1070 H   0  0  0  0  0  0  0  0  0  0  0  0
  1  2  1  0
  2  3  1  0
  2  4  1  0
  4  5  1  0
  5  6  1  0
  6  7  2  0
  7  8  1  0
  8  9  2  0
  9 10  1  0
 10 11  2  0
 11 12  1  0
 12 13  2  0
 13 14  1  0
 11 15  1  0
 10 16  1  0
  9 17  1  0
  7 18  1  0
 18 19  2  0
 19 20  1  0
 20 21  1  0
 21 22  1  0
 22 23  1  0
 23 24  2  0
 24 25  1  0
 25 26  2  0
 26 27  1  0
 27 28  2  0
 27 29  1  0
 26 30  1  0
 25 31  1  0
 24 32  1  0
 21 33  1  0
 21 34  1  0
 20 35  1  0
  4 36  1  0
  4 37  1  0
  2 38  1  0
 19  5  1  0
 28 20  1  0
 13  8  1  0
 28 23  1  0
M  END
>  <cnnaffinity>  (1) 
-5.92232

>  <filename>  (1) 
FC(F)Cn1nc(-c2cccnc2)nc1C1CSc2ccccc21

$$$$
