
     RDKit          3D

 43 46  0  0  0  0  0  0  0  0999 V2000
   13.0991   -0.4564   22.3297 F   0  0  0  0  0  0  0  0  0  0  0  0
   12.1789   -1.1822   21.6574 C   0  0  0  0  0  0  0  0  0  0  0  0
   11.4599   -0.3312   20.9171 F   0  0  0  0  0  0  0  0  0  0  0  0
   12.8501   -1.9975   20.8237 F   0  0  0  0  0  0  0  0  0  0  0  0
   11.3426   -1.9869   22.6287 C   0  0  0  0  0  0  0  0  0  0  0  0
   10.0199   -2.5610   22.1119 C   0  0  0  0  0  0  0  0  0  0  0  0
    8.8782   -1.6470   22.0383 N   0  0  0  0  0  0  0  0  0  0  0  0
    8.5731   -1.1069   20.8332 N   0  0  0  0  0  0  0  0  0  0  0  0
    7.3779   -0.5776   21.0183 C   0  0  0  0  0  0  0  0  0  0  0  0
    6.6289    0.0774   19.9453 C   0  0  0  0  0  0  0  0  0  0  0  0
    5.3888    0.7131   20.1273 C   0  0  0  0  0  0  0  0  0  0  0  0
    4.8079    1.3342   19.0227 C   0  0  0  0  0  0  0  0  0  0  0  0
    5.4665    1.2762   17.7879 C   0  0  0  0  0  0  0  0  0  0  0  0
    6.6260    0.6328   17.5969 N   0  0  0  0  0  0  0  0  0  0  0  0
    7.1884    0.0504   18.6590 C   0  0  0  0  0  0  0  0  0  0  0  0
    8.1250   -0.4754   18.4829 H   0  0  0  0  0  0  0  0  0  0  0  0
    5.0398    1.7635   16.9140 H   0  0  0  0  0  0  0  0  0  0  0  0
    3.8680    1.8693   19.0997 H   0  0  0  0  0  0  0  0  0  0  0  0
    4.8883    0.7153   21.0999 H   0  0  0  0  0  0  0  0  0  0  0  0
    6.8917   -0.7461   22.2685 N   0  0  0  0  0  0  0  0  0  0  0  0
    7.8477   -1.4096   22.8878 C   0  0  0  0  0  0  0  0  0  0  0  0
    7.7733   -1.8665   24.3253 C   0  0  0  0  0  0  0  0  0  0  0  0
    8.8412   -1.2135   25.2431 C   0  0  0  0  0  0  0  0  0  0  0  0
    8.9108   -1.8606   26.6320 C   0  0  0  0  0  0  0  0  0  0  0  0
    9.2371   -3.3569   26.5180 C   0  0  0  0  0  0  0  0  0  0  0  0
    8.4056   -4.0432   25.4865 C   0  0  0  0  0  0  0  0  0  0  0  0
    8.1090   -5.3570   25.2596 C   0  0  0  0  0  0  0  0  0  0  0  0
    7.3418   -5.4951   24.1305 N   0  0  0  0  0  0  0  0  0  0  0  0
    7.1809   -4.2752   23.6819 C   0  0  0  0  0  0  0  0  0  0  0  0
    7.8359   -3.3440   24.4415 N   0  0  0  0  0  0  0  0  0  0  0  0
    6.6164   -3.9885   22.8030 H   0  0  0  0  0  0  0  0  0  0  0  0
    8.4142   -6.2088   25.8602 H   0  0  0  0  0  0  0  0  0  0  0  0
    9.1140   -3.8644   27.4780 H   0  0  0  0  0  0  0  0  0  0  0  0
   10.2833   -3.5165   26.2275 H   0  0  0  0  0  0  0  0  0  0  0  0
    7.9586   -1.7269   27.1604 H   0  0  0  0  0  0  0  0  0  0  0  0
    9.6797   -1.3570   27.2309 H   0  0  0  0  0  0  0  0  0  0  0  0
    9.8272   -1.3235   24.7866 H   0  0  0  0  0  0  0  0  0  0  0  0
    8.6389   -0.1395   25.3165 H   0  0  0  0  0  0  0  0  0  0  0  0
    6.7783   -1.5469   24.6564 H   0  0  0  0  0  0  0  0  0  0  0  0
    9.7378   -3.4100   22.7429 H   0  0  0  0  0  0  0  0  0  0  0  0
   10.1440   -2.8955   21.0849 H   0  0  0  0  0  0  0  0  0  0  0  0
   11.1739   -1.3463   23.4872 H   0  0  0  0  0  0  0  0  0  0  0  0
   11.9891   -2.8148   22.9482 H   0  0  0  0  0  0  0  0  0  0  0  0
  1  2  1  0
  2  3  1  0
  2  4  1  0
  2  5  1  0
  5  6  1  0
  6  7  1  0
  7  8  1  0
  8  9  2  0
  9 10  1  0
 10 11  2  0
 11 12  1  0
 12 13  2  0
 13 14  1  0
 14 15  2  0
 15 16  1  0
 13 17  1  0
 12 18  1  0
 11 19  1  0
  9 20  1  0
 20 21  2  0
 21 22  1  0
 22 23  1  0
 23 24  1  0
 24 25  1  0
 25 26  1  0
 26 27  2  0
 27 28  1  0
 28 29  2  0
 29 30  1  0
 29 31  1  0
 27 32  1  0
 25 33  1  0
 25 34  1  0
 24 35  1  0
 24 36  1  0
 23 37  1  0
 23 38  1  0
 22 39  1  0
  6 40  1  0
  6 41  1  0
  5 42  1  0
  5 43  1  0
 21  7  1  0
 30 22  1  0
 15 10  1  0
 30 26  1  0
M  END
>  <cnnaffinity>  (1) 
-6.62064

>  <filename>  (1) 
FC(F)(F)CCn1nc(-c2cccnc2)nc1C1CCCc2cncn21

$$$$
