
     RDKit          3D

 38 40  0  0  0  0  0  0  0  0999 V2000
    9.6693    2.8667   22.6874 H   0  0  0  0  0  0  0  0  0  0  0  0
    8.8434    2.1820   22.8819 C   0  0  0  0  0  0  0  0  0  0  0  0
    8.6706    1.2093   21.9888 N   0  0  0  0  0  0  0  0  0  0  0  0
    7.6422    0.3723   22.1938 C   0  0  0  0  0  0  0  0  0  0  0  0
    7.3986   -0.6830   21.0874 C   0  0  0  0  0  0  0  0  0  0  0  0
    6.6779    0.0124   19.8985 C   0  0  0  0  0  0  0  0  0  0  0  0
    7.1674    0.0547   18.5813 C   0  0  0  0  0  0  0  0  0  0  0  0
    8.1178   -0.4153   18.3289 H   0  0  0  0  0  0  0  0  0  0  0  0
    6.5513    0.6668   17.5603 N   0  0  0  0  0  0  0  0  0  0  0  0
    5.3941    1.2876   17.8204 C   0  0  0  0  0  0  0  0  0  0  0  0
    4.9278    1.7979   16.9807 H   0  0  0  0  0  0  0  0  0  0  0  0
    4.8031    1.3053   19.0888 C   0  0  0  0  0  0  0  0  0  0  0  0
    3.8711    1.8391   19.2385 H   0  0  0  0  0  0  0  0  0  0  0  0
    5.4512    0.6578   20.1384 C   0  0  0  0  0  0  0  0  0  0  0  0
    5.0340    0.6704   21.1507 H   0  0  0  0  0  0  0  0  0  0  0  0
    8.7643   -1.2980   20.6943 C   0  0  0  0  0  0  0  0  0  0  0  0
    8.5504   -1.9109   19.8279 H   0  0  0  0  0  0  0  0  0  0  0  0
    9.4554   -0.5064   20.3804 H   0  0  0  0  0  0  0  0  0  0  0  0
    9.3845   -2.1513   21.8154 C   0  0  0  0  0  0  0  0  0  0  0  0
   10.3326   -2.5750   21.4660 H   0  0  0  0  0  0  0  0  0  0  0  0
    9.6345   -1.4972   22.6688 H   0  0  0  0  0  0  0  0  0  0  0  0
    8.4391   -3.2794   22.2787 C   0  0  0  0  0  0  0  0  0  0  0  0
    8.8870   -3.8540   23.1042 H   0  0  0  0  0  0  0  0  0  0  0  0
    8.2994   -3.9982   21.4542 H   0  0  0  0  0  0  0  0  0  0  0  0
    7.0681   -2.7175   22.6833 C   0  0  0  0  0  0  0  0  0  0  0  0
    7.1626   -2.0958   23.5853 H   0  0  0  0  0  0  0  0  0  0  0  0
    6.3730   -3.5297   22.9385 H   0  0  0  0  0  0  0  0  0  0  0  0
    6.4826   -1.8588   21.5512 C   0  0  0  0  0  0  0  0  0  0  0  0
    5.5222   -1.4350   21.8304 H   0  0  0  0  0  0  0  0  0  0  0  0
    6.2901   -2.4887   20.6702 H   0  0  0  0  0  0  0  0  0  0  0  0
    6.8004    0.4344   23.2321 N   0  0  0  0  0  0  0  0  0  0  0  0
    6.9859    1.3967   24.1448 C   0  0  0  0  0  0  0  0  0  0  0  0
    6.0145    1.4762   25.3598 C   0  0  0  0  0  0  0  0  0  0  0  0
    5.3555    2.6548   25.3703 F   0  0  0  0  0  0  0  0  0  0  0  0
    5.0888    0.5125   25.3977 F   0  0  0  0  0  0  0  0  0  0  0  0
    6.7031    1.4107   26.5193 F   0  0  0  0  0  0  0  0  0  0  0  0
    8.0287    2.3167   23.9996 C   0  0  0  0  0  0  0  0  0  0  0  0
    8.2121    3.0963   24.7194 H   0  0  0  0  0  0  0  0  0  0  0  0
  1  2  1  0
  2  3  2  0
  3  4  1  0
  4  5  1  0
  5  6  1  0
  6  7  2  0
  7  8  1  0
  7  9  1  0
  9 10  2  0
 10 11  1  0
 10 12  1  0
 12 13  1  0
 12 14  2  0
 14 15  1  0
  5 16  1  0
 16 17  1  0
 16 18  1  0
 16 19  1  0
 19 20  1  0
 19 21  1  0
 19 22  1  0
 22 23  1  0
 22 24  1  0
 22 25  1  0
 25 26  1  0
 25 27  1  0
 25 28  1  0
 28 29  1  0
 28 30  1  0
  4 31  2  0
 31 32  1  0
 32 33  1  0
 33 34  1  0
 33 35  1  0
 33 36  1  0
 32 37  2  0
 37 38  1  0
 37  2  1  0
 28  5  1  0
 14  6  1  0
M  END
>  <cnnaffinity>  (1) 
-5.18424

>  <filename>  (1) 
FC(F)(F)c1ccnc(C2(c3cccnc3)CCCCC2)n1

$$$$
