
     RDKit          3D

 41 44  0  0  0  0  0  0  0  0999 V2000
    7.4423    6.1052   24.5431 F   0  0  0  0  0  0  0  0  0  0  0  0
    8.2173    5.0507   24.8472 C   0  0  0  0  0  0  0  0  0  0  0  0
    9.4892    5.4963   24.9493 F   0  0  0  0  0  0  0  0  0  0  0  0
    7.8445    4.6167   26.0673 F   0  0  0  0  0  0  0  0  0  0  0  0
    8.1078    3.9758   23.7954 C   0  0  0  0  0  0  0  0  0  0  0  0
    8.8886    2.6999   24.1536 C   0  0  0  0  0  0  0  0  0  0  0  0
    8.9395    1.7642   23.0323 N   0  0  0  0  0  0  0  0  0  0  0  0
    7.8361    1.0387   22.7421 N   0  0  0  0  0  0  0  0  0  0  0  0
    8.2056    0.3276   21.6969 C   0  0  0  0  0  0  0  0  0  0  0  0
    7.2995   -0.6463   20.9979 C   0  0  0  0  0  0  0  0  0  0  0  0
    6.5411   -0.0310   19.8290 C   0  0  0  0  0  0  0  0  0  0  0  0
    5.3303    0.6410   20.0369 C   0  0  0  0  0  0  0  0  0  0  0  0
    4.7411    1.3357   18.9781 C   0  0  0  0  0  0  0  0  0  0  0  0
    5.3845    1.3146   17.7386 C   0  0  0  0  0  0  0  0  0  0  0  0
    6.5202    0.6398   17.5013 N   0  0  0  0  0  0  0  0  0  0  0  0
    7.0751   -0.0143   18.5283 C   0  0  0  0  0  0  0  0  0  0  0  0
    8.0031   -0.5496   18.3091 H   0  0  0  0  0  0  0  0  0  0  0  0
    4.9728    1.8618   16.8936 H   0  0  0  0  0  0  0  0  0  0  0  0
    3.8255    1.9063   19.1048 H   0  0  0  0  0  0  0  0  0  0  0  0
    4.8739    0.6297   21.0269 H   0  0  0  0  0  0  0  0  0  0  0  0
    7.9381   -1.4636   20.6488 H   0  0  0  0  0  0  0  0  0  0  0  0
    6.6059   -1.0585   21.7407 H   0  0  0  0  0  0  0  0  0  0  0  0
    9.4816    0.5435   21.2894 N   0  0  0  0  0  0  0  0  0  0  0  0
    9.9351    1.4319   22.1654 C   0  0  0  0  0  0  0  0  0  0  0  0
   11.2994    2.0056   22.3084 C   0  0  0  0  0  0  0  0  0  0  0  0
   11.5626    3.3936   22.4200 C   0  0  0  0  0  0  0  0  0  0  0  0
   12.8519    3.8699   22.7007 C   0  0  0  0  0  0  0  0  0  0  0  0
   13.9364    3.0950   22.8399 N   0  0  0  0  0  0  0  0  0  0  0  0
   13.6771    1.8025   22.6805 C   0  0  0  0  0  0  0  0  0  0  0  0
   12.4365    1.1786   22.4075 C   0  0  0  0  0  0  0  0  0  0  0  0
   12.6079   -0.1927   22.2924 N   0  0  0  0  0  0  0  0  0  0  0  0
   13.8821   -0.3737   22.4564 C   0  0  0  0  0  0  0  0  0  0  0  0
   14.5820    0.7736   22.7157 N   0  0  0  0  0  0  0  0  0  0  0  0
   15.5747    0.8986   22.7012 H   0  0  0  0  0  0  0  0  0  0  0  0
   14.3735   -1.3382   22.4134 H   0  0  0  0  0  0  0  0  0  0  0  0
   12.9951    4.9373   22.8491 H   0  0  0  0  0  0  0  0  0  0  0  0
   10.7828    4.1357   22.3103 H   0  0  0  0  0  0  0  0  0  0  0  0
    8.4038    2.1925   24.9937 H   0  0  0  0  0  0  0  0  0  0  0  0
    9.9123    2.9369   24.4569 H   0  0  0  0  0  0  0  0  0  0  0  0
    7.0486    3.7514   23.6480 H   0  0  0  0  0  0  0  0  0  0  0  0
    8.4846    4.4090   22.8639 H   0  0  0  0  0  0  0  0  0  0  0  0
  1  2  1  0
  2  3  1  0
  2  4  1  0
  2  5  1  0
  5  6  1  0
  6  7  1  0
  7  8  1  0
  8  9  2  0
  9 10  1  0
 10 11  1  0
 11 12  2  0
 12 13  1  0
 13 14  2  0
 14 15  1  0
 15 16  2  0
 16 17  1  0
 14 18  1  0
 13 19  1  0
 12 20  1  0
 10 21  1  0
 10 22  1  0
  9 23  1  0
 23 24  2  0
 24 25  1  0
 25 26  2  0
 26 27  1  0
 27 28  2  0
 28 29  1  0
 29 30  2  0
 30 31  1  0
 31 32  2  0
 32 33  1  0
 33 34  1  0
 32 35  1  0
 27 36  1  0
 26 37  1  0
  6 38  1  0
  6 39  1  0
  5 40  1  0
  5 41  1  0
 24  7  1  0
 30 25  1  0
 16 11  1  0
 33 29  1  0
M  END
>  <cnnaffinity>  (1) 
-6.71677

>  <filename>  (1) 
FC(F)(F)CCn1nc(Cc2cccnc2)nc1-c1ccnc2[nH]cnc12

$$$$
