
     RDKit          3D

 29 30  0  0  0  0  0  0  0  0999 V2000
    8.6329    1.1119   21.5581 H   0  0  0  0  0  0  0  0  0  0  0  0
    7.9979    0.3314   21.9343 C   0  0  0  0  0  0  0  0  0  0  0  0
    7.4695    0.3287   23.1773 C   0  0  0  0  0  0  0  0  0  0  0  0
    7.5349    1.2574   24.1458 O   0  0  0  0  0  0  0  0  0  0  0  0
    8.3355    2.4124   23.9491 C   0  0  0  0  0  0  0  0  0  0  0  0
    8.5735    2.7839   24.9472 H   0  0  0  0  0  0  0  0  0  0  0  0
    9.2625    2.1846   23.4128 H   0  0  0  0  0  0  0  0  0  0  0  0
    7.6539    3.5501   23.1837 C   0  0  0  0  0  0  0  0  0  0  0  0
    7.3201    3.1943   21.9327 F   0  0  0  0  0  0  0  0  0  0  0  0
    6.5489    3.9983   23.7893 F   0  0  0  0  0  0  0  0  0  0  0  0
    8.5281    4.5703   23.1008 F   0  0  0  0  0  0  0  0  0  0  0  0
    6.7305   -0.7389   23.6171 N   0  0  0  0  0  0  0  0  0  0  0  0
    6.4381   -0.7760   24.5776 H   0  0  0  0  0  0  0  0  0  0  0  0
    6.4760   -1.8516   22.8849 C   0  0  0  0  0  0  0  0  0  0  0  0
    5.7415   -3.1836   23.5362 S   0  0  0  0  0  0  0  0  0  0  0  0
    6.8522   -1.7949   21.5938 N   0  0  0  0  0  0  0  0  0  0  0  0
    6.4670   -2.5398   21.0362 H   0  0  0  0  0  0  0  0  0  0  0  0
    7.5403   -0.6817   20.9484 C   0  0  1  0  0  0  0  0  0  0  0  0
    8.4163   -1.1081   20.4204 H   0  0  0  0  0  0  0  0  0  0  0  0
    6.6692   -0.0380   19.8559 C   0  0  0  0  0  0  0  0  0  0  0  0
    7.1640    0.0262   18.5478 C   0  0  0  0  0  0  0  0  0  0  0  0
    8.1076   -0.4627   18.3093 H   0  0  0  0  0  0  0  0  0  0  0  0
    6.5659    0.6656   17.5346 N   0  0  0  0  0  0  0  0  0  0  0  0
    5.4130    1.2894   17.8145 C   0  0  0  0  0  0  0  0  0  0  0  0
    4.9439    1.8152   16.9833 H   0  0  0  0  0  0  0  0  0  0  0  0
    4.8113    1.2742   19.0801 C   0  0  0  0  0  0  0  0  0  0  0  0
    3.8807    1.8108   19.2343 H   0  0  0  0  0  0  0  0  0  0  0  0
    5.4470    0.5929   20.1245 C   0  0  0  0  0  0  0  0  0  0  0  0
    5.0012    0.5753   21.1251 H   0  0  0  0  0  0  0  0  0  0  0  0
  1  2  1  0
  2  3  2  0
  3  4  1  0
  4  5  1  0
  5  6  1  0
  5  7  1  0
  5  8  1  0
  8  9  1  0
  8 10  1  0
  8 11  1  0
  3 12  1  0
 12 13  1  0
 12 14  1  0
 14 15  2  0
 14 16  1  0
 16 17  1  0
 16 18  1  0
 18 19  1  6
 18 20  1  0
 20 21  2  0
 21 22  1  0
 21 23  1  0
 23 24  2  0
 24 25  1  0
 24 26  1  0
 26 27  1  0
 26 28  2  0
 28 29  1  0
 18  2  1  0
 28 20  1  0
M  END
>  <cnnaffinity>  (1) 
-4.77968

>  <filename>  (1) 
FC(F)(F)COC1=C[C@H](c2cccnc2)NC(=S)N1

$$$$
