
     RDKit          3D

 31 33  0  0  0  0  0  0  0  0999 V2000
   11.4590    1.5314   21.2527 H   0  0  0  0  0  0  0  0  0  0  0  0
   10.4513    1.4595   21.6642 C   0  0  0  0  0  0  0  0  0  0  0  0
    9.6671    0.5265   21.1218 N   0  0  0  0  0  0  0  0  0  0  0  0
    8.4333    0.4008   21.6322 C   0  0  0  0  0  0  0  0  0  0  0  0
    7.4407   -0.6603   21.0088 C   0  0  0  0  0  0  0  0  0  0  0  0
    6.6303    0.0000   19.8985 C   0  0  0  0  0  0  0  0  0  0  0  0
    7.1489    0.0399   18.5979 C   0  0  0  0  0  0  0  0  0  0  0  0
    8.1037   -0.4389   18.3795 H   0  0  0  0  0  0  0  0  0  0  0  0
    6.5492    0.6602   17.5760 N   0  0  0  0  0  0  0  0  0  0  0  0
    5.3921    1.2911   17.8254 C   0  0  0  0  0  0  0  0  0  0  0  0
    4.9369    1.8018   16.9764 H   0  0  0  0  0  0  0  0  0  0  0  0
    4.7928    1.3171   19.0891 C   0  0  0  0  0  0  0  0  0  0  0  0
    3.8623    1.8554   19.2247 H   0  0  0  0  0  0  0  0  0  0  0  0
    5.4243    0.6657   20.1470 C   0  0  0  0  0  0  0  0  0  0  0  0
    5.0069    0.6605   21.1551 H   0  0  0  0  0  0  0  0  0  0  0  0
    6.6034   -1.1409   22.0414 O   0  0  0  0  0  0  0  0  0  0  0  0
    6.4124   -2.5276   21.8682 C   0  0  0  0  0  0  0  0  0  0  0  0
    6.2497   -2.9949   22.8439 H   0  0  0  0  0  0  0  0  0  0  0  0
    5.5413   -2.7185   21.2303 H   0  0  0  0  0  0  0  0  0  0  0  0
    7.6883   -2.9683   21.1827 C   0  0  0  0  0  0  0  0  0  0  0  0
    7.4741   -3.7998   20.5044 H   0  0  0  0  0  0  0  0  0  0  0  0
    8.4956   -3.2593   21.8630 H   0  0  0  0  0  0  0  0  0  0  0  0
    8.0807   -1.8051   20.4575 O   0  0  0  0  0  0  0  0  0  0  0  0
    7.9227    1.1851   22.5929 N   0  0  0  0  0  0  0  0  0  0  0  0
    8.7058    2.1242   23.1358 C   0  0  0  0  0  0  0  0  0  0  0  0
    8.1282    3.0347   24.2749 C   0  0  0  0  0  0  0  0  0  0  0  0
    8.1432    4.3338   23.9044 F   0  0  0  0  0  0  0  0  0  0  0  0
    8.8892    2.9470   25.3890 F   0  0  0  0  0  0  0  0  0  0  0  0
    6.8760    2.7423   24.6309 F   0  0  0  0  0  0  0  0  0  0  0  0
   10.0225    2.2973   22.6935 C   0  0  0  0  0  0  0  0  0  0  0  0
   10.6721    3.0536   23.1119 H   0  0  0  0  0  0  0  0  0  0  0  0
  1  2  1  0
  2  3  2  0
  3  4  1  0
  4  5  1  0
  5  6  1  0
  6  7  2  0
  7  8  1  0
  7  9  1  0
  9 10  2  0
 10 11  1  0
 10 12  1  0
 12 13  1  0
 12 14  2  0
 14 15  1  0
  5 16  1  0
 16 17  1  0
 17 18  1  0
 17 19  1  0
 17 20  1  0
 20 21  1  0
 20 22  1  0
 20 23  1  0
  4 24  2  0
 24 25  1  0
 25 26  1  0
 26 27  1  0
 26 28  1  0
 26 29  1  0
 25 30  2  0
 30 31  1  0
 30  2  1  0
 23  5  1  0
 14  6  1  0
M  END
>  <cnnaffinity>  (1) 
-4.54875

>  <filename>  (1) 
FC(F)(F)c1ccnc(C2(c3cccnc3)OCCO2)n1

$$$$
