
     RDKit          3D

 42 45  0  0  0  0  0  0  0  0999 V2000
   12.2498   -0.3238   22.7000 F   0  0  0  0  0  0  0  0  0  0  0  0
   12.2631    0.9783   23.0012 C   0  0  0  0  0  0  0  0  0  0  0  0
   11.8331    1.1199   24.2684 F   0  0  0  0  0  0  0  0  0  0  0  0
   13.5415    1.3980   22.9502 F   0  0  0  0  0  0  0  0  0  0  0  0
   11.4401    1.8421   22.0510 C   0  0  0  0  0  0  0  0  0  0  0  0
   10.0211    1.5231   22.0500 N   0  0  0  0  0  0  0  0  0  0  0  0
    9.5916    0.5175   21.2456 N   0  0  0  0  0  0  0  0  0  0  0  0
    8.3729    0.2785   21.6901 C   0  0  0  0  0  0  0  0  0  0  0  0
    7.4429   -0.6762   21.0047 C   0  0  0  0  0  0  0  0  0  0  0  0
    6.6482   -0.0207   19.8760 C   0  0  0  0  0  0  0  0  0  0  0  0
    5.4397    0.6408   20.1312 C   0  0  0  0  0  0  0  0  0  0  0  0
    4.7959    1.3110   19.0865 C   0  0  0  0  0  0  0  0  0  0  0  0
    5.3855    1.3023   17.8195 C   0  0  0  0  0  0  0  0  0  0  0  0
    6.5437    0.6805   17.5530 N   0  0  0  0  0  0  0  0  0  0  0  0
    7.1506    0.0485   18.5648 C   0  0  0  0  0  0  0  0  0  0  0  0
    8.1070   -0.4194   18.3299 H   0  0  0  0  0  0  0  0  0  0  0  0
    4.9169    1.8125   16.9782 H   0  0  0  0  0  0  0  0  0  0  0  0
    3.8687    1.8514   19.2389 H   0  0  0  0  0  0  0  0  0  0  0  0
    5.0250    0.6410   21.1412 H   0  0  0  0  0  0  0  0  0  0  0  0
    6.7709   -1.0529   21.7813 H   0  0  0  0  0  0  0  0  0  0  0  0
    8.0389   -1.5180   20.6360 H   0  0  0  0  0  0  0  0  0  0  0  0
    8.0102    1.0016   22.7807 N   0  0  0  0  0  0  0  0  0  0  0  0
    9.0435    1.7979   22.9593 C   0  0  0  0  0  0  0  0  0  0  0  0
    9.1608    2.8336   23.9734 C   0  0  0  0  0  0  0  0  0  0  0  0
    8.7883    2.5160   25.2865 C   0  0  0  0  0  0  0  0  0  0  0  0
    8.8513    3.3868   26.3000 N   0  0  0  0  0  0  0  0  0  0  0  0
    9.2717    4.6232   26.0060 C   0  0  0  0  0  0  0  0  0  0  0  0
    9.3905    5.7419   27.0047 C   0  0  0  0  0  0  0  0  0  0  0  0
    9.9191    6.9526   26.1790 C   0  0  0  0  0  0  0  0  0  0  0  0
   10.0677    6.4827   24.7051 C   0  0  0  0  0  0  0  0  0  0  0  0
    9.6541    5.0424   24.7221 C   0  0  0  0  0  0  0  0  0  0  0  0
    9.5949    4.1378   23.6801 C   0  0  0  0  0  0  0  0  0  0  0  0
    9.8531    4.4247   22.6550 H   0  0  0  0  0  0  0  0  0  0  0  0
    9.4327    7.0534   24.0164 H   0  0  0  0  0  0  0  0  0  0  0  0
   11.0925    6.5898   24.3279 H   0  0  0  0  0  0  0  0  0  0  0  0
    9.2359    7.8031   26.2516 H   0  0  0  0  0  0  0  0  0  0  0  0
   10.8840    7.2869   26.5725 H   0  0  0  0  0  0  0  0  0  0  0  0
   10.0883    5.4829   27.8037 H   0  0  0  0  0  0  0  0  0  0  0  0
    8.4221    5.9257   27.4873 H   0  0  0  0  0  0  0  0  0  0  0  0
    8.4371    1.5089   25.5248 H   0  0  0  0  0  0  0  0  0  0  0  0
   11.6043    2.8765   22.3590 H   0  0  0  0  0  0  0  0  0  0  0  0
   11.8054    1.7058   21.0339 H   0  0  0  0  0  0  0  0  0  0  0  0
  1  2  1  0
  2  3  1  0
  2  4  1  0
  2  5  1  0
  5  6  1  0
  6  7  1  0
  7  8  2  0
  8  9  1  0
  9 10  1  0
 10 11  2  0
 11 12  1  0
 12 13  2  0
 13 14  1  0
 14 15  2  0
 15 16  1  0
 13 17  1  0
 12 18  1  0
 11 19  1  0
  9 20  1  0
  9 21  1  0
  8 22  1  0
 22 23  2  0
 23 24  1  0
 24 25  2  0
 25 26  1  0
 26 27  2  0
 27 28  1  0
 28 29  1  0
 29 30  1  0
 30 31  1  0
 31 32  2  0
 32 33  1  0
 30 34  1  0
 30 35  1  0
 29 36  1  0
 29 37  1  0
 28 38  1  0
 28 39  1  0
 25 40  1  0
  5 41  1  0
  5 42  1  0
 23  6  1  0
 32 24  1  0
 15 10  1  0
 31 27  1  0
M  END
>  <cnnaffinity>  (1) 
-6.08224

>  <filename>  (1) 
FC(F)(F)Cn1nc(Cc2cccnc2)nc1-c1cnc2c(c1)CCC2

$$$$
