
     RDKit          3D

 36 38  0  0  0  0  0  0  0  0999 V2000
    8.9955    0.0672   24.5146 F   0  0  0  0  0  0  0  0  0  0  0  0
    7.7626   -0.4317   24.7959 C   0  0  0  0  0  0  0  0  0  0  0  0
    7.7321   -0.8147   26.0965 F   0  0  0  0  0  0  0  0  0  0  0  0
    7.4753   -1.6509   23.9259 C   0  0  0  0  0  0  0  0  0  0  0  0
    7.3717   -1.2930   22.5004 N   0  0  0  0  0  0  0  0  0  0  0  0
    6.3099   -0.6447   21.9648 N   0  0  0  0  0  0  0  0  0  0  0  0
    6.6245   -0.5550   20.6947 C   0  0  0  0  0  0  0  0  0  0  0  0
    5.9287    0.1677   19.6524 C   0  0  0  0  0  0  0  0  0  0  0  0
    4.7794    0.9527   19.8247 C   0  0  0  0  0  0  0  0  0  0  0  0
    4.3740    1.7066   18.7222 C   0  0  0  0  0  0  0  0  0  0  0  0
    5.0881    1.6426   17.5197 C   0  0  0  0  0  0  0  0  0  0  0  0
    6.1548    0.8480   17.3555 N   0  0  0  0  0  0  0  0  0  0  0  0
    6.5611    0.1392   18.4108 C   0  0  0  0  0  0  0  0  0  0  0  0
    7.4609   -0.4592   18.3030 H   0  0  0  0  0  0  0  0  0  0  0  0
    4.7940    2.2752   16.6893 H   0  0  0  0  0  0  0  0  0  0  0  0
    3.5286    2.3813   18.7835 H   0  0  0  0  0  0  0  0  0  0  0  0
    4.2457    1.0229   20.7747 H   0  0  0  0  0  0  0  0  0  0  0  0
    7.8394   -1.1271   20.3651 N   0  0  0  0  0  0  0  0  0  0  0  0
    8.3068   -1.5282   21.5023 C   0  0  0  0  0  0  0  0  0  0  0  0
    9.7295   -1.9761   21.6356 C   0  0  0  0  0  0  0  0  0  0  0  0
   10.6067   -0.7402   21.7001 C   0  0  0  0  0  0  0  0  0  0  0  0
   11.8392   -0.8114   22.3499 C   0  0  0  0  0  0  0  0  0  0  0  0
   12.6152    0.3333   22.5575 C   0  0  0  0  0  0  0  0  0  0  0  0
   14.2217    0.2463   23.5767 Br  0  0  0  0  0  0  0  0  0  0  0  0
   12.2019    1.5534   22.0233 C   0  0  0  0  0  0  0  0  0  0  0  0
   11.0176    1.6315   21.2903 C   0  0  0  0  0  0  0  0  0  0  0  0
   10.2118    0.4948   21.1421 C   0  0  0  0  0  0  0  0  0  0  0  0
    9.2695    0.5863   20.6047 H   0  0  0  0  0  0  0  0  0  0  0  0
   10.7318    2.5840   20.8528 H   0  0  0  0  0  0  0  0  0  0  0  0
   12.8220    2.4355   22.1584 H   0  0  0  0  0  0  0  0  0  0  0  0
   12.1942   -1.7721   22.6923 H   0  0  0  0  0  0  0  0  0  0  0  0
    9.8395   -2.5928   22.5378 H   0  0  0  0  0  0  0  0  0  0  0  0
   10.0127   -2.5598   20.7554 H   0  0  0  0  0  0  0  0  0  0  0  0
    8.2712   -2.3876   24.0764 H   0  0  0  0  0  0  0  0  0  0  0  0
    6.5302   -2.1017   24.2469 H   0  0  0  0  0  0  0  0  0  0  0  0
    7.0048    0.3400   24.6371 H   0  0  0  0  0  0  0  0  0  0  0  0
  1  2  1  0
  2  3  1  0
  2  4  1  0
  4  5  1  0
  5  6  1  0
  6  7  2  0
  7  8  1  0
  8  9  2  0
  9 10  1  0
 10 11  2  0
 11 12  1  0
 12 13  2  0
 13 14  1  0
 11 15  1  0
 10 16  1  0
  9 17  1  0
  7 18  1  0
 18 19  2  0
 19 20  1  0
 20 21  1  0
 21 22  2  0
 22 23  1  0
 23 24  1  0
 23 25  2  0
 25 26  1  0
 26 27  2  0
 27 28  1  0
 26 29  1  0
 25 30  1  0
 22 31  1  0
 20 32  1  0
 20 33  1  0
  4 34  1  0
  4 35  1  0
  2 36  1  0
 19  5  1  0
 27 21  1  0
 13  8  1  0
M  END
>  <cnnaffinity>  (1) 
-5.93125

>  <filename>  (1) 
FC(F)Cn1nc(-c2cccnc2)nc1Cc1cccc(Br)c1

$$$$
