
     RDKit          3D

 24 25  0  0  0  0  0  0  0  0999 V2000
    4.9150    1.7803   16.9953 H   0  0  0  0  0  0  0  0  0  0  0  0
    5.4007    1.2944   17.8362 C   0  0  0  0  0  0  0  0  0  0  0  0
    6.5643    0.6762   17.5730 N   0  0  0  0  0  0  0  0  0  0  0  0
    7.1710    0.0709   18.5973 C   0  0  0  0  0  0  0  0  0  0  0  0
    8.1139   -0.4285   18.3736 H   0  0  0  0  0  0  0  0  0  0  0  0
    6.6560    0.0118   19.9015 C   0  0  0  0  0  0  0  0  0  0  0  0
    7.3762   -0.7006   20.9640 C   0  0  0  0  0  0  0  0  0  0  0  0
    8.7567   -0.5665   21.1217 C   0  0  0  0  0  0  0  0  0  0  0  0
    9.3234    0.0839   20.4653 H   0  0  0  0  0  0  0  0  0  0  0  0
    9.3709   -1.2573   22.1578 C   0  0  0  0  0  0  0  0  0  0  0  0
   10.4403   -1.1588   22.2991 H   0  0  0  0  0  0  0  0  0  0  0  0
    8.7251   -2.0725   23.0061 N   0  0  0  0  0  0  0  0  0  0  0  0
    7.4023   -2.1741   22.8589 C   0  0  0  0  0  0  0  0  0  0  0  0
    6.5391   -3.2190   23.9852 S   0  0  0  0  0  0  0  0  0  0  0  0
    6.7326   -4.7637   23.0007 C   0  0  0  0  0  0  0  0  0  0  0  0
    6.1468   -5.7743   23.6494 F   0  0  0  0  0  0  0  0  0  0  0  0
    6.1421   -4.6445   21.8051 F   0  0  0  0  0  0  0  0  0  0  0  0
    8.0109   -5.0656   22.8140 F   0  0  0  0  0  0  0  0  0  0  0  0
    6.6870   -1.5237   21.8552 C   0  0  0  0  0  0  0  0  0  0  0  0
    5.6239   -1.6751   21.7478 H   0  0  0  0  0  0  0  0  0  0  0  0
    5.4318    0.6503   20.1526 C   0  0  0  0  0  0  0  0  0  0  0  0
    5.0129    0.6328   21.1621 H   0  0  0  0  0  0  0  0  0  0  0  0
    4.8045    1.3152   19.1039 C   0  0  0  0  0  0  0  0  0  0  0  0
    3.8703    1.8463   19.2585 H   0  0  0  0  0  0  0  0  0  0  0  0
  1  2  1  0
  2  3  2  0
  3  4  1  0
  4  5  1  0
  4  6  2  0
  6  7  1  0
  7  8  2  0
  8  9  1  0
  8 10  1  0
 10 11  1  0
 10 12  2  0
 12 13  1  0
 13 14  1  0
 14 15  1  0
 15 16  1  0
 15 17  1  0
 15 18  1  0
 13 19  2  0
 19 20  1  0
  6 21  1  0
 21 22  1  0
 21 23  2  0
 23 24  1  0
 23  2  1  0
 19  7  1  0
M  END
>  <cnnaffinity>  (1) 
-5.22156

>  <filename>  (1) 
FC(F)(F)Sc1cc(-c2cccnc2)ccn1

$$$$
