
     RDKit          3D

 33 35  0  0  0  0  0  0  0  0999 V2000
    5.2617   -2.3655   20.9984 H   0  0  0  0  0  0  0  0  0  0  0  0
    5.9168   -2.4402   21.8588 C   0  0  0  0  0  0  0  0  0  0  0  0
    7.0723   -1.7474   21.9183 C   0  0  0  0  0  0  0  0  0  0  0  0
    7.5610   -0.7083   20.9624 C   0  0  0  0  0  0  0  0  0  0  0  0
    6.7172   -0.0451   19.9372 C   0  0  0  0  0  0  0  0  0  0  0  0
    7.2463    0.0340   18.6429 C   0  0  0  0  0  0  0  0  0  0  0  0
    8.2075   -0.4239   18.4241 H   0  0  0  0  0  0  0  0  0  0  0  0
    6.6338    0.6371   17.6201 N   0  0  0  0  0  0  0  0  0  0  0  0
    5.4599    1.2353   17.8732 C   0  0  0  0  0  0  0  0  0  0  0  0
    4.9968    1.7448   17.0286 H   0  0  0  0  0  0  0  0  0  0  0  0
    4.8459    1.2354   19.1306 C   0  0  0  0  0  0  0  0  0  0  0  0
    3.9106    1.7694   19.2673 H   0  0  0  0  0  0  0  0  0  0  0  0
    5.4774    0.5666   20.1851 C   0  0  0  0  0  0  0  0  0  0  0  0
    5.0265    0.5377   21.1786 H   0  0  0  0  0  0  0  0  0  0  0  0
    8.8024   -0.4275   21.0999 N   0  0  0  0  0  0  0  0  0  0  0  0
    9.3544   -1.1785   22.2305 C   0  0  0  0  0  0  0  0  0  0  0  0
   10.1095   -1.8571   21.8200 H   0  0  0  0  0  0  0  0  0  0  0  0
    9.8536   -0.4730   22.8997 H   0  0  0  0  0  0  0  0  0  0  0  0
    8.1930   -1.9352   22.9169 C   0  0  0  0  0  0  0  0  0  0  0  0
    7.9265   -1.4851   23.8780 H   0  0  0  0  0  0  0  0  0  0  0  0
    8.4078   -2.9872   23.1114 H   0  0  0  0  0  0  0  0  0  0  0  0
    5.3460   -3.3475   22.8741 C   0  0  0  0  0  0  0  0  0  0  0  0
    4.1792   -3.9223   22.5314 N   0  0  0  0  0  0  0  0  0  0  0  0
    3.5660   -4.6336   23.4727 C   0  0  0  0  0  0  0  0  0  0  0  0
    2.6109   -5.0883   23.2026 H   0  0  0  0  0  0  0  0  0  0  0  0
    4.0786   -4.7932   24.7596 C   0  0  0  0  0  0  0  0  0  0  0  0
    3.5068   -5.2865   25.5325 H   0  0  0  0  0  0  0  0  0  0  0  0
    5.3535   -4.2717   24.9847 C   0  0  0  0  0  0  0  0  0  0  0  0
    6.0616   -4.5087   26.3562 C   0  0  0  0  0  0  0  0  0  0  0  0
    5.2617   -4.0931   27.3643 F   0  0  0  0  0  0  0  0  0  0  0  0
    7.2312   -3.8727   26.4633 F   0  0  0  0  0  0  0  0  0  0  0  0
    6.2957   -5.8192   26.5804 F   0  0  0  0  0  0  0  0  0  0  0  0
    5.9718   -3.5485   24.0426 N   0  0  0  0  0  0  0  0  0  0  0  0
  1  2  1  0
  2  3  2  3
  3  4  1  0
  4  5  1  0
  5  6  2  0
  6  7  1  0
  6  8  1  0
  8  9  2  0
  9 10  1  0
  9 11  1  0
 11 12  1  0
 11 13  2  0
 13 14  1  0
  4 15  2  0
 15 16  1  0
 16 17  1  0
 16 18  1  0
 16 19  1  0
 19 20  1  0
 19 21  1  0
  2 22  1  0
 22 23  2  0
 23 24  1  0
 24 25  1  0
 24 26  2  0
 26 27  1  0
 26 28  1  0
 28 29  1  0
 29 30  1  0
 29 31  1  0
 29 32  1  0
 28 33  2  0
 19  3  1  0
 33 22  1  0
 13  5  1  0
M  END
>  <cnnaffinity>  (1) 
-5.63394

>  <filename>  (1) 
FC(F)(F)c1ccnc(C=C2CCN=C2c2cccnc2)n1

$$$$
