
     RDKit          3D

 38 40  0  0  0  0  0  0  0  0999 V2000
    6.3634    4.5384   22.7048 F   0  0  0  0  0  0  0  0  0  0  0  0
    5.6162    3.4571   22.3129 C   0  0  0  0  0  0  0  0  0  0  0  0
    4.3269    3.8789   22.1768 F   0  0  0  0  0  0  0  0  0  0  0  0
    5.6974    2.4038   23.3588 C   0  0  0  0  0  0  0  0  0  0  0  0
    4.7998    2.3838   24.4228 C   0  0  0  0  0  0  0  0  0  0  0  0
    4.8900    1.3494   25.3531 C   0  0  0  0  0  0  0  0  0  0  0  0
    5.8672    0.3754   25.1648 C   0  0  0  0  0  0  0  0  0  0  0  0
    6.7367    0.3879   24.1553 N   0  0  0  0  0  0  0  0  0  0  0  0
    6.7126    1.4200   23.3006 C   0  0  0  0  0  0  0  0  0  0  0  0
    7.7179    1.4516   22.3631 N   0  0  0  0  0  0  0  0  0  0  0  0
    8.5495    2.6266   22.0898 C   0  0  0  0  0  0  0  0  0  0  0  0
    9.8999    2.0310   21.6555 C   0  0  0  0  0  0  0  0  0  0  0  0
    9.5541    0.6442   21.1101 C   0  0  0  0  0  0  0  0  0  0  0  0
    8.3113    0.1941   21.8857 C   0  0  0  0  0  0  0  0  0  0  0  0
    7.3618   -0.7093   21.0413 C   0  0  0  0  0  0  0  0  0  0  0  0
    6.6331   -0.0364   19.8892 C   0  0  0  0  0  0  0  0  0  0  0  0
    5.4167    0.6264   20.1197 C   0  0  0  0  0  0  0  0  0  0  0  0
    4.7848    1.3032   19.0723 C   0  0  0  0  0  0  0  0  0  0  0  0
    5.3897    1.2972   17.8127 C   0  0  0  0  0  0  0  0  0  0  0  0
    6.5438    0.6674   17.5561 N   0  0  0  0  0  0  0  0  0  0  0  0
    7.1432    0.0332   18.5754 C   0  0  0  0  0  0  0  0  0  0  0  0
    8.0953   -0.4351   18.3234 H   0  0  0  0  0  0  0  0  0  0  0  0
    4.9284    1.8211   16.9761 H   0  0  0  0  0  0  0  0  0  0  0  0
    3.8574    1.8516   19.2201 H   0  0  0  0  0  0  0  0  0  0  0  0
    4.9927    0.6292   21.1254 H   0  0  0  0  0  0  0  0  0  0  0  0
    6.6397   -1.1605   21.7348 H   0  0  0  0  0  0  0  0  0  0  0  0
    7.9702   -1.5420   20.6643 H   0  0  0  0  0  0  0  0  0  0  0  0
    8.6019   -0.4139   22.7541 H   0  0  0  0  0  0  0  0  0  0  0  0
    9.3039    0.6993   20.0452 H   0  0  0  0  0  0  0  0  0  0  0  0
   10.3697   -0.0810   21.2164 H   0  0  0  0  0  0  0  0  0  0  0  0
   10.3891    2.6559   20.9010 H   0  0  0  0  0  0  0  0  0  0  0  0
   10.5736    1.9502   22.5173 H   0  0  0  0  0  0  0  0  0  0  0  0
    8.1041    3.2173   21.2835 H   0  0  0  0  0  0  0  0  0  0  0  0
    8.6394    3.2926   22.9607 H   0  0  0  0  0  0  0  0  0  0  0  0
    5.9695   -0.4518   25.8675 H   0  0  0  0  0  0  0  0  0  0  0  0
    4.2181    1.2819   26.1966 H   0  0  0  0  0  0  0  0  0  0  0  0
    4.0406    3.1617   24.5000 H   0  0  0  0  0  0  0  0  0  0  0  0
    5.9549    3.1433   21.3253 H   0  0  0  0  0  0  0  0  0  0  0  0
  1  2  1  0
  2  3  1  0
  2  4  1  0
  4  5  2  0
  5  6  1  0
  6  7  2  0
  7  8  1  0
  8  9  2  0
  9 10  1  0
 10 11  1  0
 11 12  1  0
 12 13  1  0
 13 14  1  0
 14 15  1  0
 15 16  1  0
 16 17  2  0
 17 18  1  0
 18 19  2  0
 19 20  1  0
 20 21  2  0
 21 22  1  0
 19 23  1  0
 18 24  1  0
 17 25  1  0
 15 26  1  0
 15 27  1  0
 14 28  1  0
 13 29  1  0
 13 30  1  0
 12 31  1  0
 12 32  1  0
 11 33  1  0
 11 34  1  0
  7 35  1  0
  6 36  1  0
  5 37  1  0
  2 38  1  0
  9  4  1  0
 14 10  1  0
 21 16  1  0
M  END
>  <cnnaffinity>  (1) 
-5.43943

>  <filename>  (1) 
FC(F)c1cccnc1N1CCCC1Cc1cccnc1

$$$$
