
     RDKit          3D

 26 27  0  0  0  0  0  0  0  0999 V2000
    4.9534    1.8216   16.9627 H   0  0  0  0  0  0  0  0  0  0  0  0
    5.4005    1.2959   17.8068 C   0  0  0  0  0  0  0  0  0  0  0  0
    6.5547    0.6584   17.5616 N   0  0  0  0  0  0  0  0  0  0  0  0
    7.1377    0.0399   18.5882 C   0  0  0  0  0  0  0  0  0  0  0  0
    8.0774   -0.4599   18.3794 H   0  0  0  0  0  0  0  0  0  0  0  0
    6.6168    0.0036   19.8839 C   0  0  0  0  0  0  0  0  0  0  0  0
    7.4828   -0.6941   20.8844 C   0  0  0  0  0  0  0  0  0  0  0  0
    7.5100   -2.0396   20.6360 F   0  0  0  0  0  0  0  0  0  0  0  0
    6.9718   -0.5765   22.1474 F   0  0  0  0  0  0  0  0  0  0  0  0
    8.8317   -0.2675   20.8421 N   0  0  0  0  0  0  0  0  0  0  0  0
    9.4360   -1.0417   21.0769 H   0  0  0  0  0  0  0  0  0  0  0  0
    9.2895    0.9627   21.3392 C   0  0  0  0  0  0  0  0  0  0  0  0
    8.4572    1.9788   21.8276 C   0  0  0  0  0  0  0  0  0  0  0  0
    7.3830    1.8295   21.8614 H   0  0  0  0  0  0  0  0  0  0  0  0
    9.0137    3.1635   22.3249 C   0  0  0  0  0  0  0  0  0  0  0  0
    8.3786    3.9614   22.6939 H   0  0  0  0  0  0  0  0  0  0  0  0
   10.4000    3.3338   22.3370 C   0  0  0  0  0  0  0  0  0  0  0  0
   11.0860    4.7992   22.9831 Cl  0  0  0  0  0  0  0  0  0  0  0  0
   11.2404    2.3455   21.8191 C   0  0  0  0  0  0  0  0  0  0  0  0
   12.3115    2.5179   21.7732 H   0  0  0  0  0  0  0  0  0  0  0  0
   10.6763    1.1552   21.3553 C   0  0  0  0  0  0  0  0  0  0  0  0
   11.3105    0.3440   21.0168 H   0  0  0  0  0  0  0  0  0  0  0  0
    5.3994    0.6480   20.1350 C   0  0  0  0  0  0  0  0  0  0  0  0
    4.9418    0.6657   21.1300 H   0  0  0  0  0  0  0  0  0  0  0  0
    4.7867    1.3063   19.0650 C   0  0  0  0  0  0  0  0  0  0  0  0
    3.8586    1.8471   19.1909 H   0  0  0  0  0  0  0  0  0  0  0  0
  1  2  1  0
  2  3  2  0
  3  4  1  0
  4  5  1  0
  4  6  2  0
  6  7  1  0
  7  8  1  0
  7  9  1  0
  7 10  1  0
 10 11  1  0
 10 12  1  0
 12 13  2  0
 13 14  1  0
 13 15  1  0
 15 16  1  0
 15 17  2  0
 17 18  1  0
 17 19  1  0
 19 20  1  0
 19 21  2  0
 21 22  1  0
  6 23  1  0
 23 24  1  0
 23 25  2  0
 25 26  1  0
 25  2  1  0
 21 12  1  0
M  END
>  <cnnaffinity>  (1) 
-4.9082

>  <filename>  (1) 
FC(F)(Nc1ccc(Cl)cc1)c1cccnc1

$$$$
