
     RDKit          3D

 40 42  0  0  0  0  0  0  0  0999 V2000
    3.4227   -2.6532   27.9233 F   0  0  0  0  0  0  0  0  0  0  0  0
    4.0669   -1.5455   28.3457 C   0  0  0  0  0  0  0  0  0  0  0  0
    3.1196   -0.6070   28.5449 F   0  0  0  0  0  0  0  0  0  0  0  0
    4.5951   -1.8183   29.5566 F   0  0  0  0  0  0  0  0  0  0  0  0
    5.1315   -1.1002   27.3504 C   0  0  0  0  0  0  0  0  0  0  0  0
    4.8680   -0.8664   26.0553 C   0  0  0  0  0  0  0  0  0  0  0  0
    5.8904   -0.3201   25.0962 C   0  0  0  0  0  0  0  0  0  0  0  0
    7.3452   -0.5560   25.5974 N   0  0  0  0  0  4  0  0  0  0  0  0
    8.3931   -0.0016   24.6790 C   0  0  0  0  0  0  0  0  0  0  0  0
    8.1933   -0.5773   23.3033 C   0  0  0  0  0  0  0  0  0  0  0  0
    8.5002   -1.9311   23.1045 C   0  0  0  0  0  0  0  0  0  0  0  0
    8.1703   -2.6206   22.0074 N   0  0  0  0  0  0  0  0  0  0  0  0
    7.5297   -1.9490   21.0388 C   0  0  0  0  0  0  0  0  0  0  0  0
    7.2341   -0.5699   21.0841 C   0  0  0  0  0  0  0  0  0  0  0  0
    6.5740    0.1502   19.9444 C   0  0  0  0  0  0  0  0  0  0  0  0
    5.3558    0.8291   20.1195 C   0  0  0  0  0  0  0  0  0  0  0  0
    4.7408    1.4193   19.0126 C   0  0  0  0  0  0  0  0  0  0  0  0
    5.3924    1.3631   17.7757 C   0  0  0  0  0  0  0  0  0  0  0  0
    6.5794    0.7613   17.5908 N   0  0  0  0  0  0  0  0  0  0  0  0
    7.1421    0.1761   18.6538 C   0  0  0  0  0  0  0  0  0  0  0  0
    8.1087   -0.2995   18.4753 H   0  0  0  0  0  0  0  0  0  0  0  0
    4.9519    1.8177   16.8909 H   0  0  0  0  0  0  0  0  0  0  0  0
    3.7884    1.9398   19.0918 H   0  0  0  0  0  0  0  0  0  0  0  0
    4.9017    0.8808   21.1123 H   0  0  0  0  0  0  0  0  0  0  0  0
    7.5773    0.1194   22.2516 C   0  0  0  0  0  0  0  0  0  0  0  0
    7.3520    1.1902   22.3200 H   0  0  0  0  0  0  0  0  0  0  0  0
    7.2011   -2.5349   20.1823 H   0  0  0  0  0  0  0  0  0  0  0  0
    9.0298   -2.4882   23.8798 H   0  0  0  0  0  0  0  0  0  0  0  0
    9.3864   -0.2690   25.0633 H   0  0  0  0  0  0  0  0  0  0  0  0
    8.3321    1.0926   24.6577 H   0  0  0  0  0  0  0  0  0  0  0  0
    7.4465   -0.1211   27.0333 C   0  0  0  0  0  0  0  0  0  0  0  0
    6.5555   -1.0287   27.8625 C   0  0  0  0  0  0  0  0  0  0  0  0
    6.5552   -0.6731   28.8901 H   0  0  0  0  0  0  0  0  0  0  0  0
    6.9873   -2.0365   27.8492 H   0  0  0  0  0  0  0  0  0  0  0  0
    8.4829   -0.1464   27.3879 H   0  0  0  0  0  0  0  0  0  0  0  0
    7.1063    0.9154   27.1302 H   0  0  0  0  0  0  0  0  0  0  0  0
    7.4586   -1.5947   25.5605 H   0  0  0  0  0  0  0  0  0  0  0  0
    5.7575    0.7574   24.9328 H   0  0  0  0  0  0  0  0  0  0  0  0
    5.7776   -0.8152   24.1308 H   0  0  0  0  0  0  0  0  0  0  0  0
    3.8932   -1.0612   25.6139 H   0  0  0  0  0  0  0  0  0  0  0  0
  1  2  1  0
  2  3  1  0
  2  4  1  0
  2  5  1  0
  5  6  2  0
  6  7  1  0
  7  8  1  0
  8  9  1  0
  9 10  1  0
 10 11  2  0
 11 12  1  0
 12 13  2  0
 13 14  1  0
 14 15  1  0
 15 16  2  0
 16 17  1  0
 17 18  2  0
 18 19  1  0
 19 20  2  0
 20 21  1  0
 18 22  1  0
 17 23  1  0
 16 24  1  0
 14 25  2  0
 25 26  1  0
 13 27  1  0
 11 28  1  0
  9 29  1  0
  9 30  1  0
  8 31  1  0
 31 32  1  0
 32 33  1  0
 32 34  1  0
 31 35  1  0
 31 36  1  0
  8 37  1  0
  7 38  1  0
  7 39  1  0
  6 40  1  0
 32  5  1  0
 25 10  1  0
 20 15  1  0
M  CHG  1   8   1
M  END
>  <cnnaffinity>  (1) 
-5.15883

>  <filename>  (1) 
FC(F)(F)C1=CC[NH+](Cc2cncc(-c3cccnc3)c2)CC1

$$$$
