
     RDKit          3D

 25 26  0  0  0  0  0  0  0  0999 V2000
    6.6132    0.0439   22.6545 H   0  0  0  0  0  0  0  0  0  0  0  0
    7.2890   -0.6414   22.1158 C   0  0  0  0  0  0  0  0  0  0  0  0
    7.4026   -0.7116   20.8533 N   0  0  0  0  0  0  0  0  0  0  0  0
    6.6563    0.0284   19.9271 C   0  0  0  0  0  0  0  0  0  0  0  0
    7.1656    0.0703   18.6015 C   0  0  0  0  0  0  0  0  0  0  0  0
    8.1095   -0.4314   18.4082 H   0  0  0  0  0  0  0  0  0  0  0  0
    6.5642    0.6749   17.5763 N   0  0  0  0  0  0  0  0  0  0  0  0
    5.3957    1.2972   17.8354 C   0  0  0  0  0  0  0  0  0  0  0  0
    4.9204    1.7871   16.9888 H   0  0  0  0  0  0  0  0  0  0  0  0
    4.8033    1.3124   19.1032 C   0  0  0  0  0  0  0  0  0  0  0  0
    3.8710    1.8427   19.2562 H   0  0  0  0  0  0  0  0  0  0  0  0
    5.4344    0.6629   20.1761 C   0  0  0  0  0  0  0  0  0  0  0  0
    4.9961    0.6289   21.1764 H   0  0  0  0  0  0  0  0  0  0  0  0
    8.1200   -1.4787   23.0454 C   0  0  0  0  0  0  0  0  0  0  0  0
    8.9987   -2.3509   22.5261 N   0  0  0  0  0  0  0  0  0  0  0  0
    9.7146   -3.0570   23.3867 C   0  0  0  0  0  0  0  0  0  0  0  0
   10.4212   -3.7398   22.9372 H   0  0  0  0  0  0  0  0  0  0  0  0
    9.5811   -2.9406   24.7664 C   0  0  0  0  0  0  0  0  0  0  0  0
   10.1880   -3.5536   25.4232 H   0  0  0  0  0  0  0  0  0  0  0  0
    8.6424   -2.0134   25.2260 C   0  0  0  0  0  0  0  0  0  0  0  0
    8.4559   -1.8462   26.7690 C   0  0  0  0  0  0  0  0  0  0  0  0
    9.6171   -1.4929   27.3574 F   0  0  0  0  0  0  0  0  0  0  0  0
    8.1129   -3.0251   27.3312 F   0  0  0  0  0  0  0  0  0  0  0  0
    7.5396   -0.9487   27.1202 F   0  0  0  0  0  0  0  0  0  0  0  0
    7.9177   -1.2873   24.3553 N   0  0  0  0  0  0  0  0  0  0  0  0
  1  2  1  0
  2  3  2  3
  3  4  1  0
  4  5  2  0
  5  6  1  0
  5  7  1  0
  7  8  2  0
  8  9  1  0
  8 10  1  0
 10 11  1  0
 10 12  2  0
 12 13  1  0
  2 14  1  0
 14 15  2  0
 15 16  1  0
 16 17  1  0
 16 18  2  0
 18 19  1  0
 18 20  1  0
 20 21  1  0
 21 22  1  0
 21 23  1  0
 21 24  1  0
 20 25  2  0
 12  4  1  0
 25 14  1  0
M  END
>  <cnnaffinity>  (1) 
-5.02642

>  <filename>  (1) 
FC(F)(F)c1ccnc(C=Nc2cccnc2)n1

$$$$
