
     RDKit          3D

 36 38  0  0  0  0  0  0  0  0999 V2000
    3.6293   -8.2589   24.0225 F   0  0  0  0  0  0  0  0  0  0  0  0
    3.1719   -7.1009   23.5218 C   0  0  0  0  0  0  0  0  0  0  0  0
    2.3115   -7.3828   22.5224 F   0  0  0  0  0  0  0  0  0  0  0  0
    2.2116   -6.3210   24.8159 Cl  0  0  0  0  0  0  0  0  0  0  0  0
    4.2640   -6.2023   23.0585 C   0  0  0  0  0  0  0  0  0  0  0  0
    5.6296   -6.5119   23.0797 C   0  0  0  0  0  0  0  0  0  0  0  0
    6.5409   -5.5046   22.8116 C   0  0  0  0  0  0  0  0  0  0  0  0
    6.0494   -4.2101   22.5249 C   0  0  0  0  0  0  0  0  0  0  0  0
    6.8752   -3.1283   22.3761 N   0  0  0  0  0  0  0  0  0  0  0  0
    8.2660   -3.0254   22.8336 C   0  0  0  0  0  0  0  0  0  0  0  0
    8.5611   -1.4959   22.8354 C   0  0  0  0  0  0  0  0  0  0  0  0
    7.4068   -0.8060   22.1046 C   0  0  0  0  0  0  0  0  0  0  0  0
    7.7393   -0.6308   20.7235 O   0  0  0  0  0  0  0  0  0  0  0  0
    6.8673   -0.0197   19.8661 C   0  0  0  0  0  0  0  0  0  0  0  0
    5.6293    0.5610   20.1830 C   0  0  0  0  0  0  0  0  0  0  0  0
    4.9311    1.2190   19.1570 C   0  0  0  0  0  0  0  0  0  0  0  0
    5.4635    1.2458   17.8664 C   0  0  0  0  0  0  0  0  0  0  0  0
    6.6185    0.6360   17.5363 N   0  0  0  0  0  0  0  0  0  0  0  0
    7.2908    0.0245   18.5161 C   0  0  0  0  0  0  0  0  0  0  0  0
    8.2238   -0.4719   18.2581 H   0  0  0  0  0  0  0  0  0  0  0  0
    4.9492    1.7719   17.0662 H   0  0  0  0  0  0  0  0  0  0  0  0
    3.9816    1.7083   19.3550 H   0  0  0  0  0  0  0  0  0  0  0  0
    5.2070    0.4993   21.1850 H   0  0  0  0  0  0  0  0  0  0  0  0
    6.2887   -1.7916   22.3624 C   0  0  0  0  0  0  0  0  0  0  0  0
    5.4648   -1.7241   21.6528 H   0  0  0  0  0  0  0  0  0  0  0  0
    5.9522   -1.5558   23.3807 H   0  0  0  0  0  0  0  0  0  0  0  0
    7.1645    0.1738   22.5433 H   0  0  0  0  0  0  0  0  0  0  0  0
    9.5096   -1.2652   22.3564 H   0  0  0  0  0  0  0  0  0  0  0  0
    8.5919   -1.1172   23.8634 H   0  0  0  0  0  0  0  0  0  0  0  0
    8.9516   -3.5587   22.1631 H   0  0  0  0  0  0  0  0  0  0  0  0
    8.4014   -3.4449   23.8440 H   0  0  0  0  0  0  0  0  0  0  0  0
    4.7327   -3.9717   22.3607 N   0  0  0  0  0  0  0  0  0  0  0  0
    3.8773   -4.9387   22.6372 C   0  0  0  0  0  0  0  0  0  0  0  0
    2.8225   -4.6887   22.5565 H   0  0  0  0  0  0  0  0  0  0  0  0
    7.6084   -5.6854   22.8160 H   0  0  0  0  0  0  0  0  0  0  0  0
    5.9459   -7.5282   23.2893 H   0  0  0  0  0  0  0  0  0  0  0  0
  1  2  1  0
  2  3  1  0
  2  4  1  0
  2  5  1  0
  5  6  2  0
  6  7  1  0
  7  8  2  0
  8  9  1  0
  9 10  1  0
 10 11  1  0
 11 12  1  0
 12 13  1  0
 13 14  1  0
 14 15  2  0
 15 16  1  0
 16 17  2  0
 17 18  1  0
 18 19  2  0
 19 20  1  0
 17 21  1  0
 16 22  1  0
 15 23  1  0
 12 24  1  0
 24 25  1  0
 24 26  1  0
 12 27  1  0
 11 28  1  0
 11 29  1  0
 10 30  1  0
 10 31  1  0
  8 32  1  0
 32 33  2  0
 33 34  1  0
  7 35  1  0
  6 36  1  0
 33  5  1  0
 24  9  1  0
 19 14  1  0
M  END
>  <cnnaffinity>  (1) 
-5.21336

>  <filename>  (1) 
FC(F)(Cl)c1ccc(N2CCC(Oc3cccnc3)C2)nc1

$$$$
