
     RDKit          3D

 37 39  0  0  0  0  0  0  0  0999 V2000
    6.9805   -3.5554   22.5909 H   0  0  0  0  0  0  0  0  0  0  0  0
    6.9970   -2.4725   22.4615 C   0  0  0  0  0  0  0  0  0  0  0  0
    7.3884   -1.6830   23.4761 C   0  0  0  0  0  0  0  0  0  0  0  0
    7.9998   -2.2577   24.7131 C   0  0  0  0  0  0  0  0  0  0  0  0
    8.4973   -3.5004   24.5843 N   0  0  0  0  0  0  0  0  0  0  0  0
    9.0488   -4.0929   25.6447 C   0  0  0  0  0  0  0  0  0  0  0  0
    9.5958   -5.5145   25.4306 C   0  0  0  0  0  0  0  0  0  0  0  0
    8.8654   -6.2522   24.5841 F   0  0  0  0  0  0  0  0  0  0  0  0
    9.6299   -6.1853   26.5949 F   0  0  0  0  0  0  0  0  0  0  0  0
   10.8498   -5.4806   24.9448 F   0  0  0  0  0  0  0  0  0  0  0  0
    9.1879   -3.4685   26.8884 C   0  0  0  0  0  0  0  0  0  0  0  0
    9.6676   -3.9972   27.7043 H   0  0  0  0  0  0  0  0  0  0  0  0
    8.6799   -2.1781   27.0334 C   0  0  0  0  0  0  0  0  0  0  0  0
    8.7743   -1.6509   27.9812 H   0  0  0  0  0  0  0  0  0  0  0  0
    8.0648   -1.5706   25.9404 C   0  0  0  0  0  0  0  0  0  0  0  0
    7.6485   -0.5773   26.0376 H   0  0  0  0  0  0  0  0  0  0  0  0
    7.1785   -0.1887   23.3375 C   0  0  0  0  0  0  0  0  0  0  0  0
    6.1008    0.0277   23.4214 H   0  0  0  0  0  0  0  0  0  0  0  0
    7.6726    0.3622   24.1416 H   0  0  0  0  0  0  0  0  0  0  0  0
    7.7122    0.3067   21.9785 C   0  0  0  0  0  0  0  0  0  0  0  0
    7.3606    1.3309   21.7947 H   0  0  0  0  0  0  0  0  0  0  0  0
    8.8058    0.3675   22.0560 H   0  0  0  0  0  0  0  0  0  0  0  0
    7.3753   -0.6258   20.7686 C   0  0  2  0  0  0  0  0  0  0  0  0
    8.3339   -1.0116   20.3925 H   0  0  0  0  0  0  0  0  0  0  0  0
    6.6685    0.1111   19.6480 C   0  0  0  0  0  0  0  0  0  0  0  0
    7.1495    0.1100   18.3238 C   0  0  0  0  0  0  0  0  0  0  0  0
    8.0751   -0.4111   18.0873 H   0  0  0  0  0  0  0  0  0  0  0  0
    6.5485    0.7216   17.2940 N   0  0  0  0  0  0  0  0  0  0  0  0
    5.4086    1.3780   17.5501 C   0  0  0  0  0  0  0  0  0  0  0  0
    4.9435    1.8849   16.7082 H   0  0  0  0  0  0  0  0  0  0  0  0
    4.8223    1.4312   18.8216 C   0  0  0  0  0  0  0  0  0  0  0  0
    3.8994    1.9795   18.9690 H   0  0  0  0  0  0  0  0  0  0  0  0
    5.4625    0.7872   19.8785 C   0  0  0  0  0  0  0  0  0  0  0  0
    5.0227    0.8063   20.8810 H   0  0  0  0  0  0  0  0  0  0  0  0
    6.5476   -1.8869   21.1520 C   0  0  0  0  0  0  0  0  0  0  0  0
    6.6516   -2.6303   20.3526 H   0  0  0  0  0  0  0  0  0  0  0  0
    5.4745   -1.6326   21.1799 H   0  0  0  0  0  0  0  0  0  0  0  0
  1  2  1  0
  2  3  2  0
  3  4  1  0
  4  5  2  0
  5  6  1  0
  6  7  1  0
  7  8  1  0
  7  9  1  0
  7 10  1  0
  6 11  2  0
 11 12  1  0
 11 13  1  0
 13 14  1  0
 13 15  2  0
 15 16  1  0
  3 17  1  0
 17 18  1  0
 17 19  1  0
 17 20  1  0
 20 21  1  0
 20 22  1  0
 20 23  1  0
 23 24  1  6
 23 25  1  0
 25 26  2  0
 26 27  1  0
 26 28  1  0
 28 29  2  0
 29 30  1  0
 29 31  1  0
 31 32  1  0
 31 33  2  0
 33 34  1  0
 23 35  1  0
 35 36  1  0
 35 37  1  0
 35  2  1  0
 15  4  1  0
 33 25  1  0
M  END
>  <cnnaffinity>  (1) 
-4.89061

>  <filename>  (1) 
FC(F)(F)c1cccc(C2=CC[C@@H](c3cccnc3)CC2)n1

$$$$
