
     RDKit          3D

 24 25  0  0  0  0  0  0  0  0999 V2000
    4.9802    1.7862   16.9941 H   0  0  0  0  0  0  0  0  0  0  0  0
    5.4189    1.2809   17.8457 C   0  0  0  0  0  0  0  0  0  0  0  0
    6.5853    0.6648   17.6091 N   0  0  0  0  0  0  0  0  0  0  0  0
    7.2009    0.0937   18.6475 C   0  0  0  0  0  0  0  0  0  0  0  0
    8.1593   -0.3788   18.4261 H   0  0  0  0  0  0  0  0  0  0  0  0
    6.6809    0.1044   19.9628 C   0  0  0  0  0  0  0  0  0  0  0  0
    7.3991   -0.5060   21.0496 N   0  0  0  0  0  0  0  0  0  0  0  0
    8.1747   -1.6523   21.0381 C   0  0  0  0  0  0  0  0  0  0  0  0
    8.4478   -2.1738   20.1450 H   0  0  0  0  0  0  0  0  0  0  0  0
    8.5601   -1.9925   22.2219 N   0  0  0  0  0  0  0  0  0  0  0  0
    8.0555   -1.0611   23.1013 N   0  0  0  0  0  0  0  0  0  0  0  0
    7.3906   -0.2033   22.3868 C   0  0  0  0  0  0  0  0  0  0  0  0
    6.7829    0.9017   22.8439 O   0  0  0  0  0  0  0  0  0  0  0  0
    6.9873    1.1737   24.2319 C   0  0  0  0  0  0  0  0  0  0  0  0
    6.5821    0.3675   24.8508 H   0  0  0  0  0  0  0  0  0  0  0  0
    8.0531    1.2847   24.4569 H   0  0  0  0  0  0  0  0  0  0  0  0
    6.2913    2.4668   24.6042 C   0  0  0  0  0  0  0  0  0  0  0  0
    6.7832    3.5128   23.9287 F   0  0  0  0  0  0  0  0  0  0  0  0
    6.5067    2.6859   25.9131 F   0  0  0  0  0  0  0  0  0  0  0  0
    4.9667    2.4063   24.4109 F   0  0  0  0  0  0  0  0  0  0  0  0
    5.4327    0.7096   20.1865 C   0  0  0  0  0  0  0  0  0  0  0  0
    4.9746    0.7170   21.1768 H   0  0  0  0  0  0  0  0  0  0  0  0
    4.7944    1.3087   19.0958 C   0  0  0  0  0  0  0  0  0  0  0  0
    3.8385    1.8120   19.2073 H   0  0  0  0  0  0  0  0  0  0  0  0
  1  2  1  0
  2  3  2  0
  3  4  1  0
  4  5  1  0
  4  6  2  0
  6  7  1  0
  7  8  1  0
  8  9  1  0
  8 10  2  0
 10 11  1  0
 11 12  2  0
 12 13  1  0
 13 14  1  0
 14 15  1  0
 14 16  1  0
 14 17  1  0
 17 18  1  0
 17 19  1  0
 17 20  1  0
  6 21  1  0
 21 22  1  0
 21 23  2  0
 23 24  1  0
 23  2  1  0
 12  7  1  0
M  END
>  <cnnaffinity>  (1) 
-4.55674

>  <filename>  (1) 
FC(F)(F)COc1nncn1-c1cccnc1

$$$$
