
     RDKit          3D

 31 32  0  0  0  0  0  0  0  0999 V2000
    6.5217   -2.2713   23.6574 H   0  0  0  0  0  0  0  0  0  0  0  0
    7.2737   -2.9880   23.3197 C   0  0  0  0  0  0  0  0  0  0  0  0
    7.5460   -3.0879   22.0191 C   0  0  0  0  0  0  0  0  0  0  0  0
    8.3824   -3.6981   21.6730 H   0  0  0  0  0  0  0  0  0  0  0  0
    6.8586   -2.2201   21.0003 C   0  0  0  0  0  0  0  0  0  0  0  0
    6.9850   -2.6168   20.0003 H   0  0  0  0  0  0  0  0  0  0  0  0
    5.7802   -2.1778   21.1763 H   0  0  0  0  0  0  0  0  0  0  0  0
    7.3480   -0.7672   20.9594 C   0  0  0  0  0  0  0  0  0  0  0  0
    7.1467   -0.1836   22.1848 F   0  0  0  0  0  0  0  0  0  0  0  0
    8.7006   -0.7341   20.7527 F   0  0  0  0  0  0  0  0  0  0  0  0
    6.6561    0.0422   19.8995 C   0  0  0  0  0  0  0  0  0  0  0  0
    7.1771    0.0721   18.6018 C   0  0  0  0  0  0  0  0  0  0  0  0
    8.1210   -0.4201   18.3747 H   0  0  0  0  0  0  0  0  0  0  0  0
    6.5645    0.6701   17.5769 N   0  0  0  0  0  0  0  0  0  0  0  0
    5.4039    1.2876   17.8369 C   0  0  0  0  0  0  0  0  0  0  0  0
    4.9220    1.7775   16.9955 H   0  0  0  0  0  0  0  0  0  0  0  0
    4.8007    1.3109   19.1011 C   0  0  0  0  0  0  0  0  0  0  0  0
    3.8703    1.8447   19.2564 H   0  0  0  0  0  0  0  0  0  0  0  0
    5.4325    0.6651   20.1595 C   0  0  0  0  0  0  0  0  0  0  0  0
    4.9995    0.6430   21.1658 H   0  0  0  0  0  0  0  0  0  0  0  0
    7.9291   -3.7624   24.3889 C   0  0  0  0  0  0  0  0  0  0  0  0
    8.6574   -4.9346   24.1145 C   0  0  0  0  0  0  0  0  0  0  0  0
    8.7250   -5.3020   23.0934 H   0  0  0  0  0  0  0  0  0  0  0  0
    9.2721   -5.6433   25.1483 C   0  0  0  0  0  0  0  0  0  0  0  0
    9.8298   -6.5490   24.9236 H   0  0  0  0  0  0  0  0  0  0  0  0
    9.1695   -5.1877   26.4678 C   0  0  0  0  0  0  0  0  0  0  0  0
    9.6472   -5.7401   27.2709 H   0  0  0  0  0  0  0  0  0  0  0  0
    8.4462   -4.0218   26.7520 C   0  0  0  0  0  0  0  0  0  0  0  0
    8.3560   -3.6716   27.7763 H   0  0  0  0  0  0  0  0  0  0  0  0
    7.8279   -3.3160   25.7172 C   0  0  0  0  0  0  0  0  0  0  0  0
    7.2674   -2.4078   25.9337 H   0  0  0  0  0  0  0  0  0  0  0  0
  1  2  1  0
  2  3  2  3
  3  4  1  0
  3  5  1  0
  5  6  1  0
  5  7  1  0
  5  8  1  0
  8  9  1  0
  8 10  1  0
  8 11  1  0
 11 12  2  0
 12 13  1  0
 12 14  1  0
 14 15  2  0
 15 16  1  0
 15 17  1  0
 17 18  1  0
 17 19  2  0
 19 20  1  0
  2 21  1  0
 21 22  2  0
 22 23  1  0
 22 24  1  0
 24 25  1  0
 24 26  2  0
 26 27  1  0
 26 28  1  0
 28 29  1  0
 28 30  2  0
 30 31  1  0
 19 11  1  0
 30 21  1  0
M  END
>  <cnnaffinity>  (1) 
-4.84062

>  <filename>  (1) 
FC(F)(CC=Cc1ccccc1)c1cccnc1

$$$$
