
     RDKit          3D

 36 38  0  0  0  0  0  0  0  0999 V2000
    8.5525   -6.4597   24.1344 F   0  0  0  0  0  0  0  0  0  0  0  0
    8.8854   -6.0143   25.3481 C   0  0  0  0  0  0  0  0  0  0  0  0
   10.1072   -6.4962   25.6451 F   0  0  0  0  0  0  0  0  0  0  0  0
    8.0331   -6.5491   26.2466 F   0  0  0  0  0  0  0  0  0  0  0  0
    8.8697   -4.5056   25.4522 C   0  0  0  0  0  0  0  0  0  0  0  0
    9.1447   -3.9377   26.6987 C   0  0  0  0  0  0  0  0  0  0  0  0
    9.1783   -2.6021   26.8486 N   0  0  0  0  0  0  0  0  0  0  0  0
    8.9169   -1.8450   25.7752 C   0  0  0  0  0  0  0  0  0  0  0  0
    8.6108   -2.4289   24.4819 C   0  0  0  0  0  0  0  0  0  0  0  0
    8.3317   -1.7411   23.2966 N   0  0  0  0  0  0  0  0  0  0  0  0
    7.8432   -2.5686   22.1542 C   0  0  0  0  0  0  0  0  0  0  0  0
    7.7144   -1.8014   20.8381 C   0  0  0  0  0  0  0  0  0  0  0  0
    6.9631   -0.5622   21.0025 N   0  0  0  0  0  0  0  0  0  0  0  0
    6.4799    0.0977   19.8438 C   0  0  0  0  0  0  0  0  0  0  0  0
    5.3226    0.8814   19.9935 C   0  0  0  0  0  0  0  0  0  0  0  0
    4.7913    1.5423   18.8838 C   0  0  0  0  0  0  0  0  0  0  0  0
    5.4410    1.4118   17.6492 C   0  0  0  0  0  0  0  0  0  0  0  0
    6.5555    0.6807   17.4762 N   0  0  0  0  0  0  0  0  0  0  0  0
    7.0594    0.0476   18.5493 C   0  0  0  0  0  0  0  0  0  0  0  0
    7.9743   -0.5245   18.3863 H   0  0  0  0  0  0  0  0  0  0  0  0
    5.0557    1.9267   16.7718 H   0  0  0  0  0  0  0  0  0  0  0  0
    3.9125    2.1743   18.9811 H   0  0  0  0  0  0  0  0  0  0  0  0
    4.8770    0.9227   20.9872 H   0  0  0  0  0  0  0  0  0  0  0  0
    7.5947    0.2780   22.0341 C   0  0  0  0  0  0  0  0  0  0  0  0
    7.5883   -0.4650   23.3736 C   0  0  0  0  0  0  0  0  0  0  0  0
    8.0227    0.1791   24.1418 H   0  0  0  0  0  0  0  0  0  0  0  0
    6.5345   -0.6429   23.6402 H   0  0  0  0  0  0  0  0  0  0  0  0
    8.6317    0.5348   21.7530 H   0  0  0  0  0  0  0  0  0  0  0  0
    7.0332    1.2133   22.1413 H   0  0  0  0  0  0  0  0  0  0  0  0
    7.1592   -2.4350   20.1385 H   0  0  0  0  0  0  0  0  0  0  0  0
    8.7294   -1.6268   20.4312 H   0  0  0  0  0  0  0  0  0  0  0  0
    8.5435   -3.3923   21.9906 H   0  0  0  0  0  0  0  0  0  0  0  0
    6.8722   -3.0242   22.4063 H   0  0  0  0  0  0  0  0  0  0  0  0
    8.6240   -3.7638   24.3617 N   0  0  0  0  0  0  0  0  0  0  0  0
    8.9910   -0.7693   25.9221 H   0  0  0  0  0  0  0  0  0  0  0  0
    9.3368   -4.5391   27.5815 H   0  0  0  0  0  0  0  0  0  0  0  0
  1  2  1  0
  2  3  1  0
  2  4  1  0
  2  5  1  0
  5  6  2  0
  6  7  1  0
  7  8  2  0
  8  9  1  0
  9 10  1  0
 10 11  1  0
 11 12  1  0
 12 13  1  0
 13 14  1  0
 14 15  2  0
 15 16  1  0
 16 17  2  0
 17 18  1  0
 18 19  2  0
 19 20  1  0
 17 21  1  0
 16 22  1  0
 15 23  1  0
 13 24  1  0
 24 25  1  0
 25 26  1  0
 25 27  1  0
 24 28  1  0
 24 29  1  0
 12 30  1  0
 12 31  1  0
 11 32  1  0
 11 33  1  0
  9 34  2  0
  8 35  1  0
  6 36  1  0
 34  5  1  0
 25 10  1  0
 19 14  1  0
M  END
>  <cnnaffinity>  (1) 
-4.77514

>  <filename>  (1) 
FC(F)(F)c1cncc(N2CCN(c3cccnc3)CC2)n1

$$$$
