
     RDKit          3D

 25 26  0  0  0  0  0  0  0  0999 V2000
    5.0008    1.7699   17.0143 H   0  0  0  0  0  0  0  0  0  0  0  0
    5.4808    1.2584   17.8491 C   0  0  0  0  0  0  0  0  0  0  0  0
    6.6364    0.6242   17.6055 N   0  0  0  0  0  0  0  0  0  0  0  0
    7.2343   -0.0357   18.6167 C   0  0  0  0  0  0  0  0  0  0  0  0
    8.1671   -0.5528   18.3878 H   0  0  0  0  0  0  0  0  0  0  0  0
    6.6913   -0.0826   19.9156 C   0  0  0  0  0  0  0  0  0  0  0  0
    7.2180   -0.7910   20.9717 O   0  0  0  0  0  0  0  0  0  0  0  0
    8.5724   -0.9180   21.1086 C   0  0  0  0  0  0  0  0  0  0  0  0
    9.2229   -2.1421   21.3525 C   0  0  0  0  0  0  0  0  0  0  0  0
    8.7550   -3.1107   21.4887 H   0  0  0  0  0  0  0  0  0  0  0  0
   10.5404   -1.9745   21.4033 N   0  0  0  0  0  0  0  0  0  0  0  0
   10.7250   -0.6599   21.2198 N   0  0  0  0  0  0  0  0  0  0  0  0
   11.6691   -0.3038   21.2165 H   0  0  0  0  0  0  0  0  0  0  0  0
    9.5640    0.0443   21.0830 C   0  0  0  0  0  0  0  0  0  0  0  0
    9.4681    1.5382   21.0749 C   0  0  0  0  0  0  0  0  0  0  0  0
    8.6641    1.8439   20.4032 H   0  0  0  0  0  0  0  0  0  0  0  0
   10.3972    1.9857   20.7072 H   0  0  0  0  0  0  0  0  0  0  0  0
    9.1581    2.1807   22.4177 C   0  0  0  0  0  0  0  0  0  0  0  0
    8.9140    3.4936   22.2342 F   0  0  0  0  0  0  0  0  0  0  0  0
   10.1908    2.0748   23.2685 F   0  0  0  0  0  0  0  0  0  0  0  0
    8.0755    1.6415   23.0025 F   0  0  0  0  0  0  0  0  0  0  0  0
    5.4916    0.5880   20.1615 C   0  0  0  0  0  0  0  0  0  0  0  0
    5.0837    0.5753   21.1696 H   0  0  0  0  0  0  0  0  0  0  0  0
    4.8788    1.2674   19.1125 C   0  0  0  0  0  0  0  0  0  0  0  0
    3.9525    1.8051   19.2699 H   0  0  0  0  0  0  0  0  0  0  0  0
  1  2  1  0
  2  3  2  0
  3  4  1  0
  4  5  1  0
  4  6  2  0
  6  7  1  0
  7  8  1  0
  8  9  1  0
  9 10  1  0
  9 11  2  0
 11 12  1  0
 12 13  1  0
 12 14  1  0
 14 15  1  0
 15 16  1  0
 15 17  1  0
 15 18  1  0
 18 19  1  0
 18 20  1  0
 18 21  1  0
  6 22  1  0
 22 23  1  0
 22 24  2  0
 24 25  1  0
 24  2  1  0
 14  8  2  0
M  END
>  <cnnaffinity>  (1) 
-5.04507

>  <filename>  (1) 
FC(F)(F)Cc1[nH]ncc1Oc1cccnc1

$$$$
