
     RDKit          3D

 33 35  0  0  0  0  0  0  0  0999 V2000
    4.9279    1.8314   16.9719 H   0  0  0  0  0  0  0  0  0  0  0  0
    5.3783    1.3038   17.8132 C   0  0  0  0  0  0  0  0  0  0  0  0
    6.5394    0.6814   17.5657 N   0  0  0  0  0  0  0  0  0  0  0  0
    7.1362    0.0432   18.5796 C   0  0  0  0  0  0  0  0  0  0  0  0
    8.0966   -0.4156   18.3451 H   0  0  0  0  0  0  0  0  0  0  0  0
    6.6182   -0.0330   19.8895 C   0  0  0  0  0  0  0  0  0  0  0  0
    7.3969   -0.7228   21.0147 C   0  0  0  0  0  0  0  0  0  0  0  0
    7.6774   -1.7429   20.7296 H   0  0  0  0  0  0  0  0  0  0  0  0
    6.7872   -0.8034   21.9207 H   0  0  0  0  0  0  0  0  0  0  0  0
    8.6876   -0.0366   21.3725 C   0  0  0  0  0  0  0  0  0  0  0  0
    9.8667   -0.4177   20.9633 N   0  0  0  0  0  0  0  0  0  0  0  0
   10.7833    0.5147   21.3859 N   0  0  0  0  0  0  0  0  0  0  0  0
   10.1281    1.4259   22.0398 C   0  0  0  0  0  0  0  0  0  0  0  0
   10.5646    2.3138   22.4825 H   0  0  0  0  0  0  0  0  0  0  0  0
    8.7905    1.1276   22.0992 N   0  0  0  0  0  0  0  0  0  0  0  0
    7.7414    1.9560   22.5852 C   0  0  0  0  0  0  0  0  0  0  0  0
    7.1488    2.8344   21.6884 C   0  0  0  0  0  0  0  0  0  0  0  0
    7.4372    2.6809   20.6608 H   0  0  0  0  0  0  0  0  0  0  0  0
    6.1513    3.7186   22.1008 C   0  0  0  0  0  0  0  0  0  0  0  0
    5.7335    4.4410   21.3993 H   0  0  0  0  0  0  0  0  0  0  0  0
    5.7014    3.6559   23.4247 C   0  0  0  0  0  0  0  0  0  0  0  0
    4.9011    4.3161   23.7424 H   0  0  0  0  0  0  0  0  0  0  0  0
    6.2475    2.7341   24.3185 C   0  0  0  0  0  0  0  0  0  0  0  0
    5.8488    2.6692   25.3288 H   0  0  0  0  0  0  0  0  0  0  0  0
    7.2887    1.8836   23.9136 C   0  0  0  0  0  0  0  0  0  0  0  0
    7.9413    0.8655   24.8227 C   0  0  0  0  0  0  0  0  0  0  0  0
    9.2510    1.1241   25.0089 F   0  0  0  0  0  0  0  0  0  0  0  0
    7.3704    0.8300   26.0404 F   0  0  0  0  0  0  0  0  0  0  0  0
    7.8572   -0.3837   24.3181 F   0  0  0  0  0  0  0  0  0  0  0  0
    5.3988    0.6173   20.1163 C   0  0  0  0  0  0  0  0  0  0  0  0
    4.9923    0.6514   21.1286 H   0  0  0  0  0  0  0  0  0  0  0  0
    4.7702    1.3049   19.0718 C   0  0  0  0  0  0  0  0  0  0  0  0
    3.8500    1.8614   19.2167 H   0  0  0  0  0  0  0  0  0  0  0  0
  1  2  1  0
  2  3  2  0
  3  4  1  0
  4  5  1  0
  4  6  2  0
  6  7  1  0
  7  8  1  0
  7  9  1  0
  7 10  1  0
 10 11  2  0
 11 12  1  0
 12 13  2  0
 13 14  1  0
 13 15  1  0
 15 16  1  0
 16 17  2  0
 17 18  1  0
 17 19  1  0
 19 20  1  0
 19 21  2  0
 21 22  1  0
 21 23  1  0
 23 24  1  0
 23 25  2  0
 25 26  1  0
 26 27  1  0
 26 28  1  0
 26 29  1  0
  6 30  1  0
 30 31  1  0
 30 32  2  0
 32 33  1  0
 32  2  1  0
 15 10  1  0
 25 16  1  0
M  END
>  <cnnaffinity>  (1) 
-5.42062

>  <filename>  (1) 
FC(F)(F)c1ccccc1-n1cnnc1Cc1cccnc1

$$$$
