
     RDKit          3D

 39 42  0  0  0  0  0  0  0  0999 V2000
    7.2681   -0.5960   26.1924 F   0  0  0  0  0  0  0  0  0  0  0  0
    7.1204   -0.2898   24.8715 C   0  0  0  0  0  0  0  0  0  0  0  0
    8.2082    0.4604   24.5213 F   0  0  0  0  0  0  0  0  0  0  0  0
    7.0616   -1.6091   24.1074 C   0  0  0  0  0  0  0  0  0  0  0  0
    7.2449   -1.4408   22.6815 N   0  0  0  0  0  0  0  0  0  0  0  0
    6.3158   -0.7713   21.9652 N   0  0  0  0  0  0  0  0  0  0  0  0
    6.8794   -0.6472   20.7814 C   0  0  0  0  0  0  0  0  0  0  0  0
    6.2602    0.0700   19.6734 C   0  0  0  0  0  0  0  0  0  0  0  0
    5.0757    0.8186   19.7949 C   0  0  0  0  0  0  0  0  0  0  0  0
    4.6427    1.5332   18.6821 C   0  0  0  0  0  0  0  0  0  0  0  0
    5.3854    1.4664   17.4979 C   0  0  0  0  0  0  0  0  0  0  0  0
    6.5023    0.7346   17.3681 N   0  0  0  0  0  0  0  0  0  0  0  0
    6.9251    0.0629   18.4430 C   0  0  0  0  0  0  0  0  0  0  0  0
    7.8437   -0.5070   18.3257 H   0  0  0  0  0  0  0  0  0  0  0  0
    5.0688    2.0193   16.6158 H   0  0  0  0  0  0  0  0  0  0  0  0
    3.7557    2.1553   18.7201 H   0  0  0  0  0  0  0  0  0  0  0  0
    4.5312    0.8479   20.7408 H   0  0  0  0  0  0  0  0  0  0  0  0
    8.1242   -1.2010   20.6912 N   0  0  0  0  0  0  0  0  0  0  0  0
    8.3277   -1.6717   21.9005 C   0  0  0  0  0  0  0  0  0  0  0  0
    9.5632   -2.3079   22.4610 C   0  0  0  0  0  0  0  0  0  0  0  0
   10.2810   -1.4181   23.4354 C   0  0  0  0  0  0  0  0  0  0  0  0
   10.3854   -1.4919   24.7746 C   0  0  0  0  0  0  0  0  0  0  0  0
   11.1458   -0.4822   25.3023 O   0  0  0  0  0  0  0  0  0  0  0  0
   11.5320    0.2857   24.2473 C   0  0  0  0  0  0  0  0  0  0  0  0
   12.3647    1.4074   24.2773 C   0  0  0  0  0  0  0  0  0  0  0  0
   12.6243    2.0343   23.0560 C   0  0  0  0  0  0  0  0  0  0  0  0
   12.0607    1.5503   21.8517 C   0  0  0  0  0  0  0  0  0  0  0  0
   11.2467    0.4229   21.8401 C   0  0  0  0  0  0  0  0  0  0  0  0
   10.9967   -0.2259   23.0594 C   0  0  0  0  0  0  0  0  0  0  0  0
   10.7933    0.0290   20.9312 H   0  0  0  0  0  0  0  0  0  0  0  0
   12.2585    2.0703   20.9181 H   0  0  0  0  0  0  0  0  0  0  0  0
   13.2604    2.9172   23.0098 H   0  0  0  0  0  0  0  0  0  0  0  0
   12.7766    1.7439   25.2171 H   0  0  0  0  0  0  0  0  0  0  0  0
    9.9654   -2.1955   25.4807 H   0  0  0  0  0  0  0  0  0  0  0  0
   10.2172   -2.5410   21.6160 H   0  0  0  0  0  0  0  0  0  0  0  0
    9.3015   -3.2590   22.9350 H   0  0  0  0  0  0  0  0  0  0  0  0
    7.8366   -2.2618   24.5109 H   0  0  0  0  0  0  0  0  0  0  0  0
    6.0930   -2.0782   24.2858 H   0  0  0  0  0  0  0  0  0  0  0  0
    6.2266    0.3251   24.7498 H   0  0  0  0  0  0  0  0  0  0  0  0
  1  2  1  0
  2  3  1  0
  2  4  1  0
  4  5  1  0
  5  6  1  0
  6  7  2  0
  7  8  1  0
  8  9  2  0
  9 10  1  0
 10 11  2  0
 11 12  1  0
 12 13  2  0
 13 14  1  0
 11 15  1  0
 10 16  1  0
  9 17  1  0
  7 18  1  0
 18 19  2  0
 19 20  1  0
 20 21  1  0
 21 22  2  0
 22 23  1  0
 23 24  1  0
 24 25  2  0
 25 26  1  0
 26 27  2  0
 27 28  1  0
 28 29  2  0
 28 30  1  0
 27 31  1  0
 26 32  1  0
 25 33  1  0
 22 34  1  0
 20 35  1  0
 20 36  1  0
  4 37  1  0
  4 38  1  0
  2 39  1  0
 19  5  1  0
 29 21  1  0
 13  8  1  0
 29 24  1  0
M  END
>  <cnnaffinity>  (1) 
-5.59663

>  <filename>  (1) 
FC(F)Cn1nc(-c2cccnc2)nc1Cc1coc2ccccc12

$$$$
