
     RDKit          3D

 48 52  0  0  0  0  0  0  0  0999 V2000
    7.7722    5.2560   27.2206 F   0  0  0  0  0  0  0  0  0  0  0  0
    7.6461    4.3451   26.2037 C   0  0  0  0  0  0  0  0  0  0  0  0
    6.3245    3.9772   26.1741 F   0  0  0  0  0  0  0  0  0  0  0  0
    8.5136    3.1338   26.5137 C   0  0  0  0  0  0  0  0  0  0  0  0
    8.5502    2.1102   25.3759 C   0  0  0  0  0  0  0  0  0  0  0  0
    8.9342    2.7831   24.0511 C   0  0  0  0  0  0  0  0  0  0  0  0
    8.9076    1.8016   22.9654 N   0  0  0  0  0  0  0  0  0  0  0  0
    7.8063    1.0648   22.6826 N   0  0  0  0  0  0  0  0  0  0  0  0
    8.2064    0.3110   21.6745 C   0  0  0  0  0  0  0  0  0  0  0  0
    7.3361   -0.6923   20.9940 C   0  0  0  0  0  0  0  0  0  0  0  0
    6.5797   -0.0534   19.8477 C   0  0  0  0  0  0  0  0  0  0  0  0
    5.3858    0.6308   20.0967 C   0  0  0  0  0  0  0  0  0  0  0  0
    4.7729    1.3170   19.0481 C   0  0  0  0  0  0  0  0  0  0  0  0
    5.3873    1.3074   17.7925 C   0  0  0  0  0  0  0  0  0  0  0  0
    6.5403    0.6704   17.5351 N   0  0  0  0  0  0  0  0  0  0  0  0
    7.1171    0.0185   18.5516 C   0  0  0  0  0  0  0  0  0  0  0  0
    8.0738   -0.4611   18.3361 H   0  0  0  0  0  0  0  0  0  0  0  0
    4.9366    1.8386   16.9566 H   0  0  0  0  0  0  0  0  0  0  0  0
    3.8525    1.8700   19.1967 H   0  0  0  0  0  0  0  0  0  0  0  0
    4.9610    0.6399   21.1030 H   0  0  0  0  0  0  0  0  0  0  0  0
    7.9788   -1.5058   20.6405 H   0  0  0  0  0  0  0  0  0  0  0  0
    6.6489   -1.1082   21.7365 H   0  0  0  0  0  0  0  0  0  0  0  0
    9.4823    0.5229   21.2759 N   0  0  0  0  0  0  0  0  0  0  0  0
    9.9022    1.4420   22.1347 C   0  0  0  0  0  0  0  0  0  0  0  0
   11.2468    2.0470   22.3167 C   0  0  0  0  0  0  0  0  0  0  0  0
   11.4183    3.4707   22.2310 C   0  0  0  0  0  0  0  0  0  0  0  0
   12.6692    4.0513   22.2565 C   0  0  0  0  0  0  0  0  0  0  0  0
   13.7169    3.1340   22.4351 C   0  0  0  0  0  0  0  0  0  0  0  0
   15.0546    3.2463   22.3000 N   0  0  0  0  0  0  0  0  0  0  0  0
   15.6840    2.0204   22.3206 N   0  0  0  0  0  0  0  0  0  0  0  0
   14.7477    1.1360   22.5758 C   0  0  0  0  0  0  0  0  0  0  0  0
   13.4617    1.7473   22.6064 C   0  0  0  0  0  0  0  0  0  0  0  0
   12.2335    1.1965   22.5727 N   0  0  0  0  0  0  0  0  0  0  0  0
   14.9557    0.0760   22.6764 H   0  0  0  0  0  0  0  0  0  0  0  0
   15.5312    4.0673   21.9695 H   0  0  0  0  0  0  0  0  0  0  0  0
   12.8323    5.1184   22.1519 H   0  0  0  0  0  0  0  0  0  0  0  0
   10.5403    4.0961   22.1655 H   0  0  0  0  0  0  0  0  0  0  0  0
    8.0408    3.9944   23.7237 C   0  0  0  0  0  0  0  0  0  0  0  0
    8.0202    5.0070   24.8803 C   0  0  0  0  0  0  0  0  0  0  0  0
    7.3185    5.8237   24.6840 H   0  0  0  0  0  0  0  0  0  0  0  0
    9.0149    5.4543   25.0184 H   0  0  0  0  0  0  0  0  0  0  0  0
    7.0321    3.6163   23.5192 H   0  0  0  0  0  0  0  0  0  0  0  0
    8.3898    4.4861   22.8059 H   0  0  0  0  0  0  0  0  0  0  0  0
    9.9688    3.1276   24.1596 H   0  0  0  0  0  0  0  0  0  0  0  0
    9.2857    1.3273   25.5959 H   0  0  0  0  0  0  0  0  0  0  0  0
    7.5772    1.6235   25.2404 H   0  0  0  0  0  0  0  0  0  0  0  0
    8.1913    2.6770   27.4537 H   0  0  0  0  0  0  0  0  0  0  0  0
    9.5133    3.5465   26.6572 H   0  0  0  0  0  0  0  0  0  0  0  0
  1  2  1  0
  2  3  1  0
  2  4  1  0
  4  5  1  0
  5  6  1  0
  6  7  1  0
  7  8  1  0
  8  9  2  0
  9 10  1  0
 10 11  1  0
 11 12  2  0
 12 13  1  0
 13 14  2  0
 14 15  1  0
 15 16  2  0
 16 17  1  0
 14 18  1  0
 13 19  1  0
 12 20  1  0
 10 21  1  0
 10 22  1  0
  9 23  1  0
 23 24  2  0
 24 25  1  0
 25 26  2  0
 26 27  1  0
 27 28  2  0
 28 29  1  0
 29 30  1  0
 30 31  2  0
 31 32  1  0
 32 33  2  0
 31 34  1  0
 29 35  1  0
 27 36  1  0
 26 37  1  0
  6 38  1  0
 38 39  1  0
 39 40  1  0
 39 41  1  0
 38 42  1  0
 38 43  1  0
  6 44  1  0
  5 45  1  0
  5 46  1  0
  4 47  1  0
  4 48  1  0
 39  2  1  0
 24  7  1  0
 33 25  1  0
 16 11  1  0
 32 28  1  0
M  END
>  <cnnaffinity>  (1) 
-6.24692

>  <filename>  (1) 
FC1(F)CCC(n2nc(Cc3cccnc3)nc2-c2ccc3[nH]ncc3n2)CC1

$$$$
