
     RDKit          3D

 48 52  0  0  0  0  0  0  0  0999 V2000
    7.7102    5.2963   27.2177 F   0  0  0  0  0  0  0  0  0  0  0  0
    7.5867    4.3695   26.2142 C   0  0  0  0  0  0  0  0  0  0  0  0
    6.2713    3.9835   26.2110 F   0  0  0  0  0  0  0  0  0  0  0  0
    8.4649    3.1690   26.5298 C   0  0  0  0  0  0  0  0  0  0  0  0
    8.5042    2.1333   25.3939 C   0  0  0  0  0  0  0  0  0  0  0  0
    8.8736    2.8112   24.0544 C   0  0  0  0  0  0  0  0  0  0  0  0
    8.9152    1.8591   22.9392 N   0  0  0  0  0  0  0  0  0  0  0  0
    7.8393    1.0888   22.6465 N   0  0  0  0  0  0  0  0  0  0  0  0
    8.2926    0.2764   21.7115 C   0  0  0  0  0  0  0  0  0  0  0  0
    7.3918   -0.6848   20.9901 C   0  0  0  0  0  0  0  0  0  0  0  0
    6.6241   -0.0339   19.8437 C   0  0  0  0  0  0  0  0  0  0  0  0
    5.4157    0.6306   20.0853 C   0  0  0  0  0  0  0  0  0  0  0  0
    4.7930    1.3155   19.0392 C   0  0  0  0  0  0  0  0  0  0  0  0
    5.4026    1.3049   17.7823 C   0  0  0  0  0  0  0  0  0  0  0  0
    6.5462    0.6530   17.5190 N   0  0  0  0  0  0  0  0  0  0  0  0
    7.1305    0.0039   18.5335 C   0  0  0  0  0  0  0  0  0  0  0  0
    8.0584   -0.5203   18.2953 H   0  0  0  0  0  0  0  0  0  0  0  0
    4.9553    1.8380   16.9455 H   0  0  0  0  0  0  0  0  0  0  0  0
    3.8684    1.8627   19.1886 H   0  0  0  0  0  0  0  0  0  0  0  0
    4.9852    0.6121   21.0871 H   0  0  0  0  0  0  0  0  0  0  0  0
    8.0180   -1.5024   20.6212 H   0  0  0  0  0  0  0  0  0  0  0  0
    6.6867   -1.0985   21.7206 H   0  0  0  0  0  0  0  0  0  0  0  0
    9.6057    0.4454   21.4031 N   0  0  0  0  0  0  0  0  0  0  0  0
    9.9557    1.4814   22.1581 C   0  0  0  0  0  0  0  0  0  0  0  0
   11.2695    2.1225   22.2323 C   0  0  0  0  0  0  0  0  0  0  0  0
   11.4994    3.4994   22.2485 C   0  0  0  0  0  0  0  0  0  0  0  0
   12.7894    4.0431   22.4535 C   0  0  0  0  0  0  0  0  0  0  0  0
   13.8825    3.2366   22.6993 C   0  0  0  0  0  0  0  0  0  0  0  0
   13.6726    1.8357   22.7061 C   0  0  0  0  0  0  0  0  0  0  0  0
   12.4120    1.3115   22.3808 C   0  0  0  0  0  0  0  0  0  0  0  0
   12.6157   -0.0220   22.3523 N   0  0  0  0  0  0  0  0  0  0  0  0
   13.8954   -0.3194   22.6518 N   0  0  0  0  0  0  0  0  0  0  0  0
   14.5335    0.7704   22.8779 N   0  0  0  0  0  0  0  0  0  0  0  0
   11.9638   -0.7345   22.0463 H   0  0  0  0  0  0  0  0  0  0  0  0
   14.8678    3.6729   22.7989 H   0  0  0  0  0  0  0  0  0  0  0  0
   12.9194    5.1204   22.4368 H   0  0  0  0  0  0  0  0  0  0  0  0
   10.6709    4.1947   22.1601 H   0  0  0  0  0  0  0  0  0  0  0  0
    7.9486    3.9971   23.7270 C   0  0  0  0  0  0  0  0  0  0  0  0
    7.9287    5.0193   24.8767 C   0  0  0  0  0  0  0  0  0  0  0  0
    7.2158    5.8295   24.6932 H   0  0  0  0  0  0  0  0  0  0  0  0
    8.9194    5.4787   24.9890 H   0  0  0  0  0  0  0  0  0  0  0  0
    8.2994    4.4770   22.8060 H   0  0  0  0  0  0  0  0  0  0  0  0
    6.9383    3.6241   23.5248 H   0  0  0  0  0  0  0  0  0  0  0  0
    9.8837    3.2058   24.1919 H   0  0  0  0  0  0  0  0  0  0  0  0
    7.5405    1.6205   25.3004 H   0  0  0  0  0  0  0  0  0  0  0  0
    9.2501    1.3657   25.6260 H   0  0  0  0  0  0  0  0  0  0  0  0
    8.1485    2.7310   27.4826 H   0  0  0  0  0  0  0  0  0  0  0  0
    9.4612    3.5884   26.6745 H   0  0  0  0  0  0  0  0  0  0  0  0
  1  2  1  0
  2  3  1  0
  2  4  1  0
  4  5  1  0
  5  6  1  0
  6  7  1  0
  7  8  1  0
  8  9  2  0
  9 10  1  0
 10 11  1  0
 11 12  2  0
 12 13  1  0
 13 14  2  0
 14 15  1  0
 15 16  2  0
 16 17  1  0
 14 18  1  0
 13 19  1  0
 12 20  1  0
 10 21  1  0
 10 22  1  0
  9 23  1  0
 23 24  2  0
 24 25  1  0
 25 26  2  0
 26 27  1  0
 27 28  2  0
 28 29  1  0
 29 30  2  0
 30 31  1  0
 31 32  1  0
 32 33  2  0
 31 34  1  0
 28 35  1  0
 27 36  1  0
 26 37  1  0
  6 38  1  0
 38 39  1  0
 39 40  1  0
 39 41  1  0
 38 42  1  0
 38 43  1  0
  6 44  1  0
  5 45  1  0
  5 46  1  0
  4 47  1  0
  4 48  1  0
 39  2  1  0
 24  7  1  0
 30 25  1  0
 16 11  1  0
 33 29  1  0
M  END
>  <cnnaffinity>  (1) 
-6.7297

>  <filename>  (1) 
FC1(F)CCC(n2nc(Cc3cccnc3)nc2-c2cccc3nn[nH]c23)CC1

$$$$
