
     RDKit          3D

 44 49  0  0  0  0  0  0  0  0999 V2000
   10.6529    4.1419   24.5957 F   0  0  0  0  0  0  0  0  0  0  0  0
    9.5240    3.9104   23.9046 C   0  0  0  0  0  0  0  0  0  0  0  0
    9.6113    4.5536   22.7239 F   0  0  0  0  0  0  0  0  0  0  0  0
    8.8432    2.5754   23.9638 C   0  0  0  0  0  0  0  0  0  0  0  0
    8.6285    1.8168   22.7153 C   0  0  0  0  0  0  0  0  0  0  0  0
    7.6197    1.0214   22.4394 N   0  0  0  0  0  0  0  0  0  0  0  0
    8.0033    0.4360   21.2733 C   0  0  0  0  0  0  0  0  0  0  0  0
    7.1599   -0.5948   20.5850 C   0  0  0  0  0  0  0  0  0  0  0  0
    6.3865   -0.0290   19.4040 C   0  0  0  0  0  0  0  0  0  0  0  0
    5.2672    0.7876   19.6223 C   0  0  0  0  0  0  0  0  0  0  0  0
    4.6523    1.3924   18.5241 C   0  0  0  0  0  0  0  0  0  0  0  0
    5.1993    1.1773   17.2550 C   0  0  0  0  0  0  0  0  0  0  0  0
    6.2667    0.4004   17.0236 N   0  0  0  0  0  0  0  0  0  0  0  0
    6.8325   -0.1888   18.0822 C   0  0  0  0  0  0  0  0  0  0  0  0
    7.7051   -0.8107   17.8768 H   0  0  0  0  0  0  0  0  0  0  0  0
    4.7855    1.6558   16.3754 H   0  0  0  0  0  0  0  0  0  0  0  0
    3.7823    2.0322   18.6383 H   0  0  0  0  0  0  0  0  0  0  0  0
    4.9004    0.9516   20.6392 H   0  0  0  0  0  0  0  0  0  0  0  0
    7.8154   -1.4185   20.2770 H   0  0  0  0  0  0  0  0  0  0  0  0
    6.4821   -0.9833   21.3512 H   0  0  0  0  0  0  0  0  0  0  0  0
    9.1854    0.8056   20.8171 N   0  0  0  0  0  0  0  0  0  0  0  0
    9.6082    1.6680   21.7743 N   0  0  0  0  0  0  0  0  0  0  0  0
   10.9698    2.0533   21.9361 C   0  0  0  0  0  0  0  0  0  0  0  0
   11.6381    2.9377   21.0928 C   0  0  0  0  0  0  0  0  0  0  0  0
   12.8409    3.5405   21.5159 C   0  0  0  0  0  0  0  0  0  0  0  0
   13.4836    3.1325   22.6889 C   0  0  0  0  0  0  0  0  0  0  0  0
   12.9240    2.0668   23.4204 C   0  0  0  0  0  0  0  0  0  0  0  0
   11.6785    1.5570   23.0429 C   0  0  0  0  0  0  0  0  0  0  0  0
   11.4601    0.4744   23.8650 N   0  0  0  0  0  0  0  0  0  0  0  0
   12.5550    0.3707   24.6669 C   0  0  0  0  0  0  0  0  0  0  0  0
   13.4477    1.2921   24.4435 N   0  0  0  0  0  0  0  0  0  0  0  0
   12.6536   -0.4349   25.3812 H   0  0  0  0  0  0  0  0  0  0  0  0
   10.6872   -0.1655   23.8070 H   0  0  0  0  0  0  0  0  0  0  0  0
   14.4320    3.5560   22.9967 H   0  0  0  0  0  0  0  0  0  0  0  0
   13.3123    4.2857   20.8768 H   0  0  0  0  0  0  0  0  0  0  0  0
   11.2421    3.1530   20.1065 H   0  0  0  0  0  0  0  0  0  0  0  0
    8.1846    3.8414   24.5127 C   0  0  0  0  0  0  0  0  0  0  0  0
    7.5875    4.2111   25.8150 C   0  0  0  0  0  0  0  0  0  0  0  0
    6.9042    4.5991   24.5067 C   0  0  0  0  0  0  0  0  0  0  0  0
    6.9430    5.6369   24.1772 H   0  0  0  0  0  0  0  0  0  0  0  0
    6.0117    4.0619   24.1934 H   0  0  0  0  0  0  0  0  0  0  0  0
    8.0920    4.9854   26.3890 H   0  0  0  0  0  0  0  0  0  0  0  0
    7.1540    3.4003   26.3993 H   0  0  0  0  0  0  0  0  0  0  0  0
    9.1269    1.9172   24.7860 H   0  0  0  0  0  0  0  0  0  0  0  0
  1  2  1  0
  2  3  1  0
  2  4  1  0
  4  5  1  0
  5  6  2  0
  6  7  1  0
  7  8  1  0
  8  9  1  0
  9 10  2  0
 10 11  1  0
 11 12  2  0
 12 13  1  0
 13 14  2  0
 14 15  1  0
 12 16  1  0
 11 17  1  0
 10 18  1  0
  8 19  1  0
  8 20  1  0
  7 21  2  0
 21 22  1  0
 22 23  1  0
 23 24  2  0
 24 25  1  0
 25 26  2  0
 26 27  1  0
 27 28  2  0
 28 29  1  0
 29 30  1  0
 30 31  2  0
 30 32  1  0
 29 33  1  0
 26 34  1  0
 25 35  1  0
 24 36  1  0
  4 37  1  0
 37 38  1  0
 38 39  1  0
 39 40  1  0
 39 41  1  0
 38 42  1  0
 38 43  1  0
  4 44  1  0
 37  2  1  0
 22  5  1  0
 28 23  1  0
 39 37  1  0
 14  9  1  0
 31 27  1  0
M  END
>  <cnnaffinity>  (1) 
-6.26831

>  <filename>  (1) 
FC1(F)C(c2nc(Cc3cccnc3)nn2-c2cccc3nc[nH]c23)C12CC2

$$$$
