
     RDKit          3D

 27 29  0  0  0  0  0  0  0  0999 V2000
    4.9172    1.7771   17.0012 H   0  0  0  0  0  0  0  0  0  0  0  0
    5.4050    1.2896   17.8418 C   0  0  0  0  0  0  0  0  0  0  0  0
    6.5681    0.6773   17.5784 N   0  0  0  0  0  0  0  0  0  0  0  0
    7.1802    0.0585   18.5904 C   0  0  0  0  0  0  0  0  0  0  0  0
    8.1255   -0.4299   18.3693 H   0  0  0  0  0  0  0  0  0  0  0  0
    6.6673    0.0041   19.8939 C   0  0  0  0  0  0  0  0  0  0  0  0
    7.4072   -0.7103   20.9405 C   0  0  0  0  0  0  0  0  0  0  0  0
    8.5177   -1.4082   20.6982 N   0  0  0  0  0  0  0  0  0  0  0  0
    8.8813   -1.8955   21.8941 N   0  0  0  0  0  0  0  0  0  0  0  0
    9.6930   -2.4841   21.9529 H   0  0  0  0  0  0  0  0  0  0  0  0
    8.0391   -1.5438   22.9031 C   0  0  0  0  0  0  0  0  0  0  0  0
    8.1701   -1.9294   24.3101 C   0  0  0  0  0  0  0  0  0  0  0  0
    9.3789   -2.3863   24.8650 C   0  0  0  0  0  0  0  0  0  0  0  0
   10.2730   -2.4579   24.2523 H   0  0  0  0  0  0  0  0  0  0  0  0
    9.5014   -2.7477   26.1466 N   0  0  0  0  0  0  0  0  0  0  0  0
    8.4293   -2.6300   26.9346 C   0  0  0  0  0  0  0  0  0  0  0  0
    8.5127   -2.9277   27.9606 H   0  0  0  0  0  0  0  0  0  0  0  0
    7.1958   -2.1704   26.4753 C   0  0  0  0  0  0  0  0  0  0  0  0
    6.1636   -2.0929   27.3263 F   0  0  0  0  0  0  0  0  0  0  0  0
    7.0438   -1.8153   25.1509 C   0  0  0  0  0  0  0  0  0  0  0  0
    6.0762   -1.4775   24.7903 H   0  0  0  0  0  0  0  0  0  0  0  0
    7.0773   -0.7712   22.3045 C   0  0  0  0  0  0  0  0  0  0  0  0
    6.2508   -0.2861   22.7910 H   0  0  0  0  0  0  0  0  0  0  0  0
    5.4456    0.6498   20.1544 C   0  0  0  0  0  0  0  0  0  0  0  0
    5.0001    0.6365   21.1530 H   0  0  0  0  0  0  0  0  0  0  0  0
    4.8093    1.3074   19.1090 C   0  0  0  0  0  0  0  0  0  0  0  0
    3.8765    1.8410   19.2629 H   0  0  0  0  0  0  0  0  0  0  0  0
  1  2  1  0
  2  3  2  0
  3  4  1  0
  4  5  1  0
  4  6  2  0
  6  7  1  0
  7  8  2  0
  8  9  1  0
  9 10  1  0
  9 11  1  0
 11 12  1  0
 12 13  2  0
 13 14  1  0
 13 15  1  0
 15 16  2  0
 16 17  1  0
 16 18  1  0
 18 19  1  0
 18 20  2  0
 20 21  1  0
 11 22  2  0
 22 23  1  0
  6 24  1  0
 24 25  1  0
 24 26  2  0
 26 27  1  0
 26  2  1  0
 22  7  1  0
 20 12  1  0
M  END
>  <cnnaffinity>  (1) 
-4.9457

>  <filename>  (1) 
Fc1cncc(-c2cc(-c3cccnc3)n[nH]2)c1

$$$$
