
     RDKit          3D

 46 50  0  0  0  0  0  0  0  0999 V2000
    7.4404    4.3758   25.9782 F   0  0  0  0  0  0  0  0  0  0  0  0
    7.2308    4.7571   24.6997 C   0  0  0  0  0  0  0  0  0  0  0  0
    6.3737    5.8229   24.4587 C   0  0  0  0  0  0  0  0  0  0  0  0
    6.1668    6.2295   23.1368 C   0  0  0  0  0  0  0  0  0  0  0  0
    6.8312    5.5774   22.0915 C   0  0  0  0  0  0  0  0  0  0  0  0
    7.6943    4.5069   22.3661 C   0  0  0  0  0  0  0  0  0  0  0  0
    7.8771    4.0519   23.6802 C   0  0  0  0  0  0  0  0  0  0  0  0
    8.7040    2.8383   24.0843 C   0  0  0  0  0  0  0  0  0  0  0  0
    8.8418    1.8271   23.0431 N   0  0  0  0  0  0  0  0  0  0  0  0
    7.7801    1.0448   22.7291 N   0  0  0  0  0  0  0  0  0  0  0  0
    8.2269    0.3102   21.7328 C   0  0  0  0  0  0  0  0  0  0  0  0
    7.3547   -0.6716   20.9951 C   0  0  0  0  0  0  0  0  0  0  0  0
    6.5937   -0.0402   19.8375 C   0  0  0  0  0  0  0  0  0  0  0  0
    5.3980    0.6441   20.0736 C   0  0  0  0  0  0  0  0  0  0  0  0
    4.7884    1.3288   19.0210 C   0  0  0  0  0  0  0  0  0  0  0  0
    5.4027    1.3030   17.7657 C   0  0  0  0  0  0  0  0  0  0  0  0
    6.5372    0.6342   17.5095 N   0  0  0  0  0  0  0  0  0  0  0  0
    7.1048   -0.0248   18.5281 C   0  0  0  0  0  0  0  0  0  0  0  0
    8.0267   -0.5644   18.3009 H   0  0  0  0  0  0  0  0  0  0  0  0
    4.9656    1.8387   16.9255 H   0  0  0  0  0  0  0  0  0  0  0  0
    3.8681    1.8805   19.1643 H   0  0  0  0  0  0  0  0  0  0  0  0
    4.9788    0.6508   21.0811 H   0  0  0  0  0  0  0  0  0  0  0  0
    6.6490   -1.0902   21.7214 H   0  0  0  0  0  0  0  0  0  0  0  0
    7.9952   -1.4843   20.6389 H   0  0  0  0  0  0  0  0  0  0  0  0
    9.5185    0.5533   21.3922 N   0  0  0  0  0  0  0  0  0  0  0  0
    9.8836    1.5166   22.2279 C   0  0  0  0  0  0  0  0  0  0  0  0
   11.2265    2.1510   22.3487 C   0  0  0  0  0  0  0  0  0  0  0  0
   11.4488    3.5402   22.4413 C   0  0  0  0  0  0  0  0  0  0  0  0
   12.7490    4.0516   22.6368 C   0  0  0  0  0  0  0  0  0  0  0  0
   13.8523    3.3041   22.7743 N   0  0  0  0  0  0  0  0  0  0  0  0
   13.6237    1.9944   22.6537 C   0  0  0  0  0  0  0  0  0  0  0  0
   12.3808    1.3432   22.4026 C   0  0  0  0  0  0  0  0  0  0  0  0
   12.6713   -0.0621   22.3112 C   0  0  0  0  0  0  0  0  0  0  0  0
   14.0147   -0.2132   22.4904 C   0  0  0  0  0  0  0  0  0  0  0  0
   14.5839    1.0243   22.7122 N   0  0  0  0  0  0  0  0  0  0  0  0
   15.5552    1.2829   22.7577 H   0  0  0  0  0  0  0  0  0  0  0  0
   14.6080   -1.1238   22.5011 H   0  0  0  0  0  0  0  0  0  0  0  0
   11.9339   -0.8355   22.1237 H   0  0  0  0  0  0  0  0  0  0  0  0
   12.8918    5.1269   22.6997 H   0  0  0  0  0  0  0  0  0  0  0  0
   10.6289    4.2480   22.3762 H   0  0  0  0  0  0  0  0  0  0  0  0
    8.2354    2.3682   24.9557 H   0  0  0  0  0  0  0  0  0  0  0  0
    9.7033    3.1494   24.3968 H   0  0  0  0  0  0  0  0  0  0  0  0
    8.2110    4.0097   21.5470 H   0  0  0  0  0  0  0  0  0  0  0  0
    6.6647    5.8832   21.0621 H   0  0  0  0  0  0  0  0  0  0  0  0
    5.4816    7.0478   22.9268 H   0  0  0  0  0  0  0  0  0  0  0  0
    5.8852    6.2939   25.3047 H   0  0  0  0  0  0  0  0  0  0  0  0
  1  2  1  0
  2  3  2  0
  3  4  1  0
  4  5  2  0
  5  6  1  0
  6  7  2  0
  7  8  1  0
  8  9  1  0
  9 10  1  0
 10 11  2  0
 11 12  1  0
 12 13  1  0
 13 14  2  0
 14 15  1  0
 15 16  2  0
 16 17  1  0
 17 18  2  0
 18 19  1  0
 16 20  1  0
 15 21  1  0
 14 22  1  0
 12 23  1  0
 12 24  1  0
 11 25  1  0
 25 26  2  0
 26 27  1  0
 27 28  2  0
 28 29  1  0
 29 30  2  0
 30 31  1  0
 31 32  2  0
 32 33  1  0
 33 34  2  0
 34 35  1  0
 35 36  1  0
 34 37  1  0
 33 38  1  0
 29 39  1  0
 28 40  1  0
  8 41  1  0
  8 42  1  0
  6 43  1  0
  5 44  1  0
  4 45  1  0
  3 46  1  0
  7  2  1  0
 26  9  1  0
 32 27  1  0
 18 13  1  0
 35 31  1  0
M  END
>  <cnnaffinity>  (1) 
-6.78492

>  <filename>  (1) 
Fc1ccccc1Cn1nc(Cc2cccnc2)nc1-c1ccnc2[nH]ccc12

$$$$
