
     RDKit          3D

 44 48  0  0  0  0  0  0  0  0999 V2000
    8.9940    5.5199   27.1656 F   0  0  0  0  0  0  0  0  0  0  0  0
    8.9195    4.5494   26.2379 C   0  0  0  0  0  0  0  0  0  0  0  0
    9.4160    4.8103   24.9643 C   0  0  0  0  0  0  0  0  0  0  0  0
    9.3428    3.8108   23.9946 C   0  0  0  0  0  0  0  0  0  0  0  0
    8.7676    2.5679   24.3022 C   0  0  0  0  0  0  0  0  0  0  0  0
    8.7668    1.5446   23.3058 N   0  0  0  0  0  0  0  0  0  0  0  0
    7.6540    0.8502   22.9458 N   0  0  0  0  0  0  0  0  0  0  0  0
    8.0622    0.1810   21.8843 C   0  0  0  0  0  0  0  0  0  0  0  0
    7.2057   -0.7191   21.0407 C   0  0  0  0  0  0  0  0  0  0  0  0
    6.5741   -0.0244   19.8388 C   0  0  0  0  0  0  0  0  0  0  0  0
    5.4152    0.7377   20.0156 C   0  0  0  0  0  0  0  0  0  0  0  0
    4.8560    1.3928   18.9159 C   0  0  0  0  0  0  0  0  0  0  0  0
    5.4868    1.2723   17.6741 C   0  0  0  0  0  0  0  0  0  0  0  0
    6.6088    0.5602   17.4811 N   0  0  0  0  0  0  0  0  0  0  0  0
    7.1284   -0.0671   18.5447 C   0  0  0  0  0  0  0  0  0  0  0  0
    8.0375   -0.6415   18.3573 H   0  0  0  0  0  0  0  0  0  0  0  0
    5.0753    1.7642   16.7939 H   0  0  0  0  0  0  0  0  0  0  0  0
    3.9597    1.9968   19.0107 H   0  0  0  0  0  0  0  0  0  0  0  0
    4.9711    0.8048   21.0100 H   0  0  0  0  0  0  0  0  0  0  0  0
    7.8579   -1.5242   20.6924 H   0  0  0  0  0  0  0  0  0  0  0  0
    6.4326   -1.1739   21.6716 H   0  0  0  0  0  0  0  0  0  0  0  0
    9.3604    0.3738   21.5485 N   0  0  0  0  0  0  0  0  0  0  0  0
    9.7961    1.2029   22.4856 C   0  0  0  0  0  0  0  0  0  0  0  0
   11.2181    1.5630   22.7627 C   0  0  0  0  0  0  0  0  0  0  0  0
   11.6618    1.5077   24.2159 C   0  0  0  0  0  0  0  0  0  0  0  0
   11.2289    0.3655   25.0918 C   0  0  0  0  0  0  0  0  0  0  0  0
   12.6692    0.4985   24.6870 C   0  0  0  0  0  0  0  0  0  0  0  0
   13.0997   -0.2001   23.9764 H   0  0  0  0  0  0  0  0  0  0  0  0
   13.3714    0.7874   25.4574 H   0  0  0  0  0  0  0  0  0  0  0  0
   10.9887    0.5535   26.1357 H   0  0  0  0  0  0  0  0  0  0  0  0
   10.6194   -0.4073   24.6270 H   0  0  0  0  0  0  0  0  0  0  0  0
   11.7163    2.4969   24.6708 H   0  0  0  0  0  0  0  0  0  0  0  0
   12.2073    1.1204   21.7226 C   0  0  0  0  0  0  0  0  0  0  0  0
   11.9265    2.5768   21.8807 C   0  0  0  0  0  0  0  0  0  0  0  0
   12.6899    3.1864   22.3586 H   0  0  0  0  0  0  0  0  0  0  0  0
   11.4048    3.0832   21.0723 H   0  0  0  0  0  0  0  0  0  0  0  0
   13.1752    0.7293   22.0350 H   0  0  0  0  0  0  0  0  0  0  0  0
   11.7485    0.6196   20.8749 H   0  0  0  0  0  0  0  0  0  0  0  0
    8.2378    2.3371   25.5799 C   0  0  0  0  0  0  0  0  0  0  0  0
    8.3353    3.3291   26.5643 C   0  0  0  0  0  0  0  0  0  0  0  0
    7.9691    3.1774   27.5762 H   0  0  0  0  0  0  0  0  0  0  0  0
    7.7737    1.3777   25.7949 H   0  0  0  0  0  0  0  0  0  0  0  0
    9.7230    3.9937   22.9931 H   0  0  0  0  0  0  0  0  0  0  0  0
    9.8258    5.7904   24.7519 H   0  0  0  0  0  0  0  0  0  0  0  0
  1  2  1  0
  2  3  2  0
  3  4  1  0
  4  5  2  0
  5  6  1  0
  6  7  1  0
  7  8  2  0
  8  9  1  0
  9 10  1  0
 10 11  2  0
 11 12  1  0
 12 13  2  0
 13 14  1  0
 14 15  2  0
 15 16  1  0
 13 17  1  0
 12 18  1  0
 11 19  1  0
  9 20  1  0
  9 21  1  0
  8 22  1  0
 22 23  2  0
 23 24  1  0
 24 25  1  0
 25 26  1  0
 26 27  1  0
 27 28  1  0
 27 29  1  0
 26 30  1  0
 26 31  1  0
 25 32  1  0
 24 33  1  0
 33 34  1  0
 34 35  1  0
 34 36  1  0
 33 37  1  0
 33 38  1  0
  5 39  1  0
 39 40  2  0
 40 41  1  0
 39 42  1  0
  4 43  1  0
  3 44  1  0
 40  2  1  0
 23  6  1  0
 34 24  1  0
 15 10  1  0
 27 25  1  0
M  END
>  <cnnaffinity>  (1) 
-5.69478

>  <filename>  (1) 
Fc1ccc(-n2nc(Cc3cccnc3)nc2C2(C3CC3)CC2)cc1

$$$$
