
     RDKit          3D

 44 48  0  0  0  0  0  0  0  0999 V2000
    7.7288    3.0505   27.6685 F   0  0  0  0  0  0  0  0  0  0  0  0
    8.2808    3.3261   26.4743 C   0  0  0  0  0  0  0  0  0  0  0  0
    8.8719    4.5728   26.2778 C   0  0  0  0  0  0  0  0  0  0  0  0
    9.4629    4.8389   25.0369 C   0  0  0  0  0  0  0  0  0  0  0  0
    9.4747    3.8665   24.0321 C   0  0  0  0  0  0  0  0  0  0  0  0
    8.8542    2.6241   24.2592 C   0  0  0  0  0  0  0  0  0  0  0  0
    8.8747    1.6305   23.2371 N   0  0  0  0  0  0  0  0  0  0  0  0
    7.7833    0.9089   22.8550 N   0  0  0  0  0  0  0  0  0  0  0  0
    8.2067    0.3072   21.7591 C   0  0  0  0  0  0  0  0  0  0  0  0
    7.3788   -0.6523   20.9529 C   0  0  0  0  0  0  0  0  0  0  0  0
    6.6364   -0.0179   19.7830 C   0  0  0  0  0  0  0  0  0  0  0  0
    5.4475    0.6920   20.0115 C   0  0  0  0  0  0  0  0  0  0  0  0
    4.8344    1.3535   18.9463 C   0  0  0  0  0  0  0  0  0  0  0  0
    5.4302    1.2823   17.6846 C   0  0  0  0  0  0  0  0  0  0  0  0
    6.5515    0.5875   17.4341 N   0  0  0  0  0  0  0  0  0  0  0  0
    7.1287   -0.0403   18.4663 C   0  0  0  0  0  0  0  0  0  0  0  0
    8.0431   -0.5915   18.2368 H   0  0  0  0  0  0  0  0  0  0  0  0
    4.9926    1.8037   16.8351 H   0  0  0  0  0  0  0  0  0  0  0  0
    3.9246    1.9323   19.0804 H   0  0  0  0  0  0  0  0  0  0  0  0
    5.0148    0.7274   21.0132 H   0  0  0  0  0  0  0  0  0  0  0  0
    6.6628   -1.1074   21.6420 H   0  0  0  0  0  0  0  0  0  0  0  0
    8.0589   -1.4427   20.6131 H   0  0  0  0  0  0  0  0  0  0  0  0
    9.4866    0.5711   21.4192 N   0  0  0  0  0  0  0  0  0  0  0  0
    9.9065    1.3620   22.3987 C   0  0  0  0  0  0  0  0  0  0  0  0
   11.3318    1.7286   22.6844 C   0  0  0  0  0  0  0  0  0  0  0  0
   11.7673    1.7165   24.1373 C   0  0  0  0  0  0  0  0  0  0  0  0
   11.2852    0.5812   24.9910 C   0  0  0  0  0  0  0  0  0  0  0  0
   12.7318    0.6702   24.6135 C   0  0  0  0  0  0  0  0  0  0  0  0
   13.3922    0.9105   25.4282 H   0  0  0  0  0  0  0  0  0  0  0  0
   13.1663   -0.0143   23.8886 H   0  0  0  0  0  0  0  0  0  0  0  0
   11.0250    0.7933   26.0232 H   0  0  0  0  0  0  0  0  0  0  0  0
   10.6562   -0.1476   24.4899 H   0  0  0  0  0  0  0  0  0  0  0  0
   11.7989    2.7092   24.5925 H   0  0  0  0  0  0  0  0  0  0  0  0
   12.0346    2.6970   21.7510 C   0  0  0  0  0  0  0  0  0  0  0  0
   12.2801    1.2310   21.6333 C   0  0  0  0  0  0  0  0  0  0  0  0
   11.7761    0.7307   20.8153 H   0  0  0  0  0  0  0  0  0  0  0  0
   13.2434    0.7896   21.8879 H   0  0  0  0  0  0  0  0  0  0  0  0
   12.8560    3.2964   22.1385 H   0  0  0  0  0  0  0  0  0  0  0  0
   11.4352    3.1752   20.9760 H   0  0  0  0  0  0  0  0  0  0  0  0
    8.2339    2.3520   25.4826 C   0  0  0  0  0  0  0  0  0  0  0  0
    7.7209    1.4111   25.6584 H   0  0  0  0  0  0  0  0  0  0  0  0
    9.9668    4.0707   23.0827 H   0  0  0  0  0  0  0  0  0  0  0  0
    9.9308    5.8040   24.8561 H   0  0  0  0  0  0  0  0  0  0  0  0
    8.8822    5.2854   27.0965 H   0  0  0  0  0  0  0  0  0  0  0  0
  1  2  1  0
  2  3  2  0
  3  4  1  0
  4  5  2  0
  5  6  1  0
  6  7  1  0
  7  8  1  0
  8  9  2  0
  9 10  1  0
 10 11  1  0
 11 12  2  0
 12 13  1  0
 13 14  2  0
 14 15  1  0
 15 16  2  0
 16 17  1  0
 14 18  1  0
 13 19  1  0
 12 20  1  0
 10 21  1  0
 10 22  1  0
  9 23  1  0
 23 24  2  0
 24 25  1  0
 25 26  1  0
 26 27  1  0
 27 28  1  0
 28 29  1  0
 28 30  1  0
 27 31  1  0
 27 32  1  0
 26 33  1  0
 25 34  1  0
 34 35  1  0
 35 36  1  0
 35 37  1  0
 34 38  1  0
 34 39  1  0
  6 40  2  0
 40 41  1  0
  5 42  1  0
  4 43  1  0
  3 44  1  0
 40  2  1  0
 24  7  1  0
 35 25  1  0
 16 11  1  0
 28 26  1  0
M  END
>  <cnnaffinity>  (1) 
-6.20673

>  <filename>  (1) 
Fc1cccc(-n2nc(Cc3cccnc3)nc2C2(C3CC3)CC2)c1

$$$$
