
     RDKit          3D

 42 46  0  0  0  0  0  0  0  0999 V2000
   14.7642    3.9372   22.5984 F   0  0  0  0  0  0  0  0  0  0  0  0
   13.5681    3.3433   22.5587 C   0  0  0  0  0  0  0  0  0  0  0  0
   13.4584    1.9564   22.6420 C   0  0  0  0  0  0  0  0  0  0  0  0
   12.1994    1.3460   22.5731 C   0  0  0  0  0  0  0  0  0  0  0  0
   11.0637    2.1425   22.3860 C   0  0  0  0  0  0  0  0  0  0  0  0
    9.7642    1.5548   22.3165 N   0  0  0  0  0  0  0  0  0  0  0  0
    9.4797    0.4713   21.5400 N   0  0  0  0  0  0  0  0  0  0  0  0
    8.1720    0.3603   21.6527 C   0  0  0  0  0  0  0  0  0  0  0  0
    7.3809   -0.6849   20.9050 C   0  0  0  0  0  0  0  0  0  0  0  0
    6.5850   -0.0975   19.7398 C   0  0  0  0  0  0  0  0  0  0  0  0
    5.3664    0.5523   19.9864 C   0  0  0  0  0  0  0  0  0  0  0  0
    4.7608    1.2789   18.9576 C   0  0  0  0  0  0  0  0  0  0  0  0
    5.3806    1.3014   17.7048 C   0  0  0  0  0  0  0  0  0  0  0  0
    6.5112    0.6337   17.4266 N   0  0  0  0  0  0  0  0  0  0  0  0
    7.0864   -0.0453   18.4273 C   0  0  0  0  0  0  0  0  0  0  0  0
    8.0089   -0.5722   18.1792 H   0  0  0  0  0  0  0  0  0  0  0  0
    4.9539    1.8776   16.8851 H   0  0  0  0  0  0  0  0  0  0  0  0
    3.8476    1.8437   19.1168 H   0  0  0  0  0  0  0  0  0  0  0  0
    4.9234    0.5041   20.9837 H   0  0  0  0  0  0  0  0  0  0  0  0
    6.6872   -1.1433   21.6187 H   0  0  0  0  0  0  0  0  0  0  0  0
    8.0819   -1.4622   20.5793 H   0  0  0  0  0  0  0  0  0  0  0  0
    7.5888    1.2810   22.4600 N   0  0  0  0  0  0  0  0  0  0  0  0
    8.6073    2.0012   22.8908 C   0  0  0  0  0  0  0  0  0  0  0  0
    8.4993    3.0431   23.8925 C   0  0  0  0  0  0  0  0  0  0  0  0
    9.4391    3.2348   24.9030 C   0  0  0  0  0  0  0  0  0  0  0  0
    9.3449    4.1779   25.8593 N   0  0  0  0  0  0  0  0  0  0  0  0
    8.2890    4.9946   25.8764 C   0  0  0  0  0  0  0  0  0  0  0  0
    7.2565    4.8894   24.9224 C   0  0  0  0  0  0  0  0  0  0  0  0
    7.3740    3.8808   23.9547 C   0  0  0  0  0  0  0  0  0  0  0  0
    6.2519    3.9762   23.1960 N   0  0  0  0  0  0  0  0  0  0  0  0
    5.5139    5.0119   23.7065 C   0  0  0  0  0  0  0  0  0  0  0  0
    6.0671    5.5904   24.7314 N   0  0  0  0  0  0  0  0  0  0  0  0
    4.5646    5.3105   23.2818 H   0  0  0  0  0  0  0  0  0  0  0  0
    6.0182    3.3224   22.4690 H   0  0  0  0  0  0  0  0  0  0  0  0
    8.2656    5.7382   26.6707 H   0  0  0  0  0  0  0  0  0  0  0  0
   10.3329    2.6146   24.9682 H   0  0  0  0  0  0  0  0  0  0  0  0
   11.1812    3.5387   22.3189 C   0  0  0  0  0  0  0  0  0  0  0  0
   12.4280    4.1333   22.4205 C   0  0  0  0  0  0  0  0  0  0  0  0
   12.5255    5.4676   22.3907 F   0  0  0  0  0  0  0  0  0  0  0  0
   10.3207    4.1835   22.2252 H   0  0  0  0  0  0  0  0  0  0  0  0
   12.0881    0.2711   22.6742 H   0  0  0  0  0  0  0  0  0  0  0  0
   14.3716    1.3791   22.7383 H   0  0  0  0  0  0  0  0  0  0  0  0
  1  2  1  0
  2  3  2  0
  3  4  1  0
  4  5  2  0
  5  6  1  0
  6  7  1  0
  7  8  2  0
  8  9  1  0
  9 10  1  0
 10 11  2  0
 11 12  1  0
 12 13  2  0
 13 14  1  0
 14 15  2  0
 15 16  1  0
 13 17  1  0
 12 18  1  0
 11 19  1  0
  9 20  1  0
  9 21  1  0
  8 22  1  0
 22 23  2  0
 23 24  1  0
 24 25  2  0
 25 26  1  0
 26 27  2  0
 27 28  1  0
 28 29  2  0
 29 30  1  0
 30 31  1  0
 31 32  2  0
 31 33  1  0
 30 34  1  0
 27 35  1  0
 25 36  1  0
  5 37  1  0
 37 38  2  0
 38 39  1  0
 37 40  1  0
  4 41  1  0
  3 42  1  0
 38  2  1  0
 23  6  1  0
 29 24  1  0
 15 10  1  0
 32 28  1  0
M  END
>  <cnnaffinity>  (1) 
-5.89468

>  <filename>  (1) 
Fc1ccc(-n2nc(Cc3cccnc3)nc2-c2cncc3nc[nH]c23)cc1F

$$$$
