
     RDKit          3D

 19 20  0  0  0  0  0  0  0  0999 V2000
    4.9352    1.7857   17.0023 H   0  0  0  0  0  0  0  0  0  0  0  0
    5.4103    1.2889   17.8445 C   0  0  0  0  0  0  0  0  0  0  0  0
    6.5730    0.6724   17.5794 N   0  0  0  0  0  0  0  0  0  0  0  0
    7.1918    0.0629   18.5941 C   0  0  0  0  0  0  0  0  0  0  0  0
    8.1276   -0.4417   18.3652 H   0  0  0  0  0  0  0  0  0  0  0  0
    6.6825    0.0097   19.9048 C   0  0  0  0  0  0  0  0  0  0  0  0
    7.3997   -0.6913   20.9215 N   0  0  0  0  0  0  0  0  0  0  0  0
    8.7615   -0.4914   21.2073 C   0  0  0  0  0  0  0  0  0  0  0  0
    9.3832    0.1822   20.6446 H   0  0  0  0  0  0  0  0  0  0  0  0
    9.0301   -1.2910   22.2482 C   0  0  0  0  0  0  0  0  0  0  0  0
   10.1426   -1.5619   22.9011 F   0  0  0  0  0  0  0  0  0  0  0  0
    7.8929   -1.9585   22.5989 N   0  0  0  0  0  0  0  0  0  0  0  0
    7.7773   -2.6674   23.2973 H   0  0  0  0  0  0  0  0  0  0  0  0
    6.8900   -1.6961   21.7174 C   0  0  0  0  0  0  0  0  0  0  0  0
    5.5039   -2.6045   21.6139 S   0  0  0  0  0  0  0  0  0  0  0  0
    5.4556    0.6361   20.1721 C   0  0  0  0  0  0  0  0  0  0  0  0
    5.0180    0.6061   21.1732 H   0  0  0  0  0  0  0  0  0  0  0  0
    4.8198    1.3004   19.1146 C   0  0  0  0  0  0  0  0  0  0  0  0
    3.8828    1.8307   19.2609 H   0  0  0  0  0  0  0  0  0  0  0  0
  1  2  1  0
  2  3  2  0
  3  4  1  0
  4  5  1  0
  4  6  2  0
  6  7  1  0
  7  8  1  0
  8  9  1  0
  8 10  2  0
 10 11  1  0
 10 12  1  0
 12 13  1  0
 12 14  1  0
 14 15  2  0
  6 16  1  0
 16 17  1  0
 16 18  2  0
 18 19  1  0
 18  2  1  0
 14  7  1  0
M  END
>  <cnnaffinity>  (1) 
-4.5177

>  <filename>  (1) 
Fc1cn(-c2cccnc2)c(=S)[nH]1

$$$$
