
     RDKit          3D

 41 45  0  0  0  0  0  0  0  0999 V2000
    8.3217    4.3361   26.9023 F   0  0  0  0  0  0  0  0  0  0  0  0
    8.6711    3.9910   25.6565 C   0  0  0  0  0  0  0  0  0  0  0  0
    9.5025    4.7045   24.8374 C   0  0  0  0  0  0  0  0  0  0  0  0
    9.5977    3.9994   23.6646 N   0  0  0  0  0  0  0  0  0  0  0  0
    8.8468    2.8476   23.7500 C   0  0  0  0  0  0  0  0  0  0  0  0
    8.7126    1.8522   22.6857 C   0  0  0  0  0  0  0  0  0  0  0  0
    7.6799    1.0537   22.4878 N   0  0  0  0  0  0  0  0  0  0  0  0
    8.0514    0.3318   21.4052 C   0  0  0  0  0  0  0  0  0  0  0  0
    7.1711   -0.6910   20.7425 C   0  0  0  0  0  0  0  0  0  0  0  0
    6.3981   -0.1178   19.5580 C   0  0  0  0  0  0  0  0  0  0  0  0
    5.2448    0.6460   19.7838 C   0  0  0  0  0  0  0  0  0  0  0  0
    4.6719    1.3388   18.7160 C   0  0  0  0  0  0  0  0  0  0  0  0
    5.2765    1.2459   17.4596 C   0  0  0  0  0  0  0  0  0  0  0  0
    6.3421    0.4718   17.2042 N   0  0  0  0  0  0  0  0  0  0  0  0
    6.8708   -0.1988   18.2355 C   0  0  0  0  0  0  0  0  0  0  0  0
    7.7326   -0.8265   18.0023 H   0  0  0  0  0  0  0  0  0  0  0  0
    4.8927    1.8189   16.6189 H   0  0  0  0  0  0  0  0  0  0  0  0
    3.7935    1.9626   18.8467 H   0  0  0  0  0  0  0  0  0  0  0  0
    4.8143    0.7018   20.7862 H   0  0  0  0  0  0  0  0  0  0  0  0
    6.4850   -1.0562   21.5122 H   0  0  0  0  0  0  0  0  0  0  0  0
    7.8082   -1.5246   20.4270 H   0  0  0  0  0  0  0  0  0  0  0  0
    9.2542    0.5975   20.9386 N   0  0  0  0  0  0  0  0  0  0  0  0
    9.6902    1.5708   21.7678 N   0  0  0  0  0  0  0  0  0  0  0  0
   11.0607    1.9569   21.8393 C   0  0  0  0  0  0  0  0  0  0  0  0
   11.6414    2.8941   20.9915 C   0  0  0  0  0  0  0  0  0  0  0  0
   12.8274    3.5615   21.3606 C   0  0  0  0  0  0  0  0  0  0  0  0
   13.5221    3.1941   22.5176 C   0  0  0  0  0  0  0  0  0  0  0  0
   13.0241    2.1236   23.2841 C   0  0  0  0  0  0  0  0  0  0  0  0
   11.8175    1.5100   22.9276 C   0  0  0  0  0  0  0  0  0  0  0  0
   11.6234    0.5094   23.8515 N   0  0  0  0  0  0  0  0  0  0  0  0
   12.6890    0.5575   24.6996 C   0  0  0  0  0  0  0  0  0  0  0  0
   13.5368    1.4912   24.3996 N   0  0  0  0  0  0  0  0  0  0  0  0
   12.8071   -0.1365   25.5209 H   0  0  0  0  0  0  0  0  0  0  0  0
   10.9096   -0.1960   23.8277 H   0  0  0  0  0  0  0  0  0  0  0  0
   14.4551    3.6561   22.8178 H   0  0  0  0  0  0  0  0  0  0  0  0
   13.2582    4.2845   20.6685 H   0  0  0  0  0  0  0  0  0  0  0  0
   11.1705    3.1126   20.0442 H   0  0  0  0  0  0  0  0  0  0  0  0
    8.2463    2.8290   24.9961 C   0  0  0  0  0  0  0  0  0  0  0  0
    7.5849    2.0692   25.3878 H   0  0  0  0  0  0  0  0  0  0  0  0
   10.1907    4.2647   22.8846 H   0  0  0  0  0  0  0  0  0  0  0  0
    9.9904    5.6506   25.0169 H   0  0  0  0  0  0  0  0  0  0  0  0
  1  2  1  0
  2  3  2  0
  3  4  1  0
  4  5  1  0
  5  6  1  0
  6  7  2  0
  7  8  1  0
  8  9  1  0
  9 10  1  0
 10 11  2  0
 11 12  1  0
 12 13  2  0
 13 14  1  0
 14 15  2  0
 15 16  1  0
 13 17  1  0
 12 18  1  0
 11 19  1  0
  9 20  1  0
  9 21  1  0
  8 22  2  0
 22 23  1  0
 23 24  1  0
 24 25  2  0
 25 26  1  0
 26 27  2  0
 27 28  1  0
 28 29  2  0
 29 30  1  0
 30 31  1  0
 31 32  2  0
 31 33  1  0
 30 34  1  0
 27 35  1  0
 26 36  1  0
 25 37  1  0
  5 38  2  0
 38 39  1  0
  4 40  1  0
  3 41  1  0
 38  2  1  0
 23  6  1  0
 29 24  1  0
 15 10  1  0
 32 28  1  0
M  END
>  <cnnaffinity>  (1) 
-6.29695

>  <filename>  (1) 
Fc1c[nH]c(-c2nc(Cc3cccnc3)nn2-c2cccc3nc[nH]c23)c1

$$$$
