
     RDKit          3D

 47 51  0  0  0  0  0  0  0  0999 V2000
   14.2991    1.3193   22.7849 F   0  0  0  0  0  0  0  0  0  0  0  0
   13.0999    1.7928   23.2907 C   0  0  0  0  0  0  0  0  0  0  0  0
   12.6929    3.1427   22.6730 C   0  0  0  0  0  0  0  0  0  0  0  0
   11.1746    3.0565   22.4253 C   0  0  0  0  0  0  0  0  0  0  0  0
   10.7375    1.7902   23.1970 C   0  0  0  0  0  0  0  0  0  0  0  0
    9.4061    1.2337   22.8379 C   0  0  0  0  0  0  0  0  0  0  0  0
    9.1486    0.2371   22.0152 N   0  0  0  0  0  0  0  0  0  0  0  0
    7.7915    0.2199   21.9725 C   0  0  0  0  0  0  0  0  0  0  0  0
    7.0408   -0.7156   21.0596 C   0  0  0  0  0  0  0  0  0  0  0  0
    6.3925   -0.0502   19.8388 C   0  0  0  0  0  0  0  0  0  0  0  0
    5.2111    0.6906   19.9923 C   0  0  0  0  0  0  0  0  0  0  0  0
    4.6956    1.3864   18.8933 C   0  0  0  0  0  0  0  0  0  0  0  0
    5.3746    1.3120   17.6755 C   0  0  0  0  0  0  0  0  0  0  0  0
    6.4796    0.5744   17.4897 N   0  0  0  0  0  0  0  0  0  0  0  0
    6.9616   -0.0868   18.5508 C   0  0  0  0  0  0  0  0  0  0  0  0
    7.8656   -0.6701   18.3673 H   0  0  0  0  0  0  0  0  0  0  0  0
    5.0203    1.8724   16.8102 H   0  0  0  0  0  0  0  0  0  0  0  0
    3.8020    1.9968   18.9707 H   0  0  0  0  0  0  0  0  0  0  0  0
    4.7178    0.7338   20.9650 H   0  0  0  0  0  0  0  0  0  0  0  0
    6.2668   -1.2089   21.6593 H   0  0  0  0  0  0  0  0  0  0  0  0
    7.7565   -1.4866   20.7558 H   0  0  0  0  0  0  0  0  0  0  0  0
    7.1978    1.1033   22.7564 N   0  0  0  0  0  0  0  0  0  0  0  0
    8.2438    1.7806   23.2912 N   0  0  0  0  0  0  0  0  0  0  0  0
    8.1666    2.8477   24.2497 C   0  0  0  0  0  0  0  0  0  0  0  0
    8.0193    2.5299   25.6236 C   0  0  0  0  0  0  0  0  0  0  0  0
    8.2976    3.4740   26.5955 C   0  0  0  0  0  0  0  0  0  0  0  0
    8.7561    4.7716   26.2304 C   0  0  0  0  0  0  0  0  0  0  0  0
    9.1156    5.6753   27.2159 N   0  0  0  0  0  0  0  0  0  0  0  0
    9.5795    6.8313   26.7820 C   0  0  0  0  0  0  0  0  0  0  0  0
    9.7360    7.1384   25.3827 C   0  0  0  0  0  0  0  0  0  0  0  0
    9.3776    6.3087   24.4200 N   0  0  0  0  0  0  0  0  0  0  0  0
    8.8576    5.1026   24.8370 C   0  0  0  0  0  0  0  0  0  0  0  0
    8.4599    4.1495   23.8685 C   0  0  0  0  0  0  0  0  0  0  0  0
    8.4414    4.4929   22.8409 H   0  0  0  0  0  0  0  0  0  0  0  0
   10.1755    8.0880   25.0887 H   0  0  0  0  0  0  0  0  0  0  0  0
    9.8550    7.5770   27.5294 H   0  0  0  0  0  0  0  0  0  0  0  0
    8.2200    3.2586   27.6543 H   0  0  0  0  0  0  0  0  0  0  0  0
    7.7077    1.5231   25.8981 H   0  0  0  0  0  0  0  0  0  0  0  0
   11.9332    0.8639   22.9886 C   0  0  0  0  0  0  0  0  0  0  0  0
   11.9989    0.5571   21.9376 H   0  0  0  0  0  0  0  0  0  0  0  0
   11.9158   -0.0352   23.6051 H   0  0  0  0  0  0  0  0  0  0  0  0
   10.6944    2.0688   24.2549 H   0  0  0  0  0  0  0  0  0  0  0  0
   10.9610    2.9194   21.3606 H   0  0  0  0  0  0  0  0  0  0  0  0
   10.6434    3.9509   22.7522 H   0  0  0  0  0  0  0  0  0  0  0  0
   12.9574    3.9596   23.3482 H   0  0  0  0  0  0  0  0  0  0  0  0
   13.2345    3.2878   21.7341 H   0  0  0  0  0  0  0  0  0  0  0  0
   13.2619    1.8922   24.3703 H   0  0  0  0  0  0  0  0  0  0  0  0
  1  2  1  0
  2  3  1  0
  3  4  1  0
  4  5  1  0
  5  6  1  0
  6  7  2  0
  7  8  1  0
  8  9  1  0
  9 10  1  0
 10 11  2  0
 11 12  1  0
 12 13  2  0
 13 14  1  0
 14 15  2  0
 15 16  1  0
 13 17  1  0
 12 18  1  0
 11 19  1  0
  9 20  1  0
  9 21  1  0
  8 22  2  0
 22 23  1  0
 23 24  1  0
 24 25  2  0
 25 26  1  0
 26 27  2  0
 27 28  1  0
 28 29  2  0
 29 30  1  0
 30 31  2  0
 31 32  1  0
 32 33  2  0
 33 34  1  0
 30 35  1  0
 29 36  1  0
 26 37  1  0
 25 38  1  0
  5 39  1  0
 39 40  1  0
 39 41  1  0
  5 42  1  0
  4 43  1  0
  4 44  1  0
  3 45  1  0
  3 46  1  0
  2 47  1  0
 39  2  1  0
 23  6  1  0
 33 24  1  0
 15 10  1  0
 32 27  1  0
M  END
>  <cnnaffinity>  (1) 
-6.01156

>  <filename>  (1) 
FC1CCC(c2nc(Cc3cccnc3)nn2-c2ccc3nccnc3c2)C1

$$$$
