
     RDKit          3D

 34 37  0  0  0  0  0  0  0  0999 V2000
    4.9552    1.9777   25.5911 F   0  0  0  0  0  0  0  0  0  0  0  0
    5.7854    2.0442   24.5410 C   0  0  0  0  0  0  0  0  0  0  0  0
    6.1946    3.2941   24.0776 C   0  0  0  0  0  0  0  0  0  0  0  0
    7.0742    3.3569   22.9952 C   0  0  0  0  0  0  0  0  0  0  0  0
    7.5298    2.1816   22.3936 C   0  0  0  0  0  0  0  0  0  0  0  0
    8.6670    2.3211   21.0913 Cl  0  0  0  0  0  0  0  0  0  0  0  0
    7.0936    0.9203   22.8546 C   0  0  0  0  0  0  0  0  0  0  0  0
    7.5373   -0.3430   22.2360 C   0  0  0  0  0  0  0  0  0  0  0  0
    8.1782   -1.3018   22.8677 N   0  0  0  0  0  0  0  0  0  0  0  0
    8.3976   -2.2131   21.8897 C   0  0  0  0  0  0  0  0  0  0  0  0
    9.0866   -3.4841   22.1818 C   0  0  0  0  0  0  0  0  0  0  0  0
    8.5689   -4.3883   23.2709 C   0  0  0  0  0  0  0  0  0  0  0  0
    8.3682   -4.7911   21.8431 C   0  0  0  0  0  0  0  0  0  0  0  0
    8.8473   -5.7024   21.4843 H   0  0  0  0  0  0  0  0  0  0  0  0
    7.3904   -4.6508   21.3861 H   0  0  0  0  0  0  0  0  0  0  0  0
    7.7143   -4.0458   23.8490 H   0  0  0  0  0  0  0  0  0  0  0  0
    9.3158   -4.9444   23.8372 H   0  0  0  0  0  0  0  0  0  0  0  0
   10.1624   -3.2858   22.1612 H   0  0  0  0  0  0  0  0  0  0  0  0
    7.9714   -1.8682   20.6890 N   0  0  0  0  0  0  0  0  0  0  0  0
    7.3608   -0.6777   20.9251 N   0  0  0  0  0  0  0  0  0  0  0  0
    6.6493   -0.0027   19.9017 C   0  0  0  0  0  0  0  0  0  0  0  0
    5.4400    0.6474   20.1669 C   0  0  0  0  0  0  0  0  0  0  0  0
    4.8117    1.3058   19.1073 C   0  0  0  0  0  0  0  0  0  0  0  0
    5.4064    1.2913   17.8420 C   0  0  0  0  0  0  0  0  0  0  0  0
    6.5723    0.6716   17.5883 N   0  0  0  0  0  0  0  0  0  0  0  0
    7.1740    0.0359   18.5974 C   0  0  0  0  0  0  0  0  0  0  0  0
    8.1235   -0.4485   18.3775 H   0  0  0  0  0  0  0  0  0  0  0  0
    4.9293    1.7834   16.9970 H   0  0  0  0  0  0  0  0  0  0  0  0
    3.8816    1.8382   19.2565 H   0  0  0  0  0  0  0  0  0  0  0  0
    5.0089    0.6373   21.1692 H   0  0  0  0  0  0  0  0  0  0  0  0
    6.2212    0.8664   23.9524 C   0  0  0  0  0  0  0  0  0  0  0  0
    5.8874   -0.0903   24.3490 H   0  0  0  0  0  0  0  0  0  0  0  0
    7.4206    4.3130   22.6105 H   0  0  0  0  0  0  0  0  0  0  0  0
    5.8329    4.1890   24.5705 H   0  0  0  0  0  0  0  0  0  0  0  0
  1  2  1  0
  2  3  2  0
  3  4  1  0
  4  5  2  0
  5  6  1  0
  5  7  1  0
  7  8  1  0
  8  9  2  0
  9 10  1  0
 10 11  1  0
 11 12  1  0
 12 13  1  0
 13 14  1  0
 13 15  1  0
 12 16  1  0
 12 17  1  0
 11 18  1  0
 10 19  2  0
 19 20  1  0
 20 21  1  0
 21 22  2  0
 22 23  1  0
 23 24  2  0
 24 25  1  0
 25 26  2  0
 26 27  1  0
 24 28  1  0
 23 29  1  0
 22 30  1  0
  7 31  2  0
 31 32  1  0
  4 33  1  0
  3 34  1  0
 31  2  1  0
 20  8  1  0
 26 21  1  0
 13 11  1  0
M  END
>  <cnnaffinity>  (1) 
-5.4143

>  <filename>  (1) 
Fc1ccc(Cl)c(-c2nc(C3CC3)nn2-c2cccnc2)c1

$$$$
