
     RDKit          3D

 36 38  0  0  0  0  0  0  0  0999 V2000
   12.1092   -0.2294   25.2352 F   0  0  0  0  0  0  0  0  0  0  0  0
   11.9567    0.8117   24.4182 C   0  0  0  0  0  0  0  0  0  0  0  0
   13.0955    1.5302   24.0681 C   0  0  0  0  0  0  0  0  0  0  0  0
   12.9107    2.6874   23.3297 C   0  0  0  0  0  0  0  0  0  0  0  0
   11.6233    2.9955   22.8801 C   0  0  0  0  0  0  0  0  0  0  0  0
   10.5799    2.0958   23.1436 C   0  0  0  0  0  0  0  0  0  0  0  0
    9.2134    2.1790   22.4462 C   0  0  0  0  0  0  0  0  0  0  0  0
    9.1984    1.7630   20.9110 N   0  0  0  0  0  4  0  0  0  0  0  0
    9.7378    0.3481   20.7340 C   0  0  0  0  0  0  0  0  0  0  0  0
    8.7459   -0.5654   21.3708 C   0  0  0  0  0  0  0  0  0  0  0  0
    8.8823   -1.4083   22.4507 C   0  0  0  0  0  0  0  0  0  0  0  0
    7.6465   -1.8909   22.7116 N   0  0  0  0  0  0  0  0  0  0  0  0
    6.7123   -1.4231   21.8769 N   0  0  0  0  0  0  0  0  0  0  0  0
    7.3606   -0.6071   21.0521 C   0  0  0  0  0  0  0  0  0  0  0  0
    6.6463    0.0750   19.9590 C   0  0  0  0  0  0  0  0  0  0  0  0
    5.4075    0.7066   20.1524 C   0  0  0  0  0  0  0  0  0  0  0  0
    4.8160    1.3481   19.0643 C   0  0  0  0  0  0  0  0  0  0  0  0
    5.4590    1.3150   17.8201 C   0  0  0  0  0  0  0  0  0  0  0  0
    6.6176    0.6731   17.6108 N   0  0  0  0  0  0  0  0  0  0  0  0
    7.1748    0.0562   18.6587 C   0  0  0  0  0  0  0  0  0  0  0  0
    8.1001   -0.4777   18.4610 H   0  0  0  0  0  0  0  0  0  0  0  0
    5.0166    1.8100   16.9559 H   0  0  0  0  0  0  0  0  0  0  0  0
    3.8680    1.8657   19.1590 H   0  0  0  0  0  0  0  0  0  0  0  0
    4.9153    0.6882   21.1287 H   0  0  0  0  0  0  0  0  0  0  0  0
    7.3711   -2.5605   23.4129 H   0  0  0  0  0  0  0  0  0  0  0  0
    9.7316   -1.6323   23.0808 H   0  0  0  0  0  0  0  0  0  0  0  0
    9.8610    0.1060   19.6768 H   0  0  0  0  0  0  0  0  0  0  0  0
   10.7160    0.2613   21.2124 H   0  0  0  0  0  0  0  0  0  0  0  0
    8.2062    1.6927   20.5774 H   0  0  0  0  0  0  0  0  0  0  0  0
    9.7351    2.5117   20.4155 H   0  0  0  0  0  0  0  0  0  0  0  0
    8.7782    3.1752   22.5309 H   0  0  0  0  0  0  0  0  0  0  0  0
    8.5882    1.4558   22.9683 H   0  0  0  0  0  0  0  0  0  0  0  0
   10.7386    1.0590   23.9948 N   0  0  0  0  0  0  0  0  0  0  0  0
   11.4410    3.8918   22.3054 H   0  0  0  0  0  0  0  0  0  0  0  0
   13.7625    3.3291   23.0979 H   0  0  0  0  0  0  0  0  0  0  0  0
   14.0602    1.1514   24.3603 H   0  0  0  0  0  0  0  0  0  0  0  0
  1  2  1  0
  2  3  2  0
  3  4  1  0
  4  5  2  0
  5  6  1  0
  6  7  1  0
  7  8  1  0
  8  9  1  0
  9 10  1  0
 10 11  2  0
 11 12  1  0
 12 13  1  0
 13 14  2  0
 14 15  1  0
 15 16  2  0
 16 17  1  0
 17 18  2  0
 18 19  1  0
 19 20  2  0
 20 21  1  0
 18 22  1  0
 17 23  1  0
 16 24  1  0
 12 25  1  0
 11 26  1  0
  9 27  1  0
  9 28  1  0
  8 29  1  0
  8 30  1  0
  7 31  1  0
  7 32  1  0
  6 33  2  0
  5 34  1  0
  4 35  1  0
  3 36  1  0
 33  2  1  0
 14 10  1  0
 20 15  1  0
M  CHG  1   8   1
M  END
>  <cnnaffinity>  (1) 
-5.41501

>  <filename>  (1) 
Fc1cccc(C[NH2+]Cc2c[nH]nc2-c2cccnc2)n1

$$$$
