
     RDKit          3D

 33 35  0  0  0  0  0  0  0  0999 V2000
   11.6421    2.7799   20.2073 F   0  0  0  0  0  0  0  0  0  0  0  0
   11.2971    2.7631   21.5109 C   0  0  0  0  0  0  0  0  0  0  0  0
   10.1134    2.1269   21.8943 C   0  0  0  0  0  0  0  0  0  0  0  0
    9.7590    2.0513   23.2346 C   0  0  0  0  0  0  0  0  0  0  0  0
    8.5981    1.4244   23.6504 N   0  0  0  0  0  0  0  0  0  0  0  0
    7.5092    1.0769   22.7408 C   0  0  0  0  0  0  0  0  0  0  0  0
    7.7333   -0.3054   22.2210 C   0  0  0  0  0  0  0  0  0  0  0  0
    8.4160   -1.3157   22.8232 C   0  0  0  0  0  0  0  0  0  0  0  0
    8.5418   -2.3022   21.8685 N   0  0  0  0  0  0  0  0  0  0  0  0
    7.9683   -1.9431   20.6835 N   0  0  0  0  0  0  0  0  0  0  0  0
    7.4518   -0.7544   20.8774 C   0  0  0  0  0  0  0  0  0  0  0  0
    6.7364   -0.0165   19.8531 C   0  0  0  0  0  0  0  0  0  0  0  0
    5.5987    0.7397   20.1459 C   0  0  0  0  0  0  0  0  0  0  0  0
    4.9699    1.3893   19.0881 C   0  0  0  0  0  0  0  0  0  0  0  0
    5.4866    1.2723   17.7945 C   0  0  0  0  0  0  0  0  0  0  0  0
    6.5845    0.5442   17.5197 N   0  0  0  0  0  0  0  0  0  0  0  0
    7.1958   -0.0886   18.5355 C   0  0  0  0  0  0  0  0  0  0  0  0
    8.0967   -0.6572   18.3185 H   0  0  0  0  0  0  0  0  0  0  0  0
    4.9813    1.7883   16.9839 H   0  0  0  0  0  0  0  0  0  0  0  0
    4.0865    1.9945   19.2543 H   0  0  0  0  0  0  0  0  0  0  0  0
    5.2045    0.8111   21.1591 H   0  0  0  0  0  0  0  0  0  0  0  0
    9.0985   -3.1460   22.0030 H   0  0  0  0  0  0  0  0  0  0  0  0
    8.8480   -1.3001   23.8171 H   0  0  0  0  0  0  0  0  0  0  0  0
    6.5539    1.1625   23.2639 H   0  0  0  0  0  0  0  0  0  0  0  0
    7.4934    1.7796   21.9016 H   0  0  0  0  0  0  0  0  0  0  0  0
    8.4538    1.3051   24.6513 H   0  0  0  0  0  0  0  0  0  0  0  0
   10.5505    2.6488   24.1960 C   0  0  0  0  0  0  0  0  0  0  0  0
   11.7017    3.3546   23.8255 C   0  0  0  0  0  0  0  0  0  0  0  0
   12.0943    3.3845   22.4832 C   0  0  0  0  0  0  0  0  0  0  0  0
   13.7074    4.3045   22.0143 Br  0  0  0  0  0  0  0  0  0  0  0  0
   12.2830    3.8980   24.5637 H   0  0  0  0  0  0  0  0  0  0  0  0
   10.2235    2.5856   25.2277 H   0  0  0  0  0  0  0  0  0  0  0  0
    9.4626    1.6776   21.1652 H   0  0  0  0  0  0  0  0  0  0  0  0
  1  2  1  0
  2  3  2  0
  3  4  1  0
  4  5  1  0
  5  6  1  0
  6  7  1  0
  7  8  2  0
  8  9  1  0
  9 10  1  0
 10 11  2  0
 11 12  1  0
 12 13  2  0
 13 14  1  0
 14 15  2  0
 15 16  1  0
 16 17  2  0
 17 18  1  0
 15 19  1  0
 14 20  1  0
 13 21  1  0
  9 22  1  0
  8 23  1  0
  6 24  1  0
  6 25  1  0
  5 26  1  0
  4 27  2  0
 27 28  1  0
 28 29  2  0
 29 30  1  0
 28 31  1  0
 27 32  1  0
  3 33  1  0
 29  2  1  0
 11  7  1  0
 17 12  1  0
M  END
>  <cnnaffinity>  (1) 
-5.49137

>  <filename>  (1) 
Fc1cc(NCc2c[nH]nc2-c2cccnc2)ccc1Br

$$$$
