
     RDKit          3D

 39 43  0  0  0  0  0  0  0  0999 V2000
    6.4601   -7.0515   22.5179 F   0  0  0  0  0  0  0  0  0  0  0  0
    5.9510   -6.0310   23.2322 C   0  0  0  0  0  0  0  0  0  0  0  0
    4.6490   -6.1820   23.7499 C   0  0  0  0  0  0  0  0  0  0  0  0
    4.0790   -5.1720   24.5120 C   0  0  0  0  0  0  0  0  0  0  0  0
    4.8465   -4.0184   24.7134 C   0  0  0  0  0  0  0  0  0  0  0  0
    4.4758   -2.9306   25.4101 O   0  0  0  0  0  0  0  0  0  0  0  0
    5.4910   -1.9898   25.3270 N   0  0  0  0  0  0  0  0  0  0  0  0
    6.4348   -2.4954   24.5985 C   0  0  0  0  0  0  0  0  0  0  0  0
    7.6204   -1.6610   24.2618 C   0  0  0  0  0  0  0  0  0  0  0  0
    7.6167   -1.2628   22.8259 C   0  0  0  0  0  0  0  0  0  0  0  0
    6.6625   -0.6150   22.1886 N   0  0  0  0  0  0  0  0  0  0  0  0
    7.1128   -0.5665   20.9073 C   0  0  0  0  0  0  0  0  0  0  0  0
    6.4089    0.0984   19.8030 C   0  0  0  0  0  0  0  0  0  0  0  0
    5.2019    0.7953   19.9599 C   0  0  0  0  0  0  0  0  0  0  0  0
    4.6820    1.4633   18.8492 C   0  0  0  0  0  0  0  0  0  0  0  0
    5.3744    1.4019   17.6328 C   0  0  0  0  0  0  0  0  0  0  0  0
    6.5115    0.7134   17.4621 N   0  0  0  0  0  0  0  0  0  0  0  0
    7.0079    0.0833   18.5306 C   0  0  0  0  0  0  0  0  0  0  0  0
    7.9378   -0.4568   18.3744 H   0  0  0  0  0  0  0  0  0  0  0  0
    4.9969    1.9175   16.7515 H   0  0  0  0  0  0  0  0  0  0  0  0
    3.7648    2.0391   18.9137 H   0  0  0  0  0  0  0  0  0  0  0  0
    4.7004    0.8130   20.9316 H   0  0  0  0  0  0  0  0  0  0  0  0
    8.2806   -1.1566   20.7238 N   0  0  0  0  0  0  0  0  0  0  0  0
    8.6163   -1.5569   21.9690 N   0  0  0  0  0  0  0  0  0  0  0  0
    9.8195   -2.3042   22.1692 C   0  0  0  0  0  0  0  0  0  0  0  0
   10.6889   -2.0964   23.3693 C   0  0  0  0  0  0  0  0  0  0  0  0
   11.1417   -1.6166   22.0166 C   0  0  0  0  0  0  0  0  0  0  0  0
   11.9574   -2.1300   21.5171 H   0  0  0  0  0  0  0  0  0  0  0  0
   11.1060   -0.5459   21.8258 H   0  0  0  0  0  0  0  0  0  0  0  0
   10.4063   -1.3393   24.0961 H   0  0  0  0  0  0  0  0  0  0  0  0
   11.1552   -2.9823   23.8058 H   0  0  0  0  0  0  0  0  0  0  0  0
    9.7119   -3.3014   21.7776 H   0  0  0  0  0  0  0  0  0  0  0  0
    7.6142   -0.7560   24.8764 H   0  0  0  0  0  0  0  0  0  0  0  0
    8.5097   -2.2394   24.5003 H   0  0  0  0  0  0  0  0  0  0  0  0
    6.1237   -3.8431   24.1778 C   0  0  0  0  0  0  0  0  0  0  0  0
    6.7097   -4.8920   23.4259 C   0  0  0  0  0  0  0  0  0  0  0  0
    7.7067   -4.8713   23.0037 H   0  0  0  0  0  0  0  0  0  0  0  0
    3.0862   -5.2493   24.9415 H   0  0  0  0  0  0  0  0  0  0  0  0
    4.1168   -7.0997   23.5277 H   0  0  0  0  0  0  0  0  0  0  0  0
  1  2  1  0
  2  3  2  0
  3  4  1  0
  4  5  2  0
  5  6  1  0
  6  7  1  0
  7  8  2  0
  8  9  1  0
  9 10  1  0
 10 11  2  0
 11 12  1  0
 12 13  1  0
 13 14  2  0
 14 15  1  0
 15 16  2  0
 16 17  1  0
 17 18  2  0
 18 19  1  0
 16 20  1  0
 15 21  1  0
 14 22  1  0
 12 23  2  0
 23 24  1  0
 24 25  1  0
 25 26  1  0
 26 27  1  0
 27 28  1  0
 27 29  1  0
 26 30  1  0
 26 31  1  0
 25 32  1  0
  9 33  1  0
  9 34  1  0
  8 35  1  0
 35 36  2  0
 36 37  1  0
  4 38  1  0
  3 39  1  0
 36  2  1  0
 35  5  1  0
 24 10  1  0
 27 25  1  0
 18 13  1  0
M  END
>  <cnnaffinity>  (1) 
-6.24479

>  <filename>  (1) 
Fc1ccc2onc(Cc3nc(-c4cccnc4)nn3C3CC3)c2c1

$$$$
