
     RDKit          3D

 43 47  0  0  0  0  0  0  0  0999 V2000
   14.6927    3.9934   22.7607 F   0  0  0  0  0  0  0  0  0  0  0  0
   13.5033    3.3777   22.6707 C   0  0  0  0  0  0  0  0  0  0  0  0
   13.4068    1.9846   22.7498 C   0  0  0  0  0  0  0  0  0  0  0  0
   12.1387    1.3923   22.6332 C   0  0  0  0  0  0  0  0  0  0  0  0
   10.9991    2.1903   22.4453 C   0  0  0  0  0  0  0  0  0  0  0  0
    9.6977    1.5958   22.3559 N   0  0  0  0  0  0  0  0  0  0  0  0
    9.4543    0.5249   21.5505 N   0  0  0  0  0  0  0  0  0  0  0  0
    8.1599    0.3327   21.6941 C   0  0  0  0  0  0  0  0  0  0  0  0
    7.3980   -0.7069   20.9159 C   0  0  0  0  0  0  0  0  0  0  0  0
    6.6153   -0.0957   19.7561 C   0  0  0  0  0  0  0  0  0  0  0  0
    5.4067    0.5660   20.0145 C   0  0  0  0  0  0  0  0  0  0  0  0
    4.7883    1.2797   18.9870 C   0  0  0  0  0  0  0  0  0  0  0  0
    5.3961    1.2929   17.7280 C   0  0  0  0  0  0  0  0  0  0  0  0
    6.5274    0.6293   17.4439 N   0  0  0  0  0  0  0  0  0  0  0  0
    7.1133   -0.0436   18.4434 C   0  0  0  0  0  0  0  0  0  0  0  0
    8.0390   -0.5660   18.1948 H   0  0  0  0  0  0  0  0  0  0  0  0
    4.9564    1.8578   16.9082 H   0  0  0  0  0  0  0  0  0  0  0  0
    3.8769    1.8428   19.1553 H   0  0  0  0  0  0  0  0  0  0  0  0
    4.9922    0.5443   21.0251 H   0  0  0  0  0  0  0  0  0  0  0  0
    8.1135   -1.4646   20.5800 H   0  0  0  0  0  0  0  0  0  0  0  0
    6.6989   -1.1914   21.6074 H   0  0  0  0  0  0  0  0  0  0  0  0
    7.5483    1.1833   22.5515 N   0  0  0  0  0  0  0  0  0  0  0  0
    8.5219    1.9786   22.9502 C   0  0  0  0  0  0  0  0  0  0  0  0
    8.3865    3.0106   23.9673 C   0  0  0  0  0  0  0  0  0  0  0  0
    9.3459    3.1333   24.9754 C   0  0  0  0  0  0  0  0  0  0  0  0
    9.2920    4.0431   25.9628 N   0  0  0  0  0  0  0  0  0  0  0  0
    8.2603    4.8778   26.0172 C   0  0  0  0  0  0  0  0  0  0  0  0
    7.2217    4.8223   25.0677 C   0  0  0  0  0  0  0  0  0  0  0  0
    7.2624    3.8651   24.0280 C   0  0  0  0  0  0  0  0  0  0  0  0
    6.0768    4.0716   23.2520 C   0  0  0  0  0  0  0  0  0  0  0  0
    5.3853    5.1010   23.8162 C   0  0  0  0  0  0  0  0  0  0  0  0
    6.0696    5.5573   24.9171 N   0  0  0  0  0  0  0  0  0  0  0  0
    5.7835    6.3326   25.4982 H   0  0  0  0  0  0  0  0  0  0  0  0
    4.4568    5.5677   23.5104 H   0  0  0  0  0  0  0  0  0  0  0  0
    5.8093    3.4960   22.3782 H   0  0  0  0  0  0  0  0  0  0  0  0
    8.2528    5.5946   26.8355 H   0  0  0  0  0  0  0  0  0  0  0  0
   10.2106    2.4750   25.0076 H   0  0  0  0  0  0  0  0  0  0  0  0
   11.1352    3.5874   22.3661 C   0  0  0  0  0  0  0  0  0  0  0  0
   12.3877    4.1871   22.4972 C   0  0  0  0  0  0  0  0  0  0  0  0
   12.5286    5.2640   22.4510 H   0  0  0  0  0  0  0  0  0  0  0  0
   10.2542    4.2058   22.2410 H   0  0  0  0  0  0  0  0  0  0  0  0
   12.0222    0.3159   22.7315 H   0  0  0  0  0  0  0  0  0  0  0  0
   14.3052    1.3812   22.8663 H   0  0  0  0  0  0  0  0  0  0  0  0
  1  2  1  0
  2  3  2  0
  3  4  1  0
  4  5  2  0
  5  6  1  0
  6  7  1  0
  7  8  2  0
  8  9  1  0
  9 10  1  0
 10 11  2  0
 11 12  1  0
 12 13  2  0
 13 14  1  0
 14 15  2  0
 15 16  1  0
 13 17  1  0
 12 18  1  0
 11 19  1  0
  9 20  1  0
  9 21  1  0
  8 22  1  0
 22 23  2  0
 23 24  1  0
 24 25  2  0
 25 26  1  0
 26 27  2  0
 27 28  1  0
 28 29  2  0
 29 30  1  0
 30 31  2  0
 31 32  1  0
 32 33  1  0
 31 34  1  0
 30 35  1  0
 27 36  1  0
 25 37  1  0
  5 38  1  0
 38 39  2  0
 39 40  1  0
 38 41  1  0
  4 42  1  0
  3 43  1  0
 39  2  1  0
 23  6  1  0
 29 24  1  0
 15 10  1  0
 32 28  1  0
M  END
>  <cnnaffinity>  (1) 
-5.59978

>  <filename>  (1) 
Fc1ccc(-n2nc(Cc3cccnc3)nc2-c2cncc3[nH]ccc23)cc1

$$$$
