
     RDKit          3D

 38 41  0  0  0  0  0  0  0  0999 V2000
    7.7130    6.1713   26.6331 F   0  0  0  0  0  0  0  0  0  0  0  0
    7.8032    5.0384   25.9216 C   0  0  0  0  0  0  0  0  0  0  0  0
    6.8239    4.7582   24.9757 C   0  0  0  0  0  0  0  0  0  0  0  0
    6.9234    3.5827   24.2296 C   0  0  0  0  0  0  0  0  0  0  0  0
    7.9884    2.6917   24.4401 C   0  0  0  0  0  0  0  0  0  0  0  0
    8.1487    1.5492   23.7430 O   0  0  0  0  0  0  0  0  0  0  0  0
    7.1944    1.1581   22.7774 C   0  0  0  0  0  0  0  0  0  0  0  0
    7.5975   -0.1707   22.2408 C   0  0  0  0  0  0  0  0  0  0  0  0
    8.2117   -1.1185   22.9113 N   0  0  0  0  0  0  0  0  0  0  0  0
    8.2423   -2.1444   22.0337 C   0  0  0  0  0  0  0  0  0  0  0  0
    8.8564   -3.4393   22.3970 C   0  0  0  0  0  0  0  0  0  0  0  0
    8.3505   -4.2999   23.5321 C   0  0  0  0  0  0  0  0  0  0  0  0
    8.1338   -4.7339   22.1149 C   0  0  0  0  0  0  0  0  0  0  0  0
    8.6836   -5.5801   21.7187 H   0  0  0  0  0  0  0  0  0  0  0  0
    7.1104   -4.6572   21.7518 H   0  0  0  0  0  0  0  0  0  0  0  0
    7.4934   -3.9609   24.1080 H   0  0  0  0  0  0  0  0  0  0  0  0
    9.0984   -4.8310   24.1122 H   0  0  0  0  0  0  0  0  0  0  0  0
    9.9410   -3.3740   22.3141 H   0  0  0  0  0  0  0  0  0  0  0  0
    7.7338   -1.8793   20.8425 N   0  0  0  0  0  0  0  0  0  0  0  0
    7.2799   -0.6101   20.9884 N   0  0  0  0  0  0  0  0  0  0  0  0
    6.6035    0.0530   19.9278 C   0  0  0  0  0  0  0  0  0  0  0  0
    5.3991    0.7435   20.1276 C   0  0  0  0  0  0  0  0  0  0  0  0
    4.8151    1.3691   19.0222 C   0  0  0  0  0  0  0  0  0  0  0  0
    5.4646    1.3070   17.7864 C   0  0  0  0  0  0  0  0  0  0  0  0
    6.6113    0.6301   17.5884 N   0  0  0  0  0  0  0  0  0  0  0  0
    7.1513    0.0003   18.6352 C   0  0  0  0  0  0  0  0  0  0  0  0
    8.0563   -0.5814   18.4573 H   0  0  0  0  0  0  0  0  0  0  0  0
    5.0465    1.8012   16.9143 H   0  0  0  0  0  0  0  0  0  0  0  0
    3.8742    1.9037   19.1083 H   0  0  0  0  0  0  0  0  0  0  0  0
    4.9160    0.7818   21.1052 H   0  0  0  0  0  0  0  0  0  0  0  0
    7.1423    1.9003   21.9693 H   0  0  0  0  0  0  0  0  0  0  0  0
    6.2046    1.0533   23.2475 H   0  0  0  0  0  0  0  0  0  0  0  0
    8.9569    2.9878   25.4311 C   0  0  0  0  0  0  0  0  0  0  0  0
   10.2353    1.8524   25.7586 Cl  0  0  0  0  0  0  0  0  0  0  0  0
    8.8760    4.1757   26.1591 C   0  0  0  0  0  0  0  0  0  0  0  0
    9.6271    4.4383   26.8979 H   0  0  0  0  0  0  0  0  0  0  0  0
    6.1707    3.3469   23.4832 H   0  0  0  0  0  0  0  0  0  0  0  0
    5.9957    5.4392   24.8148 H   0  0  0  0  0  0  0  0  0  0  0  0
  1  2  1  0
  2  3  2  0
  3  4  1  0
  4  5  2  0
  5  6  1  0
  6  7  1  0
  7  8  1  0
  8  9  2  0
  9 10  1  0
 10 11  1  0
 11 12  1  0
 12 13  1  0
 13 14  1  0
 13 15  1  0
 12 16  1  0
 12 17  1  0
 11 18  1  0
 10 19  2  0
 19 20  1  0
 20 21  1  0
 21 22  2  0
 22 23  1  0
 23 24  2  0
 24 25  1  0
 25 26  2  0
 26 27  1  0
 24 28  1  0
 23 29  1  0
 22 30  1  0
  7 31  1  0
  7 32  1  0
  5 33  1  0
 33 34  1  0
 33 35  2  0
 35 36  1  0
  4 37  1  0
  3 38  1  0
 35  2  1  0
 20  8  1  0
 26 21  1  0
 13 11  1  0
M  END
>  <cnnaffinity>  (1) 
-5.54709

>  <filename>  (1) 
Fc1ccc(OCc2nc(C3CC3)nn2-c2cccnc2)c(Cl)c1

$$$$
