
     RDKit          3D

 35 37  0  0  0  0  0  0  0  0999 V2000
    8.3402    1.1123   23.7294 H   0  0  0  0  0  0  0  0  0  0  0  0
    8.0438    0.9758   22.6851 C   0  0  0  0  0  0  0  0  0  0  0  0
    7.8683   -0.2809   22.2544 C   0  0  0  0  0  0  0  0  0  0  0  0
    7.3288   -0.8056   20.9772 C   0  0  0  0  0  0  0  0  0  0  0  0
    6.6300   -0.0165   19.9329 C   0  0  0  0  0  0  0  0  0  0  0  0
    7.1580   -0.0425   18.6395 C   0  0  0  0  0  0  0  0  0  0  0  0
    8.0545   -0.6222   18.4234 H   0  0  0  0  0  0  0  0  0  0  0  0
    6.6194    0.6137   17.6079 N   0  0  0  0  0  0  0  0  0  0  0  0
    5.4903    1.3041   17.8348 C   0  0  0  0  0  0  0  0  0  0  0  0
    5.0738    1.8273   16.9764 H   0  0  0  0  0  0  0  0  0  0  0  0
    4.8506    1.3501   19.0773 C   0  0  0  0  0  0  0  0  0  0  0  0
    3.9269    1.9061   19.1905 H   0  0  0  0  0  0  0  0  0  0  0  0
    5.4303    0.6725   20.1528 C   0  0  0  0  0  0  0  0  0  0  0  0
    4.9576    0.6641   21.1359 H   0  0  0  0  0  0  0  0  0  0  0  0
    7.4875   -2.0683   20.8120 N   0  0  0  0  0  0  0  0  0  0  0  0
    8.0919   -2.6507   22.0124 C   0  0  0  0  0  0  0  0  0  0  0  0
    9.0303   -3.1291   21.7166 H   0  0  0  0  0  0  0  0  0  0  0  0
    7.4263   -3.4306   22.3961 H   0  0  0  0  0  0  0  0  0  0  0  0
    8.3084   -1.5108   23.0357 C   0  0  0  0  0  0  0  0  0  0  0  0
    9.3549   -1.4247   23.3506 H   0  0  0  0  0  0  0  0  0  0  0  0
    7.6966   -1.6437   23.9355 H   0  0  0  0  0  0  0  0  0  0  0  0
    7.9028    2.2419   21.8663 C   0  0  0  0  0  0  0  0  0  0  0  0
    6.8358    2.4692   21.7537 H   0  0  0  0  0  0  0  0  0  0  0  0
    8.2574    2.0520   20.8436 H   0  0  0  0  0  0  0  0  0  0  0  0
    8.6023    3.4518   22.4938 C   0  0  0  0  0  0  0  0  0  0  0  0
   10.0028    3.5727   22.4845 C   0  0  0  0  0  0  0  0  0  0  0  0
   10.5890    2.7847   22.0216 H   0  0  0  0  0  0  0  0  0  0  0  0
   10.6345    4.7068   23.0226 C   0  0  0  0  0  0  0  0  0  0  0  0
   11.7170    4.7990   22.9778 H   0  0  0  0  0  0  0  0  0  0  0  0
    9.8795    5.7441   23.5851 C   0  0  0  0  0  0  0  0  0  0  0  0
   10.3250    6.6611   23.9575 H   0  0  0  0  0  0  0  0  0  0  0  0
    8.4974    5.5844   23.6474 C   0  0  0  0  0  0  0  0  0  0  0  0
    7.7555    6.5360   24.2449 F   0  0  0  0  0  0  0  0  0  0  0  0
    7.8597    4.4517   23.1399 C   0  0  0  0  0  0  0  0  0  0  0  0
    6.7843    4.3708   23.2561 H   0  0  0  0  0  0  0  0  0  0  0  0
  1  2  1  0
  2  3  2  3
  3  4  1  0
  4  5  1  0
  5  6  2  0
  6  7  1  0
  6  8  1  0
  8  9  2  0
  9 10  1  0
  9 11  1  0
 11 12  1  0
 11 13  2  0
 13 14  1  0
  4 15  2  0
 15 16  1  0
 16 17  1  0
 16 18  1  0
 16 19  1  0
 19 20  1  0
 19 21  1  0
  2 22  1  0
 22 23  1  0
 22 24  1  0
 22 25  1  0
 25 26  2  0
 26 27  1  0
 26 28  1  0
 28 29  1  0
 28 30  2  0
 30 31  1  0
 30 32  1  0
 32 33  1  0
 32 34  2  0
 34 35  1  0
 19  3  1  0
 34 25  1  0
 13  5  1  0
M  END
>  <cnnaffinity>  (1) 
-5.44588

>  <filename>  (1) 
Fc1cccc(CC=C2CCN=C2c2cccnc2)c1

$$$$
