
     RDKit          3D

 37 40  0  0  0  0  0  0  0  0999 V2000
    7.6727   -6.8439   26.0715 F   0  0  0  0  0  0  0  0  0  0  0  0
    7.7171   -5.5723   25.6791 C   0  0  0  0  0  0  0  0  0  0  0  0
    7.7267   -5.2800   24.2888 C   0  0  0  0  0  0  0  0  0  0  0  0
    7.7644   -4.0449   23.8224 N   0  0  0  0  0  0  0  0  0  0  0  0
    7.7811   -3.0318   24.7479 C   0  0  0  0  0  0  0  0  0  0  0  0
    7.7833   -1.6757   24.3121 C   0  0  0  0  0  0  0  0  0  0  0  0
    7.7515   -1.4020   22.8591 C   0  0  0  0  0  0  0  0  0  0  0  0
    6.8209   -0.7473   22.2014 N   0  0  0  0  0  0  0  0  0  0  0  0
    7.2926   -0.7049   20.9333 C   0  0  0  0  0  0  0  0  0  0  0  0
    6.5994   -0.0125   19.8534 C   0  0  0  0  0  0  0  0  0  0  0  0
    5.3987    0.6692   20.0873 C   0  0  0  0  0  0  0  0  0  0  0  0
    4.8049    1.3334   19.0186 C   0  0  0  0  0  0  0  0  0  0  0  0
    5.4367    1.3113   17.7699 C   0  0  0  0  0  0  0  0  0  0  0  0
    6.5981    0.6766   17.5447 N   0  0  0  0  0  0  0  0  0  0  0  0
    7.1635    0.0332   18.5705 C   0  0  0  0  0  0  0  0  0  0  0  0
    8.1129   -0.4577   18.3635 H   0  0  0  0  0  0  0  0  0  0  0  0
    4.9971    1.8145   16.9114 H   0  0  0  0  0  0  0  0  0  0  0  0
    3.8714    1.8716   19.1368 H   0  0  0  0  0  0  0  0  0  0  0  0
    4.9692    0.6863   21.0908 H   0  0  0  0  0  0  0  0  0  0  0  0
    8.4629   -1.2844   20.7691 N   0  0  0  0  0  0  0  0  0  0  0  0
    8.7643   -1.7374   22.0034 N   0  0  0  0  0  0  0  0  0  0  0  0
   10.0843   -2.3290   22.1172 C   0  0  0  0  0  0  0  0  0  0  0  0
   11.2054   -1.3142   22.3122 C   0  0  0  0  0  0  0  0  0  0  0  0
   12.3839   -1.9550   22.1860 F   0  0  0  0  0  0  0  0  0  0  0  0
   11.2068   -0.3221   21.4147 F   0  0  0  0  0  0  0  0  0  0  0  0
   11.1574   -0.7562   23.5314 F   0  0  0  0  0  0  0  0  0  0  0  0
   10.2653   -2.7868   21.1481 H   0  0  0  0  0  0  0  0  0  0  0  0
   10.1039   -3.0759   22.9147 H   0  0  0  0  0  0  0  0  0  0  0  0
    7.8284   -0.6848   25.2915 C   0  0  0  0  0  0  0  0  0  0  0  0
    7.8880   -1.0186   26.6677 C   0  0  0  0  0  0  0  0  0  0  0  0
    7.8633   -2.2594   27.1204 N   0  0  0  0  0  0  0  0  0  0  0  0
    7.8011   -3.2485   26.1873 C   0  0  0  0  0  0  0  0  0  0  0  0
    7.7539   -4.5942   26.6300 C   0  0  0  0  0  0  0  0  0  0  0  0
    7.7517   -4.8171   27.6921 H   0  0  0  0  0  0  0  0  0  0  0  0
    7.9514   -0.2260   27.4132 H   0  0  0  0  0  0  0  0  0  0  0  0
    7.8173    0.3633   25.0172 H   0  0  0  0  0  0  0  0  0  0  0  0
    7.7117   -6.1069   23.5860 H   0  0  0  0  0  0  0  0  0  0  0  0
  1  2  1  0
  2  3  2  0
  3  4  1  0
  4  5  2  0
  5  6  1  0
  6  7  1  0
  7  8  2  0
  8  9  1  0
  9 10  1  0
 10 11  2  0
 11 12  1  0
 12 13  2  0
 13 14  1  0
 14 15  2  0
 15 16  1  0
 13 17  1  0
 12 18  1  0
 11 19  1  0
  9 20  2  0
 20 21  1  0
 21 22  1  0
 22 23  1  0
 23 24  1  0
 23 25  1  0
 23 26  1  0
 22 27  1  0
 22 28  1  0
  6 29  2  0
 29 30  1  0
 30 31  2  0
 31 32  1  0
 32 33  2  0
 33 34  1  0
 30 35  1  0
 29 36  1  0
  3 37  1  0
 33  2  1  0
 32  5  1  0
 21  7  1  0
 15 10  1  0
M  END
>  <cnnaffinity>  (1) 
-6.42851

>  <filename>  (1) 
Fc1cnc2c(-c3nc(-c4cccnc4)nn3CC(F)(F)F)ccnc2c1

$$$$
