
     RDKit          3D

 41 44  0  0  0  0  0  0  0  0999 V2000
    3.8056   -0.2075   26.6001 F   0  0  0  0  0  0  0  0  0  0  0  0
    5.1005   -0.0598   26.2780 C   0  0  0  0  0  0  0  0  0  0  0  0
    5.7503    1.1219   26.6117 C   0  0  0  0  0  0  0  0  0  0  0  0
    7.0966    1.2958   26.2604 C   0  0  0  0  0  0  0  0  0  0  0  0
    7.7611    0.2953   25.5538 C   0  0  0  0  0  0  0  0  0  0  0  0
    7.1093   -0.8955   25.2034 C   0  0  0  0  0  0  0  0  0  0  0  0
    5.7739   -1.0996   25.6021 C   0  0  0  0  0  0  0  0  0  0  0  0
    5.1095   -2.2713   25.3988 O   0  0  0  0  0  0  0  0  0  0  0  0
    5.6082   -3.1269   24.3628 C   0  0  0  0  0  0  0  0  0  0  0  0
    7.1194   -3.2988   24.4886 C   0  0  0  0  0  0  0  0  0  0  0  0
    7.7899   -1.9116   24.2896 C   0  0  0  0  0  0  0  0  0  0  0  0
    7.7749   -1.4366   22.8412 C   0  0  0  0  0  0  0  0  0  0  0  0
    6.8399   -0.7432   22.2147 N   0  0  0  0  0  0  0  0  0  0  0  0
    7.2969   -0.6596   20.9408 C   0  0  0  0  0  0  0  0  0  0  0  0
    6.5931    0.0285   19.8723 C   0  0  0  0  0  0  0  0  0  0  0  0
    5.3809    0.6932   20.0960 C   0  0  0  0  0  0  0  0  0  0  0  0
    4.7880    1.3383   19.0169 C   0  0  0  0  0  0  0  0  0  0  0  0
    5.4281    1.3076   17.7709 C   0  0  0  0  0  0  0  0  0  0  0  0
    6.5899    0.6687   17.5508 N   0  0  0  0  0  0  0  0  0  0  0  0
    7.1544    0.0476   18.5869 C   0  0  0  0  0  0  0  0  0  0  0  0
    8.0995   -0.4601   18.3977 H   0  0  0  0  0  0  0  0  0  0  0  0
    5.0025    1.8135   16.9093 H   0  0  0  0  0  0  0  0  0  0  0  0
    3.8528    1.8764   19.1225 H   0  0  0  0  0  0  0  0  0  0  0  0
    4.9382    0.7027   21.0948 H   0  0  0  0  0  0  0  0  0  0  0  0
    8.4500   -1.2565   20.7398 N   0  0  0  0  0  0  0  0  0  0  0  0
    8.7578   -1.7547   21.9530 N   0  0  0  0  0  0  0  0  0  0  0  0
   10.0320   -2.4309   22.0218 C   0  0  0  0  0  0  0  0  0  0  0  0
   11.2183   -1.5195   22.2911 C   0  0  0  0  0  0  0  0  0  0  0  0
   11.4125   -0.5608   21.3795 F   0  0  0  0  0  0  0  0  0  0  0  0
   11.0904   -0.9093   23.4857 F   0  0  0  0  0  0  0  0  0  0  0  0
   12.3353   -2.2688   22.3251 F   0  0  0  0  0  0  0  0  0  0  0  0
   10.1791   -2.8487   21.0268 H   0  0  0  0  0  0  0  0  0  0  0  0
   10.0316   -3.2164   22.7810 H   0  0  0  0  0  0  0  0  0  0  0  0
    8.8504   -1.9653   24.5691 H   0  0  0  0  0  0  0  0  0  0  0  0
    7.4853   -4.0343   23.7654 H   0  0  0  0  0  0  0  0  0  0  0  0
    7.3655   -3.6648   25.4938 H   0  0  0  0  0  0  0  0  0  0  0  0
    5.0566   -4.0639   24.4724 H   0  0  0  0  0  0  0  0  0  0  0  0
    5.3714   -2.6823   23.3851 H   0  0  0  0  0  0  0  0  0  0  0  0
    8.7933    0.4333   25.2395 H   0  0  0  0  0  0  0  0  0  0  0  0
    7.6146    2.2159   26.5162 H   0  0  0  0  0  0  0  0  0  0  0  0
    5.1951    1.8854   27.1448 H   0  0  0  0  0  0  0  0  0  0  0  0
  1  2  1  0
  2  3  2  0
  3  4  1  0
  4  5  2  0
  5  6  1  0
  6  7  2  0
  7  8  1  0
  8  9  1  0
  9 10  1  0
 10 11  1  0
 11 12  1  0
 12 13  2  0
 13 14  1  0
 14 15  1  0
 15 16  2  0
 16 17  1  0
 17 18  2  0
 18 19  1  0
 19 20  2  0
 20 21  1  0
 18 22  1  0
 17 23  1  0
 16 24  1  0
 14 25  2  0
 25 26  1  0
 26 27  1  0
 27 28  1  0
 28 29  1  0
 28 30  1  0
 28 31  1  0
 27 32  1  0
 27 33  1  0
 11 34  1  0
 10 35  1  0
 10 36  1  0
  9 37  1  0
  9 38  1  0
  5 39  1  0
  4 40  1  0
  3 41  1  0
  7  2  1  0
 26 12  1  0
 11  6  1  0
 20 15  1  0
M  END
>  <cnnaffinity>  (1) 
-6.30125

>  <filename>  (1) 
Fc1cccc2c1OCCC2c1nc(-c2cccnc2)nn1CC(F)(F)F

$$$$
