
     RDKit          3D

 48 52  0  0  0  0  0  0  0  0999 V2000
    9.1195    5.5778   27.0898 F   0  0  0  0  0  0  0  0  0  0  0  0
    9.0911    4.7101   26.0620 C   0  0  0  0  0  0  0  0  0  0  0  0
    9.4996    5.1145   24.8041 C   0  0  0  0  0  0  0  0  0  0  0  0
    9.4197    4.2202   23.7167 C   0  0  0  0  0  0  0  0  0  0  0  0
    8.9722    2.8981   23.8871 C   0  0  0  0  0  0  0  0  0  0  0  0
    8.8519    1.9380   22.7784 C   0  0  0  0  0  0  0  0  0  0  0  0
    7.9024    1.0212   22.6163 N   0  0  0  0  0  0  0  0  0  0  0  0
    8.2672    0.3990   21.4738 C   0  0  0  0  0  0  0  0  0  0  0  0
    7.4565   -0.6904   20.8340 C   0  0  0  0  0  0  0  0  0  0  0  0
    6.6136   -0.1212   19.6984 C   0  0  0  0  0  0  0  0  0  0  0  0
    5.4360    0.5796   19.9894 C   0  0  0  0  0  0  0  0  0  0  0  0
    4.8048    1.2966   18.9709 C   0  0  0  0  0  0  0  0  0  0  0  0
    5.3734    1.2860   17.6936 C   0  0  0  0  0  0  0  0  0  0  0  0
    6.4825    0.5987   17.3830 N   0  0  0  0  0  0  0  0  0  0  0  0
    7.0786   -0.0793   18.3713 C   0  0  0  0  0  0  0  0  0  0  0  0
    7.9979   -0.5993   18.0979 H   0  0  0  0  0  0  0  0  0  0  0  0
    4.9269    1.8605   16.8847 H   0  0  0  0  0  0  0  0  0  0  0  0
    3.9157    1.8891   19.1573 H   0  0  0  0  0  0  0  0  0  0  0  0
    5.0456    0.5837   21.0101 H   0  0  0  0  0  0  0  0  0  0  0  0
    6.8390   -1.1302   21.6244 H   0  0  0  0  0  0  0  0  0  0  0  0
    8.1431   -1.4651   20.4751 H   0  0  0  0  0  0  0  0  0  0  0  0
    9.3820    0.8436   20.9329 N   0  0  0  0  0  0  0  0  0  0  0  0
    9.7453    1.8507   21.7637 N   0  0  0  0  0  0  0  0  0  0  0  0
   11.0994    2.3862   21.6956 C   0  0  0  0  0  0  0  0  0  0  0  0
   11.9446    1.8891   22.8671 C   0  0  0  0  0  0  0  0  0  0  0  0
   12.2252    0.3868   22.8128 C   0  0  0  0  0  0  0  0  0  0  0  0
   13.5440    0.2945   23.5617 C   0  0  0  0  0  0  0  0  0  0  0  0
   14.2523    1.4628   23.1867 O   0  0  0  0  0  0  0  0  0  0  0  0
   13.3336    2.5265   22.9849 C   0  0  0  0  0  0  0  0  0  0  0  0
   13.3348    3.2463   23.8176 H   0  0  0  0  0  0  0  0  0  0  0  0
   13.6485    3.0762   22.0909 H   0  0  0  0  0  0  0  0  0  0  0  0
   13.3777    0.2755   24.6512 H   0  0  0  0  0  0  0  0  0  0  0  0
   14.1495   -0.5738   23.2753 H   0  0  0  0  0  0  0  0  0  0  0  0
   12.3669    0.0406   21.7854 H   0  0  0  0  0  0  0  0  0  0  0  0
   11.4210   -0.2076   23.2524 H   0  0  0  0  0  0  0  0  0  0  0  0
   11.4135    2.0981   23.8065 H   0  0  0  0  0  0  0  0  0  0  0  0
   11.5083    2.0620   20.7353 H   0  0  0  0  0  0  0  0  0  0  0  0
   11.0719    3.4742   21.6968 H   0  0  0  0  0  0  0  0  0  0  0  0
    8.6105    2.4645   25.1924 C   0  0  0  0  0  0  0  0  0  0  0  0
    8.6301    3.3969   26.2550 C   0  0  0  0  0  0  0  0  0  0  0  0
    8.1758    2.7600   27.3803 N   0  0  0  0  0  0  0  0  0  0  0  0
    7.9403    1.4351   27.0938 C   0  0  0  0  0  0  0  0  0  0  0  0
    8.1896    1.2099   25.7708 C   0  0  0  0  0  0  0  0  0  0  0  0
    8.0839    0.2783   25.2326 H   0  0  0  0  0  0  0  0  0  0  0  0
    7.6398    0.7533   27.8791 H   0  0  0  0  0  0  0  0  0  0  0  0
    8.1087    3.1879   28.2899 H   0  0  0  0  0  0  0  0  0  0  0  0
    9.6658    4.6054   22.7307 H   0  0  0  0  0  0  0  0  0  0  0  0
    9.8593    6.1307   24.6892 H   0  0  0  0  0  0  0  0  0  0  0  0
  1  2  1  0
  2  3  2  0
  3  4  1  0
  4  5  2  0
  5  6  1  0
  6  7  2  0
  7  8  1  0
  8  9  1  0
  9 10  1  0
 10 11  2  0
 11 12  1  0
 12 13  2  0
 13 14  1  0
 14 15  2  0
 15 16  1  0
 13 17  1  0
 12 18  1  0
 11 19  1  0
  9 20  1  0
  9 21  1  0
  8 22  2  0
 22 23  1  0
 23 24  1  0
 24 25  1  0
 25 26  1  0
 26 27  1  0
 27 28  1  0
 28 29  1  0
 29 30  1  0
 29 31  1  0
 27 32  1  0
 27 33  1  0
 26 34  1  0
 26 35  1  0
 25 36  1  0
 24 37  1  0
 24 38  1  0
  5 39  1  0
 39 40  2  0
 40 41  1  0
 41 42  1  0
 42 43  2  0
 43 44  1  0
 42 45  1  0
 41 46  1  0
  4 47  1  0
  3 48  1  0
 40  2  1  0
 23  6  1  0
 29 25  1  0
 43 39  1  0
 15 10  1  0
M  END
>  <cnnaffinity>  (1) 
-5.96673

>  <filename>  (1) 
Fc1ccc(-c2nc(Cc3cccnc3)nn2CC2CCOC2)c2cc[nH]c12

$$$$
