
     RDKit          3D

 42 46  0  0  0  0  0  0  0  0999 V2000
   14.7493    4.0533   22.7529 F   0  0  0  0  0  0  0  0  0  0  0  0
   13.5917    3.3983   22.5970 C   0  0  0  0  0  0  0  0  0  0  0  0
   12.4414    4.1415   22.4438 C   0  0  0  0  0  0  0  0  0  0  0  0
   11.2076    3.4978   22.2907 C   0  0  0  0  0  0  0  0  0  0  0  0
   11.1022    2.1005   22.2974 C   0  0  0  0  0  0  0  0  0  0  0  0
    9.8007    1.4286   22.2586 C   0  0  0  0  0  0  0  0  0  0  0  0
    9.4930    0.3786   21.5159 N   0  0  0  0  0  0  0  0  0  0  0  0
    8.1655    0.2213   21.7187 C   0  0  0  0  0  0  0  0  0  0  0  0
    7.3551   -0.7568   20.9195 C   0  0  0  0  0  0  0  0  0  0  0  0
    6.5988   -0.0890   19.7719 C   0  0  0  0  0  0  0  0  0  0  0  0
    5.4036    0.5944   20.0354 C   0  0  0  0  0  0  0  0  0  0  0  0
    4.7854    1.3073   19.0040 C   0  0  0  0  0  0  0  0  0  0  0  0
    5.3872    1.3097   17.7419 C   0  0  0  0  0  0  0  0  0  0  0  0
    6.5159    0.6421   17.4591 N   0  0  0  0  0  0  0  0  0  0  0  0
    7.0982   -0.0334   18.4588 C   0  0  0  0  0  0  0  0  0  0  0  0
    8.0187   -0.5593   18.2023 H   0  0  0  0  0  0  0  0  0  0  0  0
    4.9476    1.8728   16.9193 H   0  0  0  0  0  0  0  0  0  0  0  0
    3.8715    1.8700   19.1654 H   0  0  0  0  0  0  0  0  0  0  0  0
    4.9836    0.5765   21.0435 H   0  0  0  0  0  0  0  0  0  0  0  0
    6.6428   -1.2434   21.5934 H   0  0  0  0  0  0  0  0  0  0  0  0
    8.0502   -1.5217   20.5628 H   0  0  0  0  0  0  0  0  0  0  0  0
    7.6320    1.0618   22.5798 N   0  0  0  0  0  0  0  0  0  0  0  0
    8.6814    1.8520   22.9416 N   0  0  0  0  0  0  0  0  0  0  0  0
    8.4599    2.8685   23.9155 C   0  0  0  0  0  0  0  0  0  0  0  0
    7.2318    3.5195   23.9678 C   0  0  0  0  0  0  0  0  0  0  0  0
    7.0704    4.5353   24.9117 C   0  0  0  0  0  0  0  0  0  0  0  0
    8.0252    4.8741   25.7886 N   0  0  0  0  0  0  0  0  0  0  0  0
    9.1908    4.2277   25.7647 N   0  0  0  0  0  0  0  0  0  0  0  0
    9.4194    3.2592   24.8717 C   0  0  0  0  0  0  0  0  0  0  0  0
   10.4118    2.8146   24.9144 H   0  0  0  0  0  0  0  0  0  0  0  0
    6.1539    5.1146   24.9821 H   0  0  0  0  0  0  0  0  0  0  0  0
    6.4329    3.2229   23.2930 H   0  0  0  0  0  0  0  0  0  0  0  0
   12.2947    1.3305   22.3601 C   0  0  0  0  0  0  0  0  0  0  0  0
   13.5275    1.9912   22.5727 C   0  0  0  0  0  0  0  0  0  0  0  0
   14.5103    1.0313   22.6412 N   0  0  0  0  0  0  0  0  0  0  0  0
   13.9493   -0.2120   22.4431 C   0  0  0  0  0  0  0  0  0  0  0  0
   12.6027   -0.0766   22.2885 C   0  0  0  0  0  0  0  0  0  0  0  0
   11.8880   -0.8724   22.1230 H   0  0  0  0  0  0  0  0  0  0  0  0
   14.5676   -1.1035   22.4054 H   0  0  0  0  0  0  0  0  0  0  0  0
   15.4960    1.2341   22.6621 H   0  0  0  0  0  0  0  0  0  0  0  0
   10.3201    4.1124   22.2268 H   0  0  0  0  0  0  0  0  0  0  0  0
   12.5407    5.2178   22.4199 H   0  0  0  0  0  0  0  0  0  0  0  0
  1  2  1  0
  2  3  2  0
  3  4  1  0
  4  5  2  0
  5  6  1  0
  6  7  2  0
  7  8  1  0
  8  9  1  0
  9 10  1  0
 10 11  2  0
 11 12  1  0
 12 13  2  0
 13 14  1  0
 14 15  2  0
 15 16  1  0
 13 17  1  0
 12 18  1  0
 11 19  1  0
  9 20  1  0
  9 21  1  0
  8 22  2  0
 22 23  1  0
 23 24  1  0
 24 25  2  0
 25 26  1  0
 26 27  2  0
 27 28  1  0
 28 29  2  0
 29 30  1  0
 26 31  1  0
 25 32  1  0
  5 33  1  0
 33 34  2  0
 34 35  1  0
 35 36  1  0
 36 37  2  0
 37 38  1  0
 36 39  1  0
 35 40  1  0
  4 41  1  0
  3 42  1  0
 34  2  1  0
 23  6  1  0
 29 24  1  0
 37 33  1  0
 15 10  1  0
M  END
>  <cnnaffinity>  (1) 
-6.58404

>  <filename>  (1) 
Fc1ccc(-c2nc(Cc3cccnc3)nn2-c2ccnnc2)c2cc[nH]c12

$$$$
