
     RDKit          3D

 41 45  0  0  0  0  0  0  0  0999 V2000
   13.4295    3.2642   22.6789 F   0  0  0  0  0  0  0  0  0  0  0  0
   12.6367    2.1847   22.8007 C   0  0  0  0  0  0  0  0  0  0  0  0
   11.9780    1.6964   21.6513 C   0  0  0  0  0  0  0  0  0  0  0  0
   11.1938    0.5508   21.7356 C   0  0  0  0  0  0  0  0  0  0  0  0
   11.0924   -0.1184   22.9743 C   0  0  0  0  0  0  0  0  0  0  0  0
   10.4824   -1.3447   23.3945 C   0  0  0  0  0  0  0  0  0  0  0  0
    9.8267   -2.3112   22.4550 C   0  0  0  0  0  0  0  0  0  0  0  0
    8.5434   -1.7340   21.9500 C   0  0  0  0  0  0  0  0  0  0  0  0
    8.2816   -1.2902   20.7395 N   0  0  0  0  0  0  0  0  0  0  0  0
    7.0715   -0.6819   20.8933 C   0  0  0  0  0  0  0  0  0  0  0  0
    6.4282    0.0407   19.7998 C   0  0  0  0  0  0  0  0  0  0  0  0
    5.2325    0.7621   19.9558 C   0  0  0  0  0  0  0  0  0  0  0  0
    4.7295    1.4321   18.8452 C   0  0  0  0  0  0  0  0  0  0  0  0
    5.4266    1.3588   17.6323 C   0  0  0  0  0  0  0  0  0  0  0  0
    6.5705    0.6745   17.4770 N   0  0  0  0  0  0  0  0  0  0  0  0
    7.0589    0.0429   18.5500 C   0  0  0  0  0  0  0  0  0  0  0  0
    7.9997   -0.4876   18.4203 H   0  0  0  0  0  0  0  0  0  0  0  0
    5.0545    1.8785   16.7519 H   0  0  0  0  0  0  0  0  0  0  0  0
    3.8250    2.0263   18.9092 H   0  0  0  0  0  0  0  0  0  0  0  0
    4.7323    0.7960   20.9270 H   0  0  0  0  0  0  0  0  0  0  0  0
    6.5784   -0.7488   22.1131 N   0  0  0  0  0  0  0  0  0  0  0  0
    7.5274   -1.4377   22.7879 N   0  0  0  0  0  0  0  0  0  0  0  0
    7.4808   -1.6280   24.2182 C   0  0  0  0  0  0  0  0  0  0  0  0
    6.2855   -2.2717   24.8442 C   0  0  0  0  0  0  0  0  0  0  0  0
    7.5782   -3.0279   24.7616 C   0  0  0  0  0  0  0  0  0  0  0  0
    7.6245   -3.8337   24.0346 H   0  0  0  0  0  0  0  0  0  0  0  0
    8.1220   -3.2031   25.6863 H   0  0  0  0  0  0  0  0  0  0  0  0
    5.9756   -1.8923   25.8129 H   0  0  0  0  0  0  0  0  0  0  0  0
    5.4807   -2.5551   24.1752 H   0  0  0  0  0  0  0  0  0  0  0  0
    7.9595   -0.8163   24.7613 H   0  0  0  0  0  0  0  0  0  0  0  0
    9.6458   -3.2700   22.9506 H   0  0  0  0  0  0  0  0  0  0  0  0
   10.4717   -2.4906   21.5891 H   0  0  0  0  0  0  0  0  0  0  0  0
   10.5679   -1.3797   24.7477 C   0  0  0  0  0  0  0  0  0  0  0  0
   11.3179   -0.3029   25.1935 N   0  0  0  0  0  0  0  0  0  0  0  0
   11.6750    0.4610   24.1179 C   0  0  0  0  0  0  0  0  0  0  0  0
   12.4850    1.6001   24.0437 C   0  0  0  0  0  0  0  0  0  0  0  0
   12.9609    1.9814   24.9237 H   0  0  0  0  0  0  0  0  0  0  0  0
   11.5812   -0.0972   26.1408 H   0  0  0  0  0  0  0  0  0  0  0  0
   10.1055   -2.1008   25.4071 H   0  0  0  0  0  0  0  0  0  0  0  0
   10.6319    0.1557   20.8889 H   0  0  0  0  0  0  0  0  0  0  0  0
   12.0832    2.2507   20.7256 H   0  0  0  0  0  0  0  0  0  0  0  0
  1  2  1  0
  2  3  2  0
  3  4  1  0
  4  5  2  0
  5  6  1  0
  6  7  1  0
  7  8  1  0
  8  9  2  0
  9 10  1  0
 10 11  1  0
 11 12  2  0
 12 13  1  0
 13 14  2  0
 14 15  1  0
 15 16  2  0
 16 17  1  0
 14 18  1  0
 13 19  1  0
 12 20  1  0
 10 21  2  0
 21 22  1  0
 22 23  1  0
 23 24  1  0
 24 25  1  0
 25 26  1  0
 25 27  1  0
 24 28  1  0
 24 29  1  0
 23 30  1  0
  7 31  1  0
  7 32  1  0
  6 33  2  0
 33 34  1  0
 34 35  1  0
 35 36  2  0
 36 37  1  0
 34 38  1  0
 33 39  1  0
  4 40  1  0
  3 41  1  0
 36  2  1  0
 35  5  1  0
 22  8  1  0
 25 23  1  0
 16 11  1  0
M  END
>  <cnnaffinity>  (1) 
-5.74539

>  <filename>  (1) 
Fc1ccc2c(Cc3nc(-c4cccnc4)nn3C3CC3)c[nH]c2c1

$$$$
