
     RDKit          3D

 34 36  0  0  0  0  0  0  0  0999 V2000
   10.3130   -1.7572   23.5423 F   0  0  0  0  0  0  0  0  0  0  0  0
    9.6218   -2.8661   23.8972 C   0  0  0  0  0  0  0  0  0  0  0  0
   10.2520   -3.8468   24.6596 C   0  0  0  0  0  0  0  0  0  0  0  0
    9.5127   -4.9811   24.9810 C   0  0  0  0  0  0  0  0  0  0  0  0
   10.2548   -6.3980   25.9812 Br  0  0  0  0  0  0  0  0  0  0  0  0
    8.1838   -5.0907   24.5766 C   0  0  0  0  0  0  0  0  0  0  0  0
    7.5907   -4.1675   23.8089 N   0  0  0  0  0  0  0  0  0  0  0  0
    8.2890   -3.0714   23.4777 C   0  0  0  0  0  0  0  0  0  0  0  0
    7.6127   -2.1515   22.6709 N   0  0  0  0  0  0  0  0  0  0  0  0
    7.0362   -2.6109   21.3827 C   0  0  0  0  0  0  0  0  0  0  0  0
    7.4394   -1.6549   20.2431 C   0  0  0  0  0  0  0  0  0  0  0  0
    7.0024   -0.2748   20.5252 N   0  0  0  0  0  0  0  0  0  0  0  0
    6.4061    0.4740   19.4929 C   0  0  0  0  0  0  0  0  0  0  0  0
    5.2892    1.2648   19.7533 C   0  0  0  0  0  0  0  0  0  0  0  0
    4.7313    1.9955   18.6980 C   0  0  0  0  0  0  0  0  0  0  0  0
    5.2975    1.9239   17.4197 C   0  0  0  0  0  0  0  0  0  0  0  0
    6.3617    1.1426   17.1433 N   0  0  0  0  0  0  0  0  0  0  0  0
    6.8909    0.4350   18.1665 C   0  0  0  0  0  0  0  0  0  0  0  0
    7.7443   -0.2072   17.9681 H   0  0  0  0  0  0  0  0  0  0  0  0
    4.8566    2.5112   16.6214 H   0  0  0  0  0  0  0  0  0  0  0  0
    3.8655    2.6301   18.8547 H   0  0  0  0  0  0  0  0  0  0  0  0
    4.8702    1.2820   20.7556 H   0  0  0  0  0  0  0  0  0  0  0  0
    6.9247    0.1490   21.9429 C   0  0  0  0  0  0  0  0  0  0  0  0
    7.8936   -0.7024   22.7906 C   0  0  0  0  0  0  0  0  0  0  0  0
    8.9066   -0.5095   22.4233 H   0  0  0  0  0  0  0  0  0  0  0  0
    7.8375   -0.3880   23.8383 H   0  0  0  0  0  0  0  0  0  0  0  0
    7.2203    1.1974   22.0391 H   0  0  0  0  0  0  0  0  0  0  0  0
    5.8961    0.0407   22.3062 H   0  0  0  0  0  0  0  0  0  0  0  0
    8.5287   -1.6767   20.1147 H   0  0  0  0  0  0  0  0  0  0  0  0
    6.9630   -1.9899   19.3180 H   0  0  0  0  0  0  0  0  0  0  0  0
    5.9444   -2.6180   21.4595 H   0  0  0  0  0  0  0  0  0  0  0  0
    7.3718   -3.6239   21.1341 H   0  0  0  0  0  0  0  0  0  0  0  0
    7.6316   -5.9721   24.8919 H   0  0  0  0  0  0  0  0  0  0  0  0
   11.2807   -3.7120   24.9906 H   0  0  0  0  0  0  0  0  0  0  0  0
  1  2  1  0
  2  3  2  0
  3  4  1  0
  4  5  1  0
  4  6  2  0
  6  7  1  0
  7  8  2  0
  8  9  1  0
  9 10  1  0
 10 11  1  0
 11 12  1  0
 12 13  1  0
 13 14  2  0
 14 15  1  0
 15 16  2  0
 16 17  1  0
 17 18  2  0
 18 19  1  0
 16 20  1  0
 15 21  1  0
 14 22  1  0
 12 23  1  0
 23 24  1  0
 24 25  1  0
 24 26  1  0
 23 27  1  0
 23 28  1  0
 11 29  1  0
 11 30  1  0
 10 31  1  0
 10 32  1  0
  6 33  1  0
  3 34  1  0
  8  2  1  0
 24  9  1  0
 18 13  1  0
M  END
>  <cnnaffinity>  (1) 
-4.76874

>  <filename>  (1) 
Fc1cc(Br)cnc1N1CCN(c2cccnc2)CC1

$$$$
