
     RDKit          3D

 42 46  0  0  0  0  0  0  0  0999 V2000
    9.3054   -6.5363   24.9244 F   0  0  0  0  0  0  0  0  0  0  0  0
    8.9151   -5.7704   23.8943 C   0  0  0  0  0  0  0  0  0  0  0  0
    8.0572   -6.3056   22.9443 C   0  0  0  0  0  0  0  0  0  0  0  0
    7.6752   -5.4864   21.8906 C   0  0  0  0  0  0  0  0  0  0  0  0
    6.8496   -5.9748   20.9530 F   0  0  0  0  0  0  0  0  0  0  0  0
    8.1317   -4.1847   21.7613 C   0  0  0  0  0  0  0  0  0  0  0  0
    9.0484   -3.6902   22.6992 C   0  0  0  0  0  0  0  0  0  0  0  0
    9.6371   -2.2996   22.5148 C   0  0  0  0  0  0  0  0  0  0  0  0
    8.6151   -1.2789   22.2537 N   0  0  0  0  0  0  0  0  0  0  0  0
    8.4086   -0.8447   20.9839 N   0  0  0  0  0  0  0  0  0  0  0  0
    7.1863   -0.3487   21.0312 C   0  0  0  0  0  0  0  0  0  0  0  0
    6.5390    0.2313   19.8566 C   0  0  0  0  0  0  0  0  0  0  0  0
    5.2924    0.8712   19.9230 C   0  0  0  0  0  0  0  0  0  0  0  0
    4.7727    1.4194   18.7541 C   0  0  0  0  0  0  0  0  0  0  0  0
    5.5071    1.2989   17.5692 C   0  0  0  0  0  0  0  0  0  0  0  0
    6.6864    0.6641   17.4910 N   0  0  0  0  0  0  0  0  0  0  0  0
    7.1865    0.1442   18.6156 C   0  0  0  0  0  0  0  0  0  0  0  0
    8.1439   -0.3666   18.5194 H   0  0  0  0  0  0  0  0  0  0  0  0
    5.1294    1.7275   16.6440 H   0  0  0  0  0  0  0  0  0  0  0  0
    3.8281    1.9522   18.7507 H   0  0  0  0  0  0  0  0  0  0  0  0
    4.7600    0.9350   20.8731 H   0  0  0  0  0  0  0  0  0  0  0  0
    6.5670   -0.4869   22.2331 N   0  0  0  0  0  0  0  0  0  0  0  0
    7.4832   -1.0635   22.9772 C   0  0  0  0  0  0  0  0  0  0  0  0
    7.3891   -1.5353   24.3558 C   0  0  0  0  0  0  0  0  0  0  0  0
    6.4642   -2.4869   24.7731 C   0  0  0  0  0  0  0  0  0  0  0  0
    6.5431   -3.1435   25.9526 N   0  0  0  0  0  0  0  0  0  0  0  0
    7.5335   -2.8435   26.8072 C   0  0  0  0  0  0  0  0  0  0  0  0
    8.4603   -1.8097   26.5491 C   0  0  0  0  0  0  0  0  0  0  0  0
    8.3433   -1.1751   25.3096 C   0  0  0  0  0  0  0  0  0  0  0  0
    9.3032   -0.2163   25.2994 N   0  0  0  0  0  0  0  0  0  0  0  0
    9.9602   -0.2910   26.4996 C   0  0  0  0  0  0  0  0  0  0  0  0
    9.5043   -1.2315   27.2759 N   0  0  0  0  0  0  0  0  0  0  0  0
   10.7824    0.3730   26.7275 H   0  0  0  0  0  0  0  0  0  0  0  0
    9.3647    0.5097   24.6085 H   0  0  0  0  0  0  0  0  0  0  0  0
    7.5847   -3.4132   27.7356 H   0  0  0  0  0  0  0  0  0  0  0  0
    5.6401   -2.7765   24.1202 H   0  0  0  0  0  0  0  0  0  0  0  0
   10.3131   -2.2822   21.6592 H   0  0  0  0  0  0  0  0  0  0  0  0
   10.2080   -2.0090   23.3977 H   0  0  0  0  0  0  0  0  0  0  0  0
    9.4243   -4.4796   23.7908 C   0  0  0  0  0  0  0  0  0  0  0  0
   10.1526   -4.1539   24.5271 H   0  0  0  0  0  0  0  0  0  0  0  0
    7.7610   -3.5801   20.9415 H   0  0  0  0  0  0  0  0  0  0  0  0
    7.7115   -7.3240   22.9929 H   0  0  0  0  0  0  0  0  0  0  0  0
  1  2  1  0
  2  3  2  0
  3  4  1  0
  4  5  1  0
  4  6  2  0
  6  7  1  0
  7  8  1  0
  8  9  1  0
  9 10  1  0
 10 11  2  0
 11 12  1  0
 12 13  2  0
 13 14  1  0
 14 15  2  0
 15 16  1  0
 16 17  2  0
 17 18  1  0
 15 19  1  0
 14 20  1  0
 13 21  1  0
 11 22  1  0
 22 23  2  0
 23 24  1  0
 24 25  2  0
 25 26  1  0
 26 27  2  0
 27 28  1  0
 28 29  2  0
 29 30  1  0
 30 31  1  0
 31 32  2  0
 31 33  1  0
 30 34  1  0
 27 35  1  0
 25 36  1  0
  8 37  1  0
  8 38  1  0
  7 39  2  0
 39 40  1  0
  6 41  1  0
  3 42  1  0
 39  2  1  0
 23  9  1  0
 29 24  1  0
 17 12  1  0
 32 28  1  0
M  END
>  <cnnaffinity>  (1) 
-6.64279

>  <filename>  (1) 
Fc1cc(F)cc(Cn2nc(-c3cccnc3)nc2-c2cncc3nc[nH]c23)c1

$$$$
