
     RDKit          3D

 40 44  0  0  0  0  0  0  0  0999 V2000
    8.1666    4.6310   26.9766 F   0  0  0  0  0  0  0  0  0  0  0  0
    8.5802    4.2275   25.7792 C   0  0  0  0  0  0  0  0  0  0  0  0
    9.4782    4.8530   24.9749 C   0  0  0  0  0  0  0  0  0  0  0  0
    9.6809    4.1098   23.7689 C   0  0  0  0  0  0  0  0  0  0  0  0
    8.9367    2.9521   23.7173 C   0  0  0  0  0  0  0  0  0  0  0  0
    8.7957    1.9079   22.6999 C   0  0  0  0  0  0  0  0  0  0  0  0
    7.7409    1.1238   22.5516 N   0  0  0  0  0  0  0  0  0  0  0  0
    8.0573    0.3764   21.4740 C   0  0  0  0  0  0  0  0  0  0  0  0
    7.1461   -0.6645   20.8830 C   0  0  0  0  0  0  0  0  0  0  0  0
    6.3789   -0.1210   19.6887 C   0  0  0  0  0  0  0  0  0  0  0  0
    5.2176    0.6321   19.8898 C   0  0  0  0  0  0  0  0  0  0  0  0
    4.6775    1.3391   18.8149 C   0  0  0  0  0  0  0  0  0  0  0  0
    5.3162    1.2581   17.5736 C   0  0  0  0  0  0  0  0  0  0  0  0
    6.3929    0.4909   17.3433 N   0  0  0  0  0  0  0  0  0  0  0  0
    6.8952   -0.1847   18.3834 C   0  0  0  0  0  0  0  0  0  0  0  0
    7.7706   -0.8044   18.1800 H   0  0  0  0  0  0  0  0  0  0  0  0
    4.9537    1.8350   16.7251 H   0  0  0  0  0  0  0  0  0  0  0  0
    3.8060    1.9721   18.9353 H   0  0  0  0  0  0  0  0  0  0  0  0
    4.7704    0.6777   20.8851 H   0  0  0  0  0  0  0  0  0  0  0  0
    6.4625   -0.9929   21.6729 H   0  0  0  0  0  0  0  0  0  0  0  0
    7.7704   -1.5146   20.5911 H   0  0  0  0  0  0  0  0  0  0  0  0
    9.2444    0.6214   20.9457 N   0  0  0  0  0  0  0  0  0  0  0  0
    9.7255    1.6019   21.7463 N   0  0  0  0  0  0  0  0  0  0  0  0
   11.0856    2.0199   21.7881 C   0  0  0  0  0  0  0  0  0  0  0  0
   11.6570    2.9543   20.9273 C   0  0  0  0  0  0  0  0  0  0  0  0
   12.8158    3.6585   21.3203 C   0  0  0  0  0  0  0  0  0  0  0  0
   13.5157    3.3197   22.4823 C   0  0  0  0  0  0  0  0  0  0  0  0
   13.0510    2.2209   23.2336 C   0  0  0  0  0  0  0  0  0  0  0  0
   11.8488    1.5992   22.8814 C   0  0  0  0  0  0  0  0  0  0  0  0
   11.6321    0.6266   23.8313 N   0  0  0  0  0  0  0  0  0  0  0  0
   12.7107    0.6676   24.6652 C   0  0  0  0  0  0  0  0  0  0  0  0
   13.5614    1.5959   24.3524 N   0  0  0  0  0  0  0  0  0  0  0  0
   12.8105   -0.0030   25.5112 H   0  0  0  0  0  0  0  0  0  0  0  0
   10.9695   -0.1252   23.7389 H   0  0  0  0  0  0  0  0  0  0  0  0
   14.4253    3.8294   22.7851 H   0  0  0  0  0  0  0  0  0  0  0  0
   13.1824    4.4506   20.6747 H   0  0  0  0  0  0  0  0  0  0  0  0
   11.2145    3.1364   19.9576 H   0  0  0  0  0  0  0  0  0  0  0  0
    7.9362    2.7684   25.1312 S   0  0  0  0  0  0  0  0  0  0  0  0
   10.3315    4.4399   22.9605 H   0  0  0  0  0  0  0  0  0  0  0  0
    9.9522    5.7853   25.2592 H   0  0  0  0  0  0  0  0  0  0  0  0
  1  2  1  0
  2  3  2  0
  3  4  1  0
  4  5  2  0
  5  6  1  0
  6  7  2  0
  7  8  1  0
  8  9  1  0
  9 10  1  0
 10 11  2  0
 11 12  1  0
 12 13  2  0
 13 14  1  0
 14 15  2  0
 15 16  1  0
 13 17  1  0
 12 18  1  0
 11 19  1  0
  9 20  1  0
  9 21  1  0
  8 22  2  0
 22 23  1  0
 23 24  1  0
 24 25  2  0
 25 26  1  0
 26 27  2  0
 27 28  1  0
 28 29  2  0
 29 30  1  0
 30 31  1  0
 31 32  2  0
 31 33  1  0
 30 34  1  0
 27 35  1  0
 26 36  1  0
 25 37  1  0
  5 38  1  0
  4 39  1  0
  3 40  1  0
 38  2  1  0
 23  6  1  0
 29 24  1  0
 15 10  1  0
 32 28  1  0
M  END
>  <cnnaffinity>  (1) 
-6.33073

>  <filename>  (1) 
Fc1ccc(-c2nc(Cc3cccnc3)nn2-c2cccc3nc[nH]c23)s1

$$$$
