
     RDKit          3D

 51 55  0  0  0  0  0  0  0  0999 V2000
   12.8345    5.4262   22.6712 F   0  0  0  0  0  0  0  0  0  0  0  0
   12.6705    4.0968   22.5708 C   0  0  0  0  0  0  0  0  0  0  0  0
   11.3834    3.6059   22.2897 C   0  0  0  0  0  0  0  0  0  0  0  0
   11.1601    2.2328   22.1072 C   0  0  0  0  0  0  0  0  0  0  0  0
    9.8357    1.6439   21.8457 C   0  0  0  0  0  0  0  0  0  0  0  0
    9.4929    0.6816   20.9975 N   0  0  0  0  0  0  0  0  0  0  0  0
    8.1973    0.4406   21.3195 C   0  0  0  0  0  0  0  0  0  0  0  0
    7.3596   -0.6428   20.6998 C   0  0  0  0  0  0  0  0  0  0  0  0
    6.5249   -0.1007   19.5566 C   0  0  0  0  0  0  0  0  0  0  0  0
    5.3232    0.5688   19.8181 C   0  0  0  0  0  0  0  0  0  0  0  0
    4.7152    1.2825   18.7842 C   0  0  0  0  0  0  0  0  0  0  0  0
    5.3263    1.2878   17.5262 C   0  0  0  0  0  0  0  0  0  0  0  0
    6.4421    0.5991   17.2394 N   0  0  0  0  0  0  0  0  0  0  0  0
    7.0121   -0.0800   18.2402 C   0  0  0  0  0  0  0  0  0  0  0  0
    7.9205   -0.6309   17.9914 H   0  0  0  0  0  0  0  0  0  0  0  0
    4.9088    1.8677   16.7071 H   0  0  0  0  0  0  0  0  0  0  0  0
    3.8104    1.8581   18.9469 H   0  0  0  0  0  0  0  0  0  0  0  0
    4.8980    0.5471   20.8250 H   0  0  0  0  0  0  0  0  0  0  0  0
    6.7137   -1.0359   21.4922 H   0  0  0  0  0  0  0  0  0  0  0  0
    8.0187   -1.4520   20.3714 H   0  0  0  0  0  0  0  0  0  0  0  0
    7.7096    1.2140   22.2654 N   0  0  0  0  0  0  0  0  0  0  0  0
    8.7586    2.0113   22.5922 N   0  0  0  0  0  0  0  0  0  0  0  0
    8.7390    2.7059   23.8811 C   0  0  0  0  0  0  0  0  0  0  0  0
    9.0541    1.8134   25.0969 C   0  0  0  0  0  0  0  0  0  0  0  0
    7.8281    0.9605   25.4779 C   0  0  0  0  0  0  0  0  0  0  0  0
    8.0963    0.1238   26.7333 C   0  0  0  0  0  0  0  0  0  0  0  0
    9.3054   -0.7989   26.4969 C   0  0  0  0  0  0  0  0  0  0  0  0
   10.5584   -0.0131   26.0679 C   0  0  0  0  0  0  0  0  0  0  0  0
   10.2964    0.9228   24.8893 C   0  0  0  0  0  0  0  0  0  0  0  0
   10.1503    0.2925   24.0043 H   0  0  0  0  0  0  0  0  0  0  0  0
   11.1985    1.5142   24.6742 H   0  0  0  0  0  0  0  0  0  0  0  0
   11.3748   -0.6807   25.7780 H   0  0  0  0  0  0  0  0  0  0  0  0
   10.9584    0.5501   26.9110 H   0  0  0  0  0  0  0  0  0  0  0  0
    9.0510   -1.5021   25.6893 H   0  0  0  0  0  0  0  0  0  0  0  0
    9.5112   -1.4061   27.3870 H   0  0  0  0  0  0  0  0  0  0  0  0
    7.2059   -0.4648   26.9854 H   0  0  0  0  0  0  0  0  0  0  0  0
    8.2799    0.7809   27.5989 H   0  0  0  0  0  0  0  0  0  0  0  0
    6.9541    1.6107   25.6240 H   0  0  0  0  0  0  0  0  0  0  0  0
    7.5883    0.2934   24.6350 H   0  0  0  0  0  0  0  0  0  0  0  0
    9.2720    2.4939   25.9360 H   0  0  0  0  0  0  0  0  0  0  0  0
    7.7395    3.1392   23.9641 H   0  0  0  0  0  0  0  0  0  0  0  0
    9.4562    3.5215   23.8386 H   0  0  0  0  0  0  0  0  0  0  0  0
   12.2611    1.3660   22.3491 C   0  0  0  0  0  0  0  0  0  0  0  0
   12.3604   -0.0058   22.4405 N   0  0  0  0  0  0  0  0  0  0  0  0
   13.5571   -0.3270   22.8145 N   0  0  0  0  0  0  0  0  0  0  0  0
   14.2624    0.8087   22.9728 N   0  0  0  0  0  0  0  0  0  0  0  0
   13.5143    1.9074   22.7078 C   0  0  0  0  0  0  0  0  0  0  0  0
   13.7713    3.2912   22.7717 C   0  0  0  0  0  0  0  0  0  0  0  0
   14.7401    3.7488   22.9117 H   0  0  0  0  0  0  0  0  0  0  0  0
   15.1772    0.7719   23.3808 H   0  0  0  0  0  0  0  0  0  0  0  0
   10.5846    4.3353   22.2594 H   0  0  0  0  0  0  0  0  0  0  0  0
  1  2  1  0
  2  3  2  0
  3  4  1  0
  4  5  1  0
  5  6  2  0
  6  7  1  0
  7  8  1  0
  8  9  1  0
  9 10  2  0
 10 11  1  0
 11 12  2  0
 12 13  1  0
 13 14  2  0
 14 15  1  0
 12 16  1  0
 11 17  1  0
 10 18  1  0
  8 19  1  0
  8 20  1  0
  7 21  2  0
 21 22  1  0
 22 23  1  0
 23 24  1  0
 24 25  1  0
 25 26  1  0
 26 27  1  0
 27 28  1  0
 28 29  1  0
 29 30  1  0
 29 31  1  0
 28 32  1  0
 28 33  1  0
 27 34  1  0
 27 35  1  0
 26 36  1  0
 26 37  1  0
 25 38  1  0
 25 39  1  0
 24 40  1  0
 23 41  1  0
 23 42  1  0
  4 43  2  0
 43 44  1  0
 44 45  2  0
 45 46  1  0
 46 47  1  0
 47 48  2  0
 48 49  1  0
 46 50  1  0
  3 51  1  0
 48  2  1  0
 22  5  1  0
 29 24  1  0
 47 43  1  0
 14  9  1  0
M  END
>  <cnnaffinity>  (1) 
-6.80507

>  <filename>  (1) 
Fc1cc(-c2nc(Cc3cccnc3)nn2CC2CCCCC2)c2nn[nH]c2c1

$$$$
