
     RDKit          3D

 52 56  0  0  0  0  0  0  0  0999 V2000
    7.9437    7.3369   26.5148 F   0  0  0  0  0  0  0  0  0  0  0  0
    7.5426    7.0830   25.2038 C   0  0  0  0  0  0  0  0  0  0  0  0
    8.4331    7.8316   24.2080 C   0  0  0  0  0  0  0  0  0  0  0  0
    8.5911    6.8727   23.0379 C   0  0  0  0  0  0  0  0  0  0  0  0
    8.7151    5.5262   23.7018 N   0  0  0  0  0  4  0  0  0  0  0  0
    8.5906    4.4029   22.7389 C   0  0  0  0  0  0  0  0  0  0  0  0
    8.7487    3.0511   23.4272 C   0  0  0  0  0  0  0  0  0  0  0  0
    8.7329    1.9063   22.4771 C   0  0  0  0  0  0  0  0  0  0  0  0
    7.6954    1.1331   22.2570 N   0  0  0  0  0  0  0  0  0  0  0  0
    8.1345    0.2868   21.2861 C   0  0  0  0  0  0  0  0  0  0  0  0
    7.2276   -0.7484   20.6759 C   0  0  0  0  0  0  0  0  0  0  0  0
    6.4032   -0.1887   19.5164 C   0  0  0  0  0  0  0  0  0  0  0  0
    5.2335    0.5473   19.7592 C   0  0  0  0  0  0  0  0  0  0  0  0
    4.6715    1.2908   18.7168 C   0  0  0  0  0  0  0  0  0  0  0  0
    5.2918    1.2585   17.4641 C   0  0  0  0  0  0  0  0  0  0  0  0
    6.3517    0.4859   17.1862 N   0  0  0  0  0  0  0  0  0  0  0  0
    6.8668   -0.2338   18.1902 C   0  0  0  0  0  0  0  0  0  0  0  0
    7.7052   -0.8799   17.9298 H   0  0  0  0  0  0  0  0  0  0  0  0
    4.9238    1.8708   16.6423 H   0  0  0  0  0  0  0  0  0  0  0  0
    3.7945    1.9102   18.8665 H   0  0  0  0  0  0  0  0  0  0  0  0
    4.7854    0.5494   20.7557 H   0  0  0  0  0  0  0  0  0  0  0  0
    7.8392   -1.5998   20.3600 H   0  0  0  0  0  0  0  0  0  0  0  0
    6.5613   -1.0858   21.4765 H   0  0  0  0  0  0  0  0  0  0  0  0
    9.3841    0.4763   20.9177 N   0  0  0  0  0  0  0  0  0  0  0  0
    9.7705    1.5409   21.6686 N   0  0  0  0  0  0  0  0  0  0  0  0
   11.1360    1.9682   21.7968 C   0  0  0  0  0  0  0  0  0  0  0  0
   11.7297    3.0016   21.0711 C   0  0  0  0  0  0  0  0  0  0  0  0
   12.8583    3.6873   21.5881 C   0  0  0  0  0  0  0  0  0  0  0  0
   13.4981    3.2506   22.7516 C   0  0  0  0  0  0  0  0  0  0  0  0
   13.0223    2.0771   23.3740 C   0  0  0  0  0  0  0  0  0  0  0  0
   11.8716    1.4580   22.8751 C   0  0  0  0  0  0  0  0  0  0  0  0
   11.6677    0.3515   23.6600 N   0  0  0  0  0  0  0  0  0  0  0  0
   12.6851    0.3359   24.5691 C   0  0  0  0  0  0  0  0  0  0  0  0
   13.5019    1.3408   24.4465 N   0  0  0  0  0  0  0  0  0  0  0  0
   12.7373   -0.4259   25.3332 H   0  0  0  0  0  0  0  0  0  0  0  0
   11.0457   -0.4017   23.4254 H   0  0  0  0  0  0  0  0  0  0  0  0
   14.3686    3.7563   23.1532 H   0  0  0  0  0  0  0  0  0  0  0  0
   13.2297    4.5669   21.0658 H   0  0  0  0  0  0  0  0  0  0  0  0
   11.3348    3.2710   20.0981 H   0  0  0  0  0  0  0  0  0  0  0  0
    9.6595    3.0367   24.0335 H   0  0  0  0  0  0  0  0  0  0  0  0
    7.8969    2.8930   24.0896 H   0  0  0  0  0  0  0  0  0  0  0  0
    9.3393    4.5270   21.9475 H   0  0  0  0  0  0  0  0  0  0  0  0
    7.6041    4.4567   22.2532 H   0  0  0  0  0  0  0  0  0  0  0  0
    7.7052    5.5943   24.8486 C   0  0  0  0  0  0  0  0  0  0  0  0
    6.7512    5.1777   24.5160 H   0  0  0  0  0  0  0  0  0  0  0  0
    8.0464    5.0396   25.7230 H   0  0  0  0  0  0  0  0  0  0  0  0
    9.6767    5.4501   24.1179 H   0  0  0  0  0  0  0  0  0  0  0  0
    7.6962    6.8656   22.3972 H   0  0  0  0  0  0  0  0  0  0  0  0
    9.4532    7.0802   22.3956 H   0  0  0  0  0  0  0  0  0  0  0  0
    9.4075    7.9909   24.6817 H   0  0  0  0  0  0  0  0  0  0  0  0
    8.0319    8.8072   23.9206 H   0  0  0  0  0  0  0  0  0  0  0  0
    6.4886    7.3778   25.1462 H   0  0  0  0  0  0  0  0  0  0  0  0
  1  2  1  0
  2  3  1  0
  3  4  1  0
  4  5  1  0
  5  6  1  0
  6  7  1  0
  7  8  1  0
  8  9  2  0
  9 10  1  0
 10 11  1  0
 11 12  1  0
 12 13  2  0
 13 14  1  0
 14 15  2  0
 15 16  1  0
 16 17  2  0
 17 18  1  0
 15 19  1  0
 14 20  1  0
 13 21  1  0
 11 22  1  0
 11 23  1  0
 10 24  2  0
 24 25  1  0
 25 26  1  0
 26 27  2  0
 27 28  1  0
 28 29  2  0
 29 30  1  0
 30 31  2  0
 31 32  1  0
 32 33  1  0
 33 34  2  0
 33 35  1  0
 32 36  1  0
 29 37  1  0
 28 38  1  0
 27 39  1  0
  7 40  1  0
  7 41  1  0
  6 42  1  0
  6 43  1  0
  5 44  1  0
 44 45  1  0
 44 46  1  0
  5 47  1  0
  4 48  1  0
  4 49  1  0
  3 50  1  0
  3 51  1  0
  2 52  1  0
 44  2  1  0
 25  8  1  0
 31 26  1  0
 17 12  1  0
 34 30  1  0
M  CHG  1   5   1
M  END
>  <cnnaffinity>  (1) 
-6.22855

>  <filename>  (1) 
FC1CC[NH+](CCc2nc(Cc3cccnc3)nn2-c2cccc3nc[nH]c23)C1

$$$$
