
     RDKit          3D

 27 29  0  0  0  0  0  0  0  0999 V2000
    4.9618    1.8085   16.9964 H   0  0  0  0  0  0  0  0  0  0  0  0
    5.4074    1.2917   17.8398 C   0  0  0  0  0  0  0  0  0  0  0  0
    6.5734    0.6731   17.5942 N   0  0  0  0  0  0  0  0  0  0  0  0
    7.1839    0.0727   18.6226 C   0  0  0  0  0  0  0  0  0  0  0  0
    8.1382   -0.4075   18.3939 H   0  0  0  0  0  0  0  0  0  0  0  0
    6.6590    0.0519   19.9374 C   0  0  0  0  0  0  0  0  0  0  0  0
    7.3255   -0.6294   21.0185 N   0  0  0  0  0  0  0  0  0  0  0  0
    7.7533   -1.9323   20.9925 C   0  0  0  0  0  0  0  0  0  0  0  0
    7.5090   -2.5834   20.1773 H   0  0  0  0  0  0  0  0  0  0  0  0
    8.3119   -2.2883   22.1116 N   0  0  0  0  0  0  0  0  0  0  0  0
    8.2186   -1.2195   22.9615 N   0  0  0  0  0  0  0  0  0  0  0  0
    7.6041   -0.2576   22.3315 C   0  0  0  0  0  0  0  0  0  0  0  0
    7.2148    1.0163   22.9519 C   0  0  0  0  0  0  0  0  0  0  0  0
    6.4937    1.0813   24.1556 C   0  0  0  0  0  0  0  0  0  0  0  0
    6.1227   -0.0466   24.7692 F   0  0  0  0  0  0  0  0  0  0  0  0
    6.1153    2.2859   24.7366 C   0  0  0  0  0  0  0  0  0  0  0  0
    5.5609    2.2431   25.6674 H   0  0  0  0  0  0  0  0  0  0  0  0
    6.4570    3.4792   24.0963 C   0  0  0  0  0  0  0  0  0  0  0  0
    6.1759    4.4301   24.5352 H   0  0  0  0  0  0  0  0  0  0  0  0
    7.1649    3.4601   22.8926 C   0  0  0  0  0  0  0  0  0  0  0  0
    7.4452    4.3505   22.3440 H   0  0  0  0  0  0  0  0  0  0  0  0
    7.5330    2.2376   22.3531 C   0  0  0  0  0  0  0  0  0  0  0  0
    8.2213    2.2289   21.2007 F   0  0  0  0  0  0  0  0  0  0  0  0
    5.4224    0.6672   20.1635 C   0  0  0  0  0  0  0  0  0  0  0  0
    4.9830    0.6396   21.1622 H   0  0  0  0  0  0  0  0  0  0  0  0
    4.7881    1.3043   19.0930 C   0  0  0  0  0  0  0  0  0  0  0  0
    3.8459    1.8265   19.2239 H   0  0  0  0  0  0  0  0  0  0  0  0
  1  2  1  0
  2  3  2  0
  3  4  1  0
  4  5  1  0
  4  6  2  0
  6  7  1  0
  7  8  1  0
  8  9  1  0
  8 10  2  0
 10 11  1  0
 11 12  2  0
 12 13  1  0
 13 14  2  0
 14 15  1  0
 14 16  1  0
 16 17  1  0
 16 18  2  0
 18 19  1  0
 18 20  1  0
 20 21  1  0
 20 22  2  0
 22 23  1  0
  6 24  1  0
 24 25  1  0
 24 26  2  0
 26 27  1  0
 26  2  1  0
 12  7  1  0
 22 13  1  0
M  END
>  <cnnaffinity>  (1) 
-5.14998

>  <filename>  (1) 
Fc1cccc(F)c1-c1nncn1-c1cccnc1

$$$$
