
     RDKit          3D

 46 50  0  0  0  0  0  0  0  0999 V2000
   14.8266    4.0452   22.7857 F   0  0  0  0  0  0  0  0  0  0  0  0
   13.6604    3.3856   22.7125 C   0  0  0  0  0  0  0  0  0  0  0  0
   12.5247    4.1330   22.4845 C   0  0  0  0  0  0  0  0  0  0  0  0
   11.2905    3.4842   22.3489 C   0  0  0  0  0  0  0  0  0  0  0  0
   11.1758    2.0910   22.4132 C   0  0  0  0  0  0  0  0  0  0  0  0
    9.8696    1.4419   22.3015 C   0  0  0  0  0  0  0  0  0  0  0  0
    9.5137    0.4616   21.4858 N   0  0  0  0  0  0  0  0  0  0  0  0
    8.1984    0.2902   21.7653 C   0  0  0  0  0  0  0  0  0  0  0  0
    7.3434   -0.6819   21.0009 C   0  0  0  0  0  0  0  0  0  0  0  0
    6.5954   -0.0417   19.8340 C   0  0  0  0  0  0  0  0  0  0  0  0
    5.3961    0.6384   20.0707 C   0  0  0  0  0  0  0  0  0  0  0  0
    4.7855    1.3238   19.0181 C   0  0  0  0  0  0  0  0  0  0  0  0
    5.4031    1.3059   17.7642 C   0  0  0  0  0  0  0  0  0  0  0  0
    6.5425    0.6445   17.5051 N   0  0  0  0  0  0  0  0  0  0  0  0
    7.1120   -0.0117   18.5252 C   0  0  0  0  0  0  0  0  0  0  0  0
    8.0376   -0.5419   18.2956 H   0  0  0  0  0  0  0  0  0  0  0  0
    4.9631    1.8433   16.9276 H   0  0  0  0  0  0  0  0  0  0  0  0
    3.8593    1.8700   19.1630 H   0  0  0  0  0  0  0  0  0  0  0  0
    4.9698    0.6323   21.0757 H   0  0  0  0  0  0  0  0  0  0  0  0
    8.0020   -1.4783   20.6399 H   0  0  0  0  0  0  0  0  0  0  0  0
    6.6308   -1.1275   21.7056 H   0  0  0  0  0  0  0  0  0  0  0  0
    7.7322    1.0840   22.7127 N   0  0  0  0  0  0  0  0  0  0  0  0
    8.8125    1.8203   23.0644 N   0  0  0  0  0  0  0  0  0  0  0  0
    8.7363    2.8514   24.1020 C   0  0  0  0  0  0  0  0  0  0  0  0
    8.3153    4.2294   23.6030 C   0  0  0  0  0  0  0  0  0  0  0  0
    7.1211    4.3726   22.8907 C   0  0  0  0  0  0  0  0  0  0  0  0
    6.7383    5.6415   22.4490 C   0  0  0  0  0  0  0  0  0  0  0  0
    7.4540    6.7548   22.6604 N   0  0  0  0  0  0  0  0  0  0  0  0
    8.6076    6.6119   23.3208 C   0  0  0  0  0  0  0  0  0  0  0  0
    9.0754    5.3883   23.8202 C   0  0  0  0  0  0  0  0  0  0  0  0
   10.0438    5.3467   24.3095 H   0  0  0  0  0  0  0  0  0  0  0  0
    9.1903    7.5200   23.4608 H   0  0  0  0  0  0  0  0  0  0  0  0
    5.8034    5.7691   21.9087 H   0  0  0  0  0  0  0  0  0  0  0  0
    6.5133    3.5046   22.6579 H   0  0  0  0  0  0  0  0  0  0  0  0
    8.0312    2.5016   24.8592 H   0  0  0  0  0  0  0  0  0  0  0  0
    9.7166    2.9223   24.5755 H   0  0  0  0  0  0  0  0  0  0  0  0
   12.3441    1.3180   22.5977 C   0  0  0  0  0  0  0  0  0  0  0  0
   13.5816    1.9750   22.7885 C   0  0  0  0  0  0  0  0  0  0  0  0
   14.5456    1.0016   22.9055 N   0  0  0  0  0  0  0  0  0  0  0  0
   13.9642   -0.2462   22.7849 C   0  0  0  0  0  0  0  0  0  0  0  0
   12.6197   -0.0921   22.6154 C   0  0  0  0  0  0  0  0  0  0  0  0
   11.8537   -0.8376   22.4672 H   0  0  0  0  0  0  0  0  0  0  0  0
   14.5495   -1.1593   22.8483 H   0  0  0  0  0  0  0  0  0  0  0  0
   15.5302    1.2001   22.8462 H   0  0  0  0  0  0  0  0  0  0  0  0
   10.4105    4.0883   22.1838 H   0  0  0  0  0  0  0  0  0  0  0  0
   12.6300    5.2111   22.4276 H   0  0  0  0  0  0  0  0  0  0  0  0
  1  2  1  0
  2  3  2  0
  3  4  1  0
  4  5  2  0
  5  6  1  0
  6  7  2  0
  7  8  1  0
  8  9  1  0
  9 10  1  0
 10 11  2  0
 11 12  1  0
 12 13  2  0
 13 14  1  0
 14 15  2  0
 15 16  1  0
 13 17  1  0
 12 18  1  0
 11 19  1  0
  9 20  1  0
  9 21  1  0
  8 22  2  0
 22 23  1  0
 23 24  1  0
 24 25  1  0
 25 26  2  0
 26 27  1  0
 27 28  2  0
 28 29  1  0
 29 30  2  0
 30 31  1  0
 29 32  1  0
 27 33  1  0
 26 34  1  0
 24 35  1  0
 24 36  1  0
  5 37  1  0
 37 38  2  0
 38 39  1  0
 39 40  1  0
 40 41  2  0
 41 42  1  0
 40 43  1  0
 39 44  1  0
  4 45  1  0
  3 46  1  0
 38  2  1  0
 23  6  1  0
 30 25  1  0
 41 37  1  0
 15 10  1  0
M  END
>  <cnnaffinity>  (1) 
-6.69352

>  <filename>  (1) 
Fc1ccc(-c2nc(Cc3cccnc3)nn2Cc2ccncc2)c2cc[nH]c12

$$$$
