
     RDKit          3D

 44 48  0  0  0  0  0  0  0  0999 V2000
   13.0765    2.9409   22.6060 F   0  0  0  0  0  0  0  0  0  0  0  0
   12.3992    1.7874   22.6353 C   0  0  0  0  0  0  0  0  0  0  0  0
   11.8268    1.2778   21.4593 C   0  0  0  0  0  0  0  0  0  0  0  0
   11.1431    0.0669   21.4759 C   0  0  0  0  0  0  0  0  0  0  0  0
   10.9831   -0.5974   22.7028 C   0  0  0  0  0  0  0  0  0  0  0  0
   10.3162   -1.8032   23.1243 C   0  0  0  0  0  0  0  0  0  0  0  0
    9.4478   -2.6228   22.2196 C   0  0  0  0  0  0  0  0  0  0  0  0
    8.1980   -1.8954   21.8198 C   0  0  0  0  0  0  0  0  0  0  0  0
    7.9409   -1.4079   20.6272 N   0  0  0  0  0  0  0  0  0  0  0  0
    6.7701   -0.7354   20.8139 C   0  0  0  0  0  0  0  0  0  0  0  0
    6.1781    0.0497   19.7388 C   0  0  0  0  0  0  0  0  0  0  0  0
    5.0165    0.8299   19.8705 C   0  0  0  0  0  0  0  0  0  0  0  0
    4.5987    1.5628   18.7596 C   0  0  0  0  0  0  0  0  0  0  0  0
    5.3478    1.4975   17.5775 C   0  0  0  0  0  0  0  0  0  0  0  0
    6.4600    0.7599   17.4501 N   0  0  0  0  0  0  0  0  0  0  0  0
    6.8637    0.0659   18.5168 C   0  0  0  0  0  0  0  0  0  0  0  0
    7.7844   -0.5033   18.4066 H   0  0  0  0  0  0  0  0  0  0  0  0
    5.0473    2.0611   16.6951 H   0  0  0  0  0  0  0  0  0  0  0  0
    3.7256    2.2029   18.7967 H   0  0  0  0  0  0  0  0  0  0  0  0
    4.4791    0.8753   20.8202 H   0  0  0  0  0  0  0  0  0  0  0  0
    6.3019   -0.7911   22.0455 N   0  0  0  0  0  0  0  0  0  0  0  0
    7.2147   -1.5550   22.6905 N   0  0  0  0  0  0  0  0  0  0  0  0
    7.2397   -1.6907   24.1420 C   0  0  0  0  0  0  0  0  0  0  0  0
    7.5586   -0.3999   24.9145 C   0  0  0  0  0  0  0  0  0  0  0  0
    7.1307   -0.7656   26.3507 C   0  0  0  0  0  0  0  0  0  0  0  0
    6.4499   -2.0175   26.2518 O   0  0  0  0  0  0  0  0  0  0  0  0
    5.9897   -2.1262   24.9115 C   0  0  0  0  0  0  0  0  0  0  0  0
    5.1457   -1.4398   24.7537 H   0  0  0  0  0  0  0  0  0  0  0  0
    5.6612   -3.1506   24.7326 H   0  0  0  0  0  0  0  0  0  0  0  0
    7.9769   -0.9015   27.0360 H   0  0  0  0  0  0  0  0  0  0  0  0
    6.4632   -0.0043   26.7814 H   0  0  0  0  0  0  0  0  0  0  0  0
    8.6018   -0.0881   24.8372 H   0  0  0  0  0  0  0  0  0  0  0  0
    6.9364    0.4072   24.5100 H   0  0  0  0  0  0  0  0  0  0  0  0
    7.9876   -2.4539   24.3576 H   0  0  0  0  0  0  0  0  0  0  0  0
    9.1975   -3.5871   22.6704 H   0  0  0  0  0  0  0  0  0  0  0  0
    9.9706   -2.8369   21.2871 H   0  0  0  0  0  0  0  0  0  0  0  0
   10.4647   -1.8576   24.4665 C   0  0  0  0  0  0  0  0  0  0  0  0
   11.1711   -0.7813   24.9522 O   0  0  0  0  0  0  0  0  0  0  0  0
   11.5087   -0.0384   23.8705 C   0  0  0  0  0  0  0  0  0  0  0  0
   12.2531    1.1405   23.8551 C   0  0  0  0  0  0  0  0  0  0  0  0
   12.7740    1.6529   24.9647 F   0  0  0  0  0  0  0  0  0  0  0  0
   10.1894   -2.6048   25.2033 H   0  0  0  0  0  0  0  0  0  0  0  0
   10.6964   -0.3553   20.5814 H   0  0  0  0  0  0  0  0  0  0  0  0
   11.9415    1.8686   20.5610 H   0  0  0  0  0  0  0  0  0  0  0  0
  1  2  1  0
  2  3  2  0
  3  4  1  0
  4  5  2  0
  5  6  1  0
  6  7  1  0
  7  8  1  0
  8  9  2  0
  9 10  1  0
 10 11  1  0
 11 12  2  0
 12 13  1  0
 13 14  2  0
 14 15  1  0
 15 16  2  0
 16 17  1  0
 14 18  1  0
 13 19  1  0
 12 20  1  0
 10 21  2  0
 21 22  1  0
 22 23  1  0
 23 24  1  0
 24 25  1  0
 25 26  1  0
 26 27  1  0
 27 28  1  0
 27 29  1  0
 25 30  1  0
 25 31  1  0
 24 32  1  0
 24 33  1  0
 23 34  1  0
  7 35  1  0
  7 36  1  0
  6 37  2  0
 37 38  1  0
 38 39  1  0
 39 40  2  0
 40 41  1  0
 37 42  1  0
  4 43  1  0
  3 44  1  0
 40  2  1  0
 39  5  1  0
 22  8  1  0
 27 23  1  0
 16 11  1  0
M  END
>  <cnnaffinity>  (1) 
-5.58052

>  <filename>  (1) 
Fc1ccc2c(Cc3nc(-c4cccnc4)nn3C3CCOC3)coc2c1F

$$$$
