
     RDKit          3D

 29 31  0  0  0  0  0  0  0  0999 V2000
    4.9660    1.7848   16.9797 H   0  0  0  0  0  0  0  0  0  0  0  0
    5.4060    1.2846   17.8387 C   0  0  0  0  0  0  0  0  0  0  0  0
    6.5760    0.6637   17.6168 N   0  0  0  0  0  0  0  0  0  0  0  0
    7.1619    0.0628   18.6555 C   0  0  0  0  0  0  0  0  0  0  0  0
    8.1002   -0.4500   18.4410 H   0  0  0  0  0  0  0  0  0  0  0  0
    6.6310    0.0653   19.9477 C   0  0  0  0  0  0  0  0  0  0  0  0
    7.3959   -0.6468   20.9794 C   0  0  0  0  0  0  0  0  0  0  0  0
    7.9631   -1.7600   20.7169 N   0  0  0  0  0  0  0  0  0  0  0  0
    8.4619   -2.3291   21.9643 C   0  0  0  0  0  0  0  0  0  0  0  0
    8.0099   -3.3157   22.1288 H   0  0  0  0  0  0  0  0  0  0  0  0
    9.5484   -2.4573   21.8890 H   0  0  0  0  0  0  0  0  0  0  0  0
    8.0723   -1.3418   23.0869 C   0  0  0  0  0  0  0  0  0  0  0  0
    7.3386   -1.7622   23.7906 H   0  0  0  0  0  0  0  0  0  0  0  0
    8.9359   -0.9977   23.6764 H   0  0  0  0  0  0  0  0  0  0  0  0
    7.4746   -0.2545   22.3086 N   0  0  0  0  0  0  0  0  0  0  0  0
    7.3106    1.0253   22.7967 C   0  0  0  0  0  0  0  0  0  0  0  0
    7.4520    2.0264   21.9238 N   0  0  0  0  0  0  0  0  0  0  0  0
    7.3186    3.2743   22.3875 C   0  0  0  0  0  0  0  0  0  0  0  0
    7.4220    4.0963   21.6817 H   0  0  0  0  0  0  0  0  0  0  0  0
    7.0544    3.5645   23.7266 C   0  0  0  0  0  0  0  0  0  0  0  0
    6.9537    4.8443   24.1204 F   0  0  0  0  0  0  0  0  0  0  0  0
    6.9034    2.5285   24.6483 C   0  0  0  0  0  0  0  0  0  0  0  0
    6.7081    2.7608   25.6952 H   0  0  0  0  0  0  0  0  0  0  0  0
    7.0338    1.2257   24.1651 C   0  0  0  0  0  0  0  0  0  0  0  0
    6.9334    0.3470   24.7908 H   0  0  0  0  0  0  0  0  0  0  0  0
    5.3862    0.6735   20.1623 C   0  0  0  0  0  0  0  0  0  0  0  0
    4.9178    0.6767   21.1484 H   0  0  0  0  0  0  0  0  0  0  0  0
    4.7731    1.3067   19.0861 C   0  0  0  0  0  0  0  0  0  0  0  0
    3.8417    1.8476   19.2137 H   0  0  0  0  0  0  0  0  0  0  0  0
  1  2  1  0
  2  3  2  0
  3  4  1  0
  4  5  1  0
  4  6  2  0
  6  7  1  0
  7  8  2  0
  8  9  1  0
  9 10  1  0
  9 11  1  0
  9 12  1  0
 12 13  1  0
 12 14  1  0
 12 15  1  0
 15 16  1  0
 16 17  2  0
 17 18  1  0
 18 19  1  0
 18 20  2  0
 20 21  1  0
 20 22  1  0
 22 23  1  0
 22 24  2  0
 24 25  1  0
  6 26  1  0
 26 27  1  0
 26 28  2  0
 28 29  1  0
 28  2  1  0
 15  7  1  0
 24 16  1  0
M  END
>  <cnnaffinity>  (1) 
-4.89274

>  <filename>  (1) 
Fc1ccc(N2CCN=C2c2cccnc2)nc1

$$$$
