
     RDKit          3D

 43 47  0  0  0  0  0  0  0  0999 V2000
    8.0699    5.9941   26.5281 F   0  0  0  0  0  0  0  0  0  0  0  0
    8.2133    4.9805   25.6739 C   0  0  0  0  0  0  0  0  0  0  0  0
    7.1067    4.5989   24.9099 C   0  0  0  0  0  0  0  0  0  0  0  0
    7.2742    3.5328   24.0330 C   0  0  0  0  0  0  0  0  0  0  0  0
    8.5434    2.9298   23.9198 C   0  0  0  0  0  0  0  0  0  0  0  0
    8.7516    1.9131   22.9406 N   0  0  0  0  0  0  0  0  0  0  0  0
    7.6886    1.1514   22.5718 N   0  0  0  0  0  0  0  0  0  0  0  0
    8.1908    0.3225   21.6848 C   0  0  0  0  0  0  0  0  0  0  0  0
    7.3631   -0.6826   20.9374 C   0  0  0  0  0  0  0  0  0  0  0  0
    6.5879   -0.0688   19.7751 C   0  0  0  0  0  0  0  0  0  0  0  0
    5.3894    0.6159   20.0150 C   0  0  0  0  0  0  0  0  0  0  0  0
    4.7851    1.3141   18.9671 C   0  0  0  0  0  0  0  0  0  0  0  0
    5.3972    1.2978   17.7116 C   0  0  0  0  0  0  0  0  0  0  0  0
    6.5214    0.6147   17.4455 N   0  0  0  0  0  0  0  0  0  0  0  0
    7.0885   -0.0496   18.4607 C   0  0  0  0  0  0  0  0  0  0  0  0
    8.0035   -0.5919   18.2179 H   0  0  0  0  0  0  0  0  0  0  0  0
    4.9594    1.8467   16.8795 H   0  0  0  0  0  0  0  0  0  0  0  0
    3.8697    1.8777   19.1127 H   0  0  0  0  0  0  0  0  0  0  0  0
    4.9547    0.6147   21.0164 H   0  0  0  0  0  0  0  0  0  0  0  0
    8.0494   -1.4600   20.5906 H   0  0  0  0  0  0  0  0  0  0  0  0
    6.6752   -1.1389   21.6568 H   0  0  0  0  0  0  0  0  0  0  0  0
    9.5124    0.4729   21.4446 N   0  0  0  0  0  0  0  0  0  0  0  0
    9.8515    1.4884   22.2216 C   0  0  0  0  0  0  0  0  0  0  0  0
   11.1778    2.0997   22.3061 C   0  0  0  0  0  0  0  0  0  0  0  0
   11.3322    3.4930   22.3267 C   0  0  0  0  0  0  0  0  0  0  0  0
   12.5872    4.0818   22.5519 C   0  0  0  0  0  0  0  0  0  0  0  0
   13.7290    3.2998   22.7091 C   0  0  0  0  0  0  0  0  0  0  0  0
   13.5789    1.9019   22.6491 C   0  0  0  0  0  0  0  0  0  0  0  0
   12.3314    1.2785   22.3925 C   0  0  0  0  0  0  0  0  0  0  0  0
   12.5902   -0.1396   22.3206 C   0  0  0  0  0  0  0  0  0  0  0  0
   13.9246   -0.3222   22.5374 C   0  0  0  0  0  0  0  0  0  0  0  0
   14.5244    0.9063   22.7332 N   0  0  0  0  0  0  0  0  0  0  0  0
   15.5116    1.0836   22.8087 H   0  0  0  0  0  0  0  0  0  0  0  0
   14.5000   -1.2397   22.5726 H   0  0  0  0  0  0  0  0  0  0  0  0
   11.8446   -0.8940   22.0975 H   0  0  0  0  0  0  0  0  0  0  0  0
   14.7045    3.7601   22.8220 H   0  0  0  0  0  0  0  0  0  0  0  0
   12.6489    5.1614   22.6378 H   0  0  0  0  0  0  0  0  0  0  0  0
   10.4583    4.1290   22.2284 H   0  0  0  0  0  0  0  0  0  0  0  0
    9.5467    3.3732   24.7922 C   0  0  0  0  0  0  0  0  0  0  0  0
    9.3888    4.4021   25.6420 N   0  0  0  0  0  0  0  0  0  0  0  0
   10.5281    2.9084   24.7943 H   0  0  0  0  0  0  0  0  0  0  0  0
    6.4457    3.1377   23.4462 H   0  0  0  0  0  0  0  0  0  0  0  0
    6.1665    5.1196   25.0370 H   0  0  0  0  0  0  0  0  0  0  0  0
  1  2  1  0
  2  3  2  0
  3  4  1  0
  4  5  2  0
  5  6  1  0
  6  7  1  0
  7  8  2  0
  8  9  1  0
  9 10  1  0
 10 11  2  0
 11 12  1  0
 12 13  2  0
 13 14  1  0
 14 15  2  0
 15 16  1  0
 13 17  1  0
 12 18  1  0
 11 19  1  0
  9 20  1  0
  9 21  1  0
  8 22  1  0
 22 23  2  0
 23 24  1  0
 24 25  2  0
 25 26  1  0
 26 27  2  0
 27 28  1  0
 28 29  2  0
 29 30  1  0
 30 31  2  0
 31 32  1  0
 32 33  1  0
 31 34  1  0
 30 35  1  0
 27 36  1  0
 26 37  1  0
 25 38  1  0
  5 39  1  0
 39 40  2  0
 39 41  1  0
  4 42  1  0
  3 43  1  0
 40  2  1  0
 23  6  1  0
 29 24  1  0
 15 10  1  0
 32 28  1  0
M  END
>  <cnnaffinity>  (1) 
-6.69276

>  <filename>  (1) 
Fc1ccc(-n2nc(Cc3cccnc3)nc2-c2cccc3[nH]ccc23)cn1

$$$$
