
     RDKit          3D

 47 51  0  0  0  0  0  0  0  0999 V2000
    6.6379    0.3442   25.8844 F   0  0  0  0  0  0  0  0  0  0  0  0
    6.1894   -0.6156   26.7169 C   0  0  0  0  0  0  0  0  0  0  0  0
    5.7365   -0.2624   27.9909 C   0  0  0  0  0  0  0  0  0  0  0  0
    5.2388   -1.1579   28.8537 N   0  0  0  0  0  0  0  0  0  0  0  0
    5.1974   -2.4431   28.4731 C   0  0  0  0  0  0  0  0  0  0  0  0
    5.6621   -2.8797   27.2284 C   0  0  0  0  0  0  0  0  0  0  0  0
    6.1684   -1.9495   26.3001 C   0  0  0  0  0  0  0  0  0  0  0  0
    6.5320   -2.3391   24.8961 C   0  0  2  0  0  0  0  0  0  0  0  0
    7.6380   -3.3128   24.5975 C   0  0  0  0  0  0  0  0  0  0  0  0
    7.7914   -1.8529   24.2224 C   0  0  1  0  0  0  0  0  0  0  0  0
    7.7448   -1.3779   22.8183 C   0  0  0  0  0  0  0  0  0  0  0  0
    6.7703   -0.7181   22.2098 N   0  0  0  0  0  0  0  0  0  0  0  0
    7.2303   -0.5697   20.9475 C   0  0  0  0  0  0  0  0  0  0  0  0
    6.5238    0.1011   19.8682 C   0  0  0  0  0  0  0  0  0  0  0  0
    5.3041    0.7630   20.0524 C   0  0  0  0  0  0  0  0  0  0  0  0
    4.7369    1.3902   18.9463 C   0  0  0  0  0  0  0  0  0  0  0  0
    5.4050    1.3306   17.7169 C   0  0  0  0  0  0  0  0  0  0  0  0
    6.5604    0.6762   17.5282 N   0  0  0  0  0  0  0  0  0  0  0  0
    7.1041    0.0749   18.5888 C   0  0  0  0  0  0  0  0  0  0  0  0
    8.0395   -0.4566   18.4158 H   0  0  0  0  0  0  0  0  0  0  0  0
    4.9952    1.8288   16.8428 H   0  0  0  0  0  0  0  0  0  0  0  0
    3.7990    1.9276   19.0230 H   0  0  0  0  0  0  0  0  0  0  0  0
    4.8277    0.7764   21.0361 H   0  0  0  0  0  0  0  0  0  0  0  0
    8.4224   -1.0960   20.7373 N   0  0  0  0  0  0  0  0  0  0  0  0
    8.7477   -1.6057   21.9398 N   0  0  0  0  0  0  0  0  0  0  0  0
   10.0558   -2.2125   22.0350 C   0  0  0  0  0  0  0  0  0  0  0  0
   11.1503   -1.1537   21.9814 C   0  0  0  0  0  0  0  0  0  0  0  0
   11.2764   -0.2773   23.2310 C   0  0  0  0  0  0  0  0  0  0  0  0
   12.7670    0.0985   23.2322 C   0  0  0  0  0  0  0  0  0  0  0  0
   13.4359   -0.7776   22.3325 O   0  0  0  0  0  0  0  0  0  0  0  0
   12.5414   -1.7619   21.8577 C   0  0  0  0  0  0  0  0  0  0  0  0
   12.6170   -2.6868   22.4559 H   0  0  0  0  0  0  0  0  0  0  0  0
   12.8132   -2.0051   20.8242 H   0  0  0  0  0  0  0  0  0  0  0  0
   12.9223    1.1237   22.8804 H   0  0  0  0  0  0  0  0  0  0  0  0
   13.2041    0.0142   24.2353 H   0  0  0  0  0  0  0  0  0  0  0  0
   10.6215    0.6021   23.2217 H   0  0  0  0  0  0  0  0  0  0  0  0
   11.0083   -0.8547   24.1256 H   0  0  0  0  0  0  0  0  0  0  0  0
   10.9557   -0.5119   21.1118 H   0  0  0  0  0  0  0  0  0  0  0  0
   10.1258   -2.8498   21.1564 H   0  0  0  0  0  0  0  0  0  0  0  0
   10.1137   -2.8339   22.9327 H   0  0  0  0  0  0  0  0  0  0  0  0
    8.5185   -1.3040   24.8200 H   0  0  0  0  0  0  0  0  0  0  0  0
    8.2400   -3.6711   25.4315 H   0  0  0  0  0  0  0  0  0  0  0  0
    7.4780   -4.0411   23.8023 H   0  0  0  0  0  0  0  0  0  0  0  0
    5.6683   -2.3882   24.2284 H   0  0  0  0  0  0  0  0  0  0  0  0
    5.6352   -3.9353   26.9812 H   0  0  0  0  0  0  0  0  0  0  0  0
    4.7712   -3.1497   29.1866 H   0  0  0  0  0  0  0  0  0  0  0  0
    5.7547    0.7842   28.2924 H   0  0  0  0  0  0  0  0  0  0  0  0
  1  2  1  0
  2  3  2  0
  3  4  1  0
  4  5  2  0
  5  6  1  0
  6  7  2  0
  7  8  1  0
  8  9  1  0
  9 10  1  0
 10 11  1  0
 11 12  2  0
 12 13  1  0
 13 14  1  0
 14 15  2  0
 15 16  1  0
 16 17  2  0
 17 18  1  0
 18 19  2  0
 19 20  1  0
 17 21  1  0
 16 22  1  0
 15 23  1  0
 13 24  2  0
 24 25  1  0
 25 26  1  0
 26 27  1  0
 27 28  1  0
 28 29  1  0
 29 30  1  0
 30 31  1  0
 31 32  1  0
 31 33  1  0
 29 34  1  0
 29 35  1  0
 28 36  1  0
 28 37  1  0
 27 38  1  0
 26 39  1  0
 26 40  1  0
 10 41  1  1
  9 42  1  0
  9 43  1  0
  8 44  1  6
  6 45  1  0
  5 46  1  0
  3 47  1  0
  7  2  1  0
 10  8  1  0
 25 11  1  0
 31 27  1  0
 19 14  1  0
M  END
>  <cnnaffinity>  (1) 
-6.58725

>  <filename>  (1) 
Fc1cnccc1[C@@H]1C[C@H]1c1nc(-c2cccnc2)nn1CC1CCOC1

$$$$
