
     RDKit          3D

 49 53  0  0  0  0  0  0  0  0999 V2000
   12.6443    5.6924   22.6519 F   0  0  0  0  0  0  0  0  0  0  0  0
   12.4793    4.3591   22.5944 C   0  0  0  0  0  0  0  0  0  0  0  0
   11.1700    3.8671   22.4276 C   0  0  0  0  0  0  0  0  0  0  0  0
   10.9369    2.5065   22.3243 C   0  0  0  0  0  0  0  0  0  0  0  0
    9.5702    1.9700   22.1193 C   0  0  0  0  0  0  0  0  0  0  0  0
    9.1994    1.0995   21.1870 N   0  0  0  0  0  0  0  0  0  0  0  0
    8.0128    0.6434   21.6561 C   0  0  0  0  0  0  0  0  0  0  0  0
    7.2911   -0.4689   20.9572 C   0  0  0  0  0  0  0  0  0  0  0  0
    6.5238    0.0199   19.7443 C   0  0  0  0  0  0  0  0  0  0  0  0
    5.3258    0.7185   19.9240 C   0  0  0  0  0  0  0  0  0  0  0  0
    4.7420    1.3533   18.8282 C   0  0  0  0  0  0  0  0  0  0  0  0
    5.3680    1.2497   17.5829 C   0  0  0  0  0  0  0  0  0  0  0  0
    6.4854    0.5366   17.3753 N   0  0  0  0  0  0  0  0  0  0  0  0
    7.0377   -0.0615   18.4386 C   0  0  0  0  0  0  0  0  0  0  0  0
    7.9507   -0.6273   18.2440 H   0  0  0  0  0  0  0  0  0  0  0  0
    4.9607    1.7642   16.7145 H   0  0  0  0  0  0  0  0  0  0  0  0
    3.8460    1.9526   18.9360 H   0  0  0  0  0  0  0  0  0  0  0  0
    4.8803    0.7765   20.9192 H   0  0  0  0  0  0  0  0  0  0  0  0
    8.0534   -1.1957   20.6702 H   0  0  0  0  0  0  0  0  0  0  0  0
    6.6318   -0.9537   21.6828 H   0  0  0  0  0  0  0  0  0  0  0  0
    7.6017    1.2102   22.7692 N   0  0  0  0  0  0  0  0  0  0  0  0
    8.6012    2.0854   23.0592 N   0  0  0  0  0  0  0  0  0  0  0  0
    8.4892    3.0786   24.1431 C   0  0  0  0  0  0  0  0  0  0  0  0
    7.8780    2.4691   25.4326 C   0  0  0  0  0  0  0  0  0  0  0  0
    6.4384    2.9620   25.6657 C   0  0  0  0  0  0  0  0  0  0  0  0
    5.7132    2.9827   24.4527 O   0  0  0  0  0  0  0  0  0  0  0  0
    6.1795    3.9243   23.4864 C   0  0  0  0  0  0  0  0  0  0  0  0
    7.6632    4.2958   23.6699 C   0  0  0  0  0  0  0  0  0  0  0  0
    7.7503    5.0792   24.4355 H   0  0  0  0  0  0  0  0  0  0  0  0
    8.0619    4.7118   22.7390 H   0  0  0  0  0  0  0  0  0  0  0  0
    6.0127    3.4463   22.5147 H   0  0  0  0  0  0  0  0  0  0  0  0
    5.5559    4.8333   23.5288 H   0  0  0  0  0  0  0  0  0  0  0  0
    5.8918    2.2957   26.3386 H   0  0  0  0  0  0  0  0  0  0  0  0
    6.4526    3.9663   26.1275 H   0  0  0  0  0  0  0  0  0  0  0  0
    8.4996    2.7323   26.2959 H   0  0  0  0  0  0  0  0  0  0  0  0
    7.8791    1.3785   25.3413 H   0  0  0  0  0  0  0  0  0  0  0  0
    9.5134    3.3982   24.3526 H   0  0  0  0  0  0  0  0  0  0  0  0
   12.0428    1.5845   22.4587 C   0  0  0  0  0  0  0  0  0  0  0  0
   11.9444    0.1481   22.4491 C   0  0  0  0  0  0  0  0  0  0  0  0
   12.9629   -0.6869   22.4835 N   0  0  0  0  0  0  0  0  0  0  0  0
   14.2047   -0.1456   22.5527 C   0  0  0  0  0  0  0  0  0  0  0  0
   14.4401    1.2021   22.6342 C   0  0  0  0  0  0  0  0  0  0  0  0
   13.3567    2.1200   22.6221 C   0  0  0  0  0  0  0  0  0  0  0  0
   13.5616    3.5286   22.7005 C   0  0  0  0  0  0  0  0  0  0  0  0
   14.5482    3.9486   22.8461 H   0  0  0  0  0  0  0  0  0  0  0  0
   15.4474    1.5968   22.6025 H   0  0  0  0  0  0  0  0  0  0  0  0
   15.0161   -0.8666   22.5290 H   0  0  0  0  0  0  0  0  0  0  0  0
   10.9548   -0.2970   22.3862 H   0  0  0  0  0  0  0  0  0  0  0  0
   10.3668    4.5937   22.3599 H   0  0  0  0  0  0  0  0  0  0  0  0
  1  2  1  0
  2  3  2  0
  3  4  1  0
  4  5  1  0
  5  6  2  0
  6  7  1  0
  7  8  1  0
  8  9  1  0
  9 10  2  0
 10 11  1  0
 11 12  2  0
 12 13  1  0
 13 14  2  0
 14 15  1  0
 12 16  1  0
 11 17  1  0
 10 18  1  0
  8 19  1  0
  8 20  1  0
  7 21  2  0
 21 22  1  0
 22 23  1  0
 23 24  1  0
 24 25  1  0
 25 26  1  0
 26 27  1  0
 27 28  1  0
 28 29  1  0
 28 30  1  0
 27 31  1  0
 27 32  1  0
 25 33  1  0
 25 34  1  0
 24 35  1  0
 24 36  1  0
 23 37  1  0
  4 38  2  0
 38 39  1  0
 39 40  2  0
 40 41  1  0
 41 42  2  0
 42 43  1  0
 43 44  2  0
 44 45  1  0
 42 46  1  0
 41 47  1  0
 39 48  1  0
  3 49  1  0
 44  2  1  0
 22  5  1  0
 28 23  1  0
 43 38  1  0
 14  9  1  0
M  END
>  <cnnaffinity>  (1) 
-6.41371

>  <filename>  (1) 
Fc1cc(-c2nc(Cc3cccnc3)nn2C2CCOCC2)c2cnccc2c1

$$$$
