
     RDKit          3D

 43 47  0  0  0  0  0  0  0  0999 V2000
    9.0468    5.6783   26.8331 F   0  0  0  0  0  0  0  0  0  0  0  0
    8.9555    4.7637   25.8528 C   0  0  0  0  0  0  0  0  0  0  0  0
    8.3246    3.5480   26.1113 C   0  0  0  0  0  0  0  0  0  0  0  0
    8.2275    2.5984   25.0878 C   0  0  0  0  0  0  0  0  0  0  0  0
    8.7746    2.8690   23.8225 C   0  0  0  0  0  0  0  0  0  0  0  0
    8.7508    1.8830   22.7861 N   0  0  0  0  0  0  0  0  0  0  0  0
    7.7315    0.9936   22.6601 N   0  0  0  0  0  0  0  0  0  0  0  0
    8.0409    0.3440   21.5608 C   0  0  0  0  0  0  0  0  0  0  0  0
    7.1683   -0.7135   20.9559 C   0  0  0  0  0  0  0  0  0  0  0  0
    6.3999   -0.1370   19.7754 C   0  0  0  0  0  0  0  0  0  0  0  0
    5.2199    0.5869   19.9824 C   0  0  0  0  0  0  0  0  0  0  0  0
    4.6878    1.3252   18.9232 C   0  0  0  0  0  0  0  0  0  0  0  0
    5.3417    1.2963   17.6881 C   0  0  0  0  0  0  0  0  0  0  0  0
    6.4425    0.5675   17.4504 N   0  0  0  0  0  0  0  0  0  0  0  0
    6.9494   -0.1212   18.4801 C   0  0  0  0  0  0  0  0  0  0  0  0
    7.8707   -0.6696   18.2812 H   0  0  0  0  0  0  0  0  0  0  0  0
    4.9695    1.8884   16.8544 H   0  0  0  0  0  0  0  0  0  0  0  0
    3.8121    1.9503   19.0521 H   0  0  0  0  0  0  0  0  0  0  0  0
    4.7380    0.5883   20.9631 H   0  0  0  0  0  0  0  0  0  0  0  0
    6.4965   -1.0777   21.7397 H   0  0  0  0  0  0  0  0  0  0  0  0
    7.8171   -1.5403   20.6455 H   0  0  0  0  0  0  0  0  0  0  0  0
    9.2022    0.7260   20.9640 N   0  0  0  0  0  0  0  0  0  0  0  0
    9.6543    1.6565   21.7757 C   0  0  0  0  0  0  0  0  0  0  0  0
   11.0211    2.2026   21.7994 C   0  0  0  0  0  0  0  0  0  0  0  0
   11.5853    3.0342   20.8347 C   0  0  0  0  0  0  0  0  0  0  0  0
   12.7449    3.7969   21.1031 C   0  0  0  0  0  0  0  0  0  0  0  0
   13.4948    3.5905   22.2492 C   0  0  0  0  0  0  0  0  0  0  0  0
   13.0323    2.5723   23.1041 C   0  0  0  0  0  0  0  0  0  0  0  0
   11.8238    1.8871   22.9318 C   0  0  0  0  0  0  0  0  0  0  0  0
   11.7703    0.9646   24.0247 C   0  0  0  0  0  0  0  0  0  0  0  0
   12.8532    1.0595   24.7756 N   0  0  0  0  0  0  0  0  0  0  0  0
   13.6109    1.9976   24.1767 N   0  0  0  0  0  0  0  0  0  0  0  0
   14.3753    2.4389   24.6662 H   0  0  0  0  0  0  0  0  0  0  0  0
   10.9903    0.2578   24.2760 H   0  0  0  0  0  0  0  0  0  0  0  0
   14.4161    4.1358   22.4359 H   0  0  0  0  0  0  0  0  0  0  0  0
   13.0566    4.5512   20.3912 H   0  0  0  0  0  0  0  0  0  0  0  0
   11.1388    3.1262   19.8611 H   0  0  0  0  0  0  0  0  0  0  0  0
    9.3790    4.1129   23.5796 C   0  0  0  0  0  0  0  0  0  0  0  0
    9.4720    5.0635   24.5963 C   0  0  0  0  0  0  0  0  0  0  0  0
    9.9156    6.0376   24.4187 H   0  0  0  0  0  0  0  0  0  0  0  0
    9.7598    4.3411   22.5885 H   0  0  0  0  0  0  0  0  0  0  0  0
    7.7034    1.6591   25.2506 H   0  0  0  0  0  0  0  0  0  0  0  0
    7.8968    3.3736   27.0943 H   0  0  0  0  0  0  0  0  0  0  0  0
  1  2  1  0
  2  3  2  0
  3  4  1  0
  4  5  2  0
  5  6  1  0
  6  7  1  0
  7  8  2  0
  8  9  1  0
  9 10  1  0
 10 11  2  0
 11 12  1  0
 12 13  2  0
 13 14  1  0
 14 15  2  0
 15 16  1  0
 13 17  1  0
 12 18  1  0
 11 19  1  0
  9 20  1  0
  9 21  1  0
  8 22  1  0
 22 23  2  0
 23 24  1  0
 24 25  2  0
 25 26  1  0
 26 27  2  0
 27 28  1  0
 28 29  2  0
 29 30  1  0
 30 31  2  0
 31 32  1  0
 32 33  1  0
 30 34  1  0
 27 35  1  0
 26 36  1  0
 25 37  1  0
  5 38  1  0
 38 39  2  0
 39 40  1  0
 38 41  1  0
  4 42  1  0
  3 43  1  0
 39  2  1  0
 23  6  1  0
 29 24  1  0
 15 10  1  0
 32 28  1  0
M  END
>  <cnnaffinity>  (1) 
-6.26694

>  <filename>  (1) 
Fc1ccc(-n2nc(Cc3cccnc3)nc2-c2cccc3[nH]ncc23)cc1

$$$$
