
     RDKit          3D

 42 46  0  0  0  0  0  0  0  0999 V2000
    9.5192    5.9714   26.5032 F   0  0  0  0  0  0  0  0  0  0  0  0
    9.2728    4.9736   25.6481 C   0  0  0  0  0  0  0  0  0  0  0  0
    9.9796    4.9088   24.4416 C   0  0  0  0  0  0  0  0  0  0  0  0
    9.7978    3.9168   23.5786 N   0  0  0  0  0  0  0  0  0  0  0  0
    8.8905    2.9464   23.8395 C   0  0  0  0  0  0  0  0  0  0  0  0
    8.7478    1.8600   22.8177 C   0  0  0  0  0  0  0  0  0  0  0  0
    7.7543    0.9989   22.6536 N   0  0  0  0  0  0  0  0  0  0  0  0
    8.1208    0.3120   21.5487 C   0  0  0  0  0  0  0  0  0  0  0  0
    7.2467   -0.7303   20.9151 C   0  0  0  0  0  0  0  0  0  0  0  0
    6.4714   -0.1304   19.7491 C   0  0  0  0  0  0  0  0  0  0  0  0
    5.2964    0.5903   19.9861 C   0  0  0  0  0  0  0  0  0  0  0  0
    4.7305    1.3242   18.9423 C   0  0  0  0  0  0  0  0  0  0  0  0
    5.3604    1.3064   17.6939 C   0  0  0  0  0  0  0  0  0  0  0  0
    6.4716    0.6002   17.4342 N   0  0  0  0  0  0  0  0  0  0  0  0
    7.0038   -0.0944   18.4476 C   0  0  0  0  0  0  0  0  0  0  0  0
    7.9189   -0.6449   18.2230 H   0  0  0  0  0  0  0  0  0  0  0  0
    4.9578    1.8888   16.8676 H   0  0  0  0  0  0  0  0  0  0  0  0
    3.8403    1.9251   19.0905 H   0  0  0  0  0  0  0  0  0  0  0  0
    4.8464    0.5794   20.9814 H   0  0  0  0  0  0  0  0  0  0  0  0
    7.8950   -1.5422   20.5737 H   0  0  0  0  0  0  0  0  0  0  0  0
    6.5785   -1.1143   21.6965 H   0  0  0  0  0  0  0  0  0  0  0  0
    9.2767    0.6668   21.0235 N   0  0  0  0  0  0  0  0  0  0  0  0
    9.6906    1.6512   21.8399 N   0  0  0  0  0  0  0  0  0  0  0  0
   11.0390    2.1150   21.8016 C   0  0  0  0  0  0  0  0  0  0  0  0
   11.5598    3.0054   20.8733 C   0  0  0  0  0  0  0  0  0  0  0  0
   12.6927    3.7942   21.1822 C   0  0  0  0  0  0  0  0  0  0  0  0
   13.4497    3.5181   22.3187 C   0  0  0  0  0  0  0  0  0  0  0  0
   13.0578    2.4302   23.1186 C   0  0  0  0  0  0  0  0  0  0  0  0
   11.8499    1.7712   22.8759 C   0  0  0  0  0  0  0  0  0  0  0  0
   11.7246    0.8399   23.8774 N   0  0  0  0  0  0  0  0  0  0  0  0
   12.8429    0.9496   24.6422 C   0  0  0  0  0  0  0  0  0  0  0  0
   13.6576    1.8650   24.2154 N   0  0  0  0  0  0  0  0  0  0  0  0
   13.0213    0.3315   25.5113 H   0  0  0  0  0  0  0  0  0  0  0  0
   10.9639    0.1972   23.9919 H   0  0  0  0  0  0  0  0  0  0  0  0
   14.3496    4.0712   22.5675 H   0  0  0  0  0  0  0  0  0  0  0  0
   12.9828    4.6051   20.5177 H   0  0  0  0  0  0  0  0  0  0  0  0
   11.0768    3.1200   19.9220 H   0  0  0  0  0  0  0  0  0  0  0  0
    8.1249    2.9880   25.0271 C   0  0  0  0  0  0  0  0  0  0  0  0
    7.2171    2.0547   25.3030 F   0  0  0  0  0  0  0  0  0  0  0  0
    8.3194    4.0131   25.9588 C   0  0  0  0  0  0  0  0  0  0  0  0
    7.7539    4.0576   26.8847 H   0  0  0  0  0  0  0  0  0  0  0  0
   10.7062    5.6729   24.1827 H   0  0  0  0  0  0  0  0  0  0  0  0
  1  2  1  0
  2  3  2  0
  3  4  1  0
  4  5  2  0
  5  6  1  0
  6  7  2  0
  7  8  1  0
  8  9  1  0
  9 10  1  0
 10 11  2  0
 11 12  1  0
 12 13  2  0
 13 14  1  0
 14 15  2  0
 15 16  1  0
 13 17  1  0
 12 18  1  0
 11 19  1  0
  9 20  1  0
  9 21  1  0
  8 22  2  0
 22 23  1  0
 23 24  1  0
 24 25  2  0
 25 26  1  0
 26 27  2  0
 27 28  1  0
 28 29  2  0
 29 30  1  0
 30 31  1  0
 31 32  2  0
 31 33  1  0
 30 34  1  0
 27 35  1  0
 26 36  1  0
 25 37  1  0
  5 38  1  0
 38 39  1  0
 38 40  2  0
 40 41  1  0
  3 42  1  0
 40  2  1  0
 23  6  1  0
 29 24  1  0
 15 10  1  0
 32 28  1  0
M  END
>  <cnnaffinity>  (1) 
-6.50851

>  <filename>  (1) 
Fc1cnc(-c2nc(Cc3cccnc3)nn2-c2cccc3nc[nH]c23)c(F)c1

$$$$
