
     RDKit          3D

 46 50  0  0  0  0  0  0  0  0999 V2000
   12.5585    5.5902   22.2731 F   0  0  0  0  0  0  0  0  0  0  0  0
   12.4939    4.2535   22.4002 C   0  0  0  0  0  0  0  0  0  0  0  0
   11.2351    3.6320   22.3954 C   0  0  0  0  0  0  0  0  0  0  0  0
   11.1121    2.2423   22.5026 C   0  0  0  0  0  0  0  0  0  0  0  0
    9.8265    1.5427   22.3858 C   0  0  0  0  0  0  0  0  0  0  0  0
    9.5394    0.5212   21.5856 N   0  0  0  0  0  0  0  0  0  0  0  0
    8.2141    0.3222   21.8017 C   0  0  0  0  0  0  0  0  0  0  0  0
    7.3907   -0.6628   21.0146 C   0  0  0  0  0  0  0  0  0  0  0  0
    6.6302   -0.0301   19.8530 C   0  0  0  0  0  0  0  0  0  0  0  0
    5.4235    0.6386   20.0888 C   0  0  0  0  0  0  0  0  0  0  0  0
    4.8069    1.3152   19.0342 C   0  0  0  0  0  0  0  0  0  0  0  0
    5.4206    1.2945   17.7792 C   0  0  0  0  0  0  0  0  0  0  0  0
    6.5614    0.6354   17.5201 N   0  0  0  0  0  0  0  0  0  0  0  0
    7.1380   -0.0115   18.5416 C   0  0  0  0  0  0  0  0  0  0  0  0
    8.0622   -0.5470   18.3151 H   0  0  0  0  0  0  0  0  0  0  0  0
    4.9770    1.8264   16.9400 H   0  0  0  0  0  0  0  0  0  0  0  0
    3.8781    1.8569   19.1759 H   0  0  0  0  0  0  0  0  0  0  0  0
    4.9911    0.6256   21.0910 H   0  0  0  0  0  0  0  0  0  0  0  0
    8.0584   -1.4503   20.6482 H   0  0  0  0  0  0  0  0  0  0  0  0
    6.6798   -1.1207   21.7122 H   0  0  0  0  0  0  0  0  0  0  0  0
    7.6911    1.1107   22.7267 N   0  0  0  0  0  0  0  0  0  0  0  0
    8.7360    1.8842   23.1086 N   0  0  0  0  0  0  0  0  0  0  0  0
    8.6092    2.8921   24.1633 C   0  0  0  0  0  0  0  0  0  0  0  0
    8.1755    4.2612   23.6640 C   0  0  0  0  0  0  0  0  0  0  0  0
    6.9999    4.3842   22.9189 C   0  0  0  0  0  0  0  0  0  0  0  0
    6.6167    5.6454   22.4595 C   0  0  0  0  0  0  0  0  0  0  0  0
    7.3230    6.7639   22.6793 N   0  0  0  0  0  0  0  0  0  0  0  0
    8.4586    6.6403   23.3759 C   0  0  0  0  0  0  0  0  0  0  0  0
    8.9134    5.4270   23.9081 C   0  0  0  0  0  0  0  0  0  0  0  0
    9.8570    5.3969   24.4455 H   0  0  0  0  0  0  0  0  0  0  0  0
    9.0375    7.5512   23.5185 H   0  0  0  0  0  0  0  0  0  0  0  0
    5.6928    5.7592   21.8959 H   0  0  0  0  0  0  0  0  0  0  0  0
    6.4096    3.5057   22.6772 H   0  0  0  0  0  0  0  0  0  0  0  0
    7.8930    2.5170   24.8985 H   0  0  0  0  0  0  0  0  0  0  0  0
    9.5783    2.9780   24.6571 H   0  0  0  0  0  0  0  0  0  0  0  0
   12.3051    1.5154   22.6551 C   0  0  0  0  0  0  0  0  0  0  0  0
   12.4987    0.1655   22.7331 N   0  0  0  0  0  0  0  0  0  0  0  0
   13.8538   -0.1005   22.6984 C   0  0  0  0  0  0  0  0  0  0  0  0
   14.5353    1.0781   22.6426 C   0  0  0  0  0  0  0  0  0  0  0  0
   13.5721    2.1426   22.6585 C   0  0  0  0  0  0  0  0  0  0  0  0
   13.6693    3.5442   22.5330 C   0  0  0  0  0  0  0  0  0  0  0  0
   14.6199    4.0613   22.4766 H   0  0  0  0  0  0  0  0  0  0  0  0
   15.5725    1.2182   22.3818 H   0  0  0  0  0  0  0  0  0  0  0  0
   14.2170   -1.1217   22.7047 H   0  0  0  0  0  0  0  0  0  0  0  0
   11.7390   -0.4403   22.4598 H   0  0  0  0  0  0  0  0  0  0  0  0
   10.3659    4.2540   22.2706 H   0  0  0  0  0  0  0  0  0  0  0  0
  1  2  1  0
  2  3  2  0
  3  4  1  0
  4  5  1  0
  5  6  2  0
  6  7  1  0
  7  8  1  0
  8  9  1  0
  9 10  2  0
 10 11  1  0
 11 12  2  0
 12 13  1  0
 13 14  2  0
 14 15  1  0
 12 16  1  0
 11 17  1  0
 10 18  1  0
  8 19  1  0
  8 20  1  0
  7 21  2  0
 21 22  1  0
 22 23  1  0
 23 24  1  0
 24 25  2  0
 25 26  1  0
 26 27  2  0
 27 28  1  0
 28 29  2  0
 29 30  1  0
 28 31  1  0
 26 32  1  0
 25 33  1  0
 23 34  1  0
 23 35  1  0
  4 36  2  0
 36 37  1  0
 37 38  1  0
 38 39  2  0
 39 40  1  0
 40 41  2  0
 41 42  1  0
 39 43  1  0
 38 44  1  0
 37 45  1  0
  3 46  1  0
 41  2  1  0
 22  5  1  0
 29 24  1  0
 40 36  1  0
 14  9  1  0
M  END
>  <cnnaffinity>  (1) 
-6.53046

>  <filename>  (1) 
Fc1cc(-c2nc(Cc3cccnc3)nn2Cc2ccncc2)c2[nH]ccc2c1

$$$$
