
     RDKit          3D

 32 34  0  0  0  0  0  0  0  0999 V2000
    5.0248   -1.2817   25.9020 F   0  0  0  0  0  0  0  0  0  0  0  0
    6.3392   -1.1517   25.5938 C   0  0  0  0  0  0  0  0  0  0  0  0
    6.8745   -1.8327   24.4872 C   0  0  0  0  0  0  0  0  0  0  0  0
    6.0742   -2.6295   23.7364 F   0  0  0  0  0  0  0  0  0  0  0  0
    8.2373   -1.7007   24.1647 C   0  0  0  0  0  0  0  0  0  0  0  0
    8.8280   -2.4218   22.9795 C   0  0  0  0  0  0  0  0  0  0  0  0
    9.3671   -1.4501   22.0258 N   0  0  0  0  0  0  0  0  0  0  0  0
   10.6870   -1.0910   21.8971 C   0  0  0  0  0  0  0  0  0  0  0  0
   10.7999   -0.1669   20.9835 N   0  0  0  0  0  0  0  0  0  0  0  0
    9.5448    0.0775   20.4795 N   0  0  0  0  0  0  0  0  0  0  0  0
    8.6933   -0.6800   21.1172 C   0  0  0  0  0  0  0  0  0  0  0  0
    7.3161   -0.6958   20.9413 N   0  0  0  0  0  0  0  0  0  0  0  0
    6.6663    0.0009   19.9014 C   0  0  0  0  0  0  0  0  0  0  0  0
    5.4497    0.6295   20.1635 C   0  0  0  0  0  0  0  0  0  0  0  0
    4.8187    1.3019   19.1071 C   0  0  0  0  0  0  0  0  0  0  0  0
    5.3996    1.2981   17.8248 C   0  0  0  0  0  0  0  0  0  0  0  0
    6.5681    0.6887   17.5530 N   0  0  0  0  0  0  0  0  0  0  0  0
    7.1871    0.0738   18.5833 C   0  0  0  0  0  0  0  0  0  0  0  0
    8.1283   -0.4344   18.3970 H   0  0  0  0  0  0  0  0  0  0  0  0
    4.8832    1.7959   17.0102 H   0  0  0  0  0  0  0  0  0  0  0  0
    3.8825    1.8334   19.2636 H   0  0  0  0  0  0  0  0  0  0  0  0
    5.0206    0.6183   21.1656 H   0  0  0  0  0  0  0  0  0  0  0  0
    6.7720   -1.1010   21.6946 H   0  0  0  0  0  0  0  0  0  0  0  0
   11.5170   -1.4981   22.4678 H   0  0  0  0  0  0  0  0  0  0  0  0
    8.0788   -3.0544   22.4914 H   0  0  0  0  0  0  0  0  0  0  0  0
    9.6250   -3.0885   23.3298 H   0  0  0  0  0  0  0  0  0  0  0  0
    9.0555   -0.8935   24.9716 C   0  0  0  0  0  0  0  0  0  0  0  0
    8.5220   -0.2152   26.0723 C   0  0  0  0  0  0  0  0  0  0  0  0
    7.1648   -0.3400   26.3856 C   0  0  0  0  0  0  0  0  0  0  0  0
    6.4526    0.5964   27.8970 Br  0  0  0  0  0  0  0  0  0  0  0  0
    9.1619    0.4115   26.6886 H   0  0  0  0  0  0  0  0  0  0  0  0
   10.1114   -0.7854   24.7421 H   0  0  0  0  0  0  0  0  0  0  0  0
  1  2  1  0
  2  3  2  0
  3  4  1  0
  3  5  1  0
  5  6  1  0
  6  7  1  0
  7  8  1  0
  8  9  2  0
  9 10  1  0
 10 11  2  0
 11 12  1  0
 12 13  1  0
 13 14  2  0
 14 15  1  0
 15 16  2  0
 16 17  1  0
 17 18  2  0
 18 19  1  0
 16 20  1  0
 15 21  1  0
 14 22  1  0
 12 23  1  0
  8 24  1  0
  6 25  1  0
  6 26  1  0
  5 27  2  0
 27 28  1  0
 28 29  2  0
 29 30  1  0
 28 31  1  0
 27 32  1  0
 29  2  1  0
 11  7  1  0
 18 13  1  0
M  END
>  <cnnaffinity>  (1) 
-5.8257

>  <filename>  (1) 
Fc1c(Br)ccc(Cn2cnnc2Nc2cccnc2)c1F

$$$$
