
     RDKit          3D

 42 46  0  0  0  0  0  0  0  0999 V2000
    9.4210   -6.4368   25.0343 F   0  0  0  0  0  0  0  0  0  0  0  0
    9.0283   -5.6877   23.9911 C   0  0  0  0  0  0  0  0  0  0  0  0
    8.2345   -6.2734   23.0143 C   0  0  0  0  0  0  0  0  0  0  0  0
    7.8535   -5.4831   21.9381 C   0  0  0  0  0  0  0  0  0  0  0  0
    7.0992   -6.0383   20.9766 F   0  0  0  0  0  0  0  0  0  0  0  0
    8.2489   -4.1639   21.8077 C   0  0  0  0  0  0  0  0  0  0  0  0
    9.0983   -3.6078   22.7751 C   0  0  0  0  0  0  0  0  0  0  0  0
    9.6204   -2.1877   22.5676 C   0  0  0  0  0  0  0  0  0  0  0  0
    8.5517   -1.2525   22.2176 N   0  0  0  0  0  0  0  0  0  0  0  0
    8.3375   -0.8605   20.9455 N   0  0  0  0  0  0  0  0  0  0  0  0
    7.1463   -0.2841   21.0083 C   0  0  0  0  0  0  0  0  0  0  0  0
    6.4931    0.2912   19.8316 C   0  0  0  0  0  0  0  0  0  0  0  0
    5.2477    0.9392   19.8898 C   0  0  0  0  0  0  0  0  0  0  0  0
    4.7307    1.4732   18.7116 C   0  0  0  0  0  0  0  0  0  0  0  0
    5.4629    1.3333   17.5278 C   0  0  0  0  0  0  0  0  0  0  0  0
    6.6367    0.6898   17.4561 N   0  0  0  0  0  0  0  0  0  0  0  0
    7.1362    0.1874   18.5886 C   0  0  0  0  0  0  0  0  0  0  0  0
    8.0931   -0.3248   18.5016 H   0  0  0  0  0  0  0  0  0  0  0  0
    5.0965    1.7565   16.5958 H   0  0  0  0  0  0  0  0  0  0  0  0
    3.7888    2.0102   18.6933 H   0  0  0  0  0  0  0  0  0  0  0  0
    4.7057    1.0209   20.8338 H   0  0  0  0  0  0  0  0  0  0  0  0
    6.5724   -0.3219   22.2374 N   0  0  0  0  0  0  0  0  0  0  0  0
    7.4727   -0.9427   22.9799 C   0  0  0  0  0  0  0  0  0  0  0  0
    7.4113   -1.4573   24.3844 C   0  0  0  0  0  0  0  0  0  0  0  0
    6.5526   -2.4938   24.8335 C   0  0  0  0  0  0  0  0  0  0  0  0
    6.6942   -3.0435   26.1212 C   0  0  0  0  0  0  0  0  0  0  0  0
    7.6005   -2.6385   27.0327 N   0  0  0  0  0  0  0  0  0  0  0  0
    8.3842   -1.6658   26.5857 C   0  0  0  0  0  0  0  0  0  0  0  0
    8.3913   -1.0555   25.3130 C   0  0  0  0  0  0  0  0  0  0  0  0
    9.4270   -0.1350   25.2366 N   0  0  0  0  0  0  0  0  0  0  0  0
    9.9705   -0.1600   26.4233 C   0  0  0  0  0  0  0  0  0  0  0  0
    9.4148   -1.0805   27.2640 N   0  0  0  0  0  0  0  0  0  0  0  0
    9.5322   -1.1768   28.2540 H   0  0  0  0  0  0  0  0  0  0  0  0
   10.8085    0.4569   26.7154 H   0  0  0  0  0  0  0  0  0  0  0  0
    6.0515   -3.8657   26.4277 H   0  0  0  0  0  0  0  0  0  0  0  0
    5.7887   -2.8853   24.1710 H   0  0  0  0  0  0  0  0  0  0  0  0
   10.3580   -2.1487   21.7632 H   0  0  0  0  0  0  0  0  0  0  0  0
   10.0861   -1.8212   23.4850 H   0  0  0  0  0  0  0  0  0  0  0  0
    9.4702   -4.3693   23.8948 C   0  0  0  0  0  0  0  0  0  0  0  0
   10.1097   -3.9851   24.6842 H   0  0  0  0  0  0  0  0  0  0  0  0
    7.8705   -3.5824   20.9712 H   0  0  0  0  0  0  0  0  0  0  0  0
    7.9473   -7.3093   23.0552 H   0  0  0  0  0  0  0  0  0  0  0  0
  1  2  1  0
  2  3  2  0
  3  4  1  0
  4  5  1  0
  4  6  2  0
  6  7  1  0
  7  8  1  0
  8  9  1  0
  9 10  1  0
 10 11  2  0
 11 12  1  0
 12 13  2  0
 13 14  1  0
 14 15  2  0
 15 16  1  0
 16 17  2  0
 17 18  1  0
 15 19  1  0
 14 20  1  0
 13 21  1  0
 11 22  1  0
 22 23  2  0
 23 24  1  0
 24 25  2  0
 25 26  1  0
 26 27  2  0
 27 28  1  0
 28 29  2  0
 29 30  1  0
 30 31  2  0
 31 32  1  0
 32 33  1  0
 31 34  1  0
 26 35  1  0
 25 36  1  0
  8 37  1  0
  8 38  1  0
  7 39  2  0
 39 40  1  0
  6 41  1  0
  3 42  1  0
 39  2  1  0
 23  9  1  0
 29 24  1  0
 17 12  1  0
 32 28  1  0
M  END
>  <cnnaffinity>  (1) 
-6.3705

>  <filename>  (1) 
Fc1cc(F)cc(Cn2nc(-c3cccnc3)nc2-c2ccnc3[nH]cnc23)c1

$$$$
