
     RDKit          3D

 42 46  0  0  0  0  0  0  0  0999 V2000
    7.4205    5.8693   26.7487 F   0  0  0  0  0  0  0  0  0  0  0  0
    7.6134    4.7971   25.9785 C   0  0  0  0  0  0  0  0  0  0  0  0
    6.6864    4.5279   24.9636 C   0  0  0  0  0  0  0  0  0  0  0  0
    6.9590    3.4604   24.1158 C   0  0  0  0  0  0  0  0  0  0  0  0
    8.1407    2.7260   24.3149 C   0  0  0  0  0  0  0  0  0  0  0  0
    8.5189    1.7517   23.3536 N   0  0  0  0  0  0  0  0  0  0  0  0
    7.5552    1.0103   22.7440 N   0  0  0  0  0  0  0  0  0  0  0  0
    8.2425    0.2578   21.9035 C   0  0  0  0  0  0  0  0  0  0  0  0
    7.6056   -0.6684   20.9041 C   0  0  0  0  0  0  0  0  0  0  0  0
    6.8387    0.0216   19.7733 C   0  0  0  0  0  0  0  0  0  0  0  0
    5.6717    0.7528   20.0379 C   0  0  0  0  0  0  0  0  0  0  0  0
    4.9748    1.3164   18.9659 C   0  0  0  0  0  0  0  0  0  0  0  0
    5.4889    1.1679   17.6747 C   0  0  0  0  0  0  0  0  0  0  0  0
    6.6263    0.5118   17.4029 N   0  0  0  0  0  0  0  0  0  0  0  0
    7.2725   -0.0398   18.4370 C   0  0  0  0  0  0  0  0  0  0  0  0
    8.2041   -0.5541   18.2008 H   0  0  0  0  0  0  0  0  0  0  0  0
    4.9627    1.5819   16.8174 H   0  0  0  0  0  0  0  0  0  0  0  0
    4.0610    1.8807   19.1150 H   0  0  0  0  0  0  0  0  0  0  0  0
    5.3428    0.8994   21.0680 H   0  0  0  0  0  0  0  0  0  0  0  0
    8.4075   -1.2919   20.4959 H   0  0  0  0  0  0  0  0  0  0  0  0
    6.9327   -1.3339   21.4561 H   0  0  0  0  0  0  0  0  0  0  0  0
    9.5827    0.4345   21.9475 N   0  0  0  0  0  0  0  0  0  0  0  0
    9.7359    1.4301   22.8015 C   0  0  0  0  0  0  0  0  0  0  0  0
   11.0070    2.1267   22.9754 C   0  0  0  0  0  0  0  0  0  0  0  0
   12.1683    1.3553   23.0012 C   0  0  0  0  0  0  0  0  0  0  0  0
   13.4115    1.8661   22.9992 N   0  0  0  0  0  0  0  0  0  0  0  0
   13.5695    3.1884   22.9345 C   0  0  0  0  0  0  0  0  0  0  0  0
   12.4663    4.0642   22.9433 C   0  0  0  0  0  0  0  0  0  0  0  0
   11.1562    3.5392   22.9440 C   0  0  0  0  0  0  0  0  0  0  0  0
   10.2842    4.6693   22.8580 C   0  0  0  0  0  0  0  0  0  0  0  0
   11.0496    5.7912   22.8555 C   0  0  0  0  0  0  0  0  0  0  0  0
   12.3794    5.4362   22.9021 N   0  0  0  0  0  0  0  0  0  0  0  0
   13.1492    6.0682   23.0826 H   0  0  0  0  0  0  0  0  0  0  0  0
   10.7513    6.8295   22.8135 H   0  0  0  0  0  0  0  0  0  0  0  0
    9.2076    4.6247   22.7650 H   0  0  0  0  0  0  0  0  0  0  0  0
   14.5834    3.5713   22.8518 H   0  0  0  0  0  0  0  0  0  0  0  0
   12.0962    0.2676   23.0186 H   0  0  0  0  0  0  0  0  0  0  0  0
    8.9380    3.0410   25.4247 C   0  0  0  0  0  0  0  0  0  0  0  0
    8.6846    4.0815   26.2351 N   0  0  0  0  0  0  0  0  0  0  0  0
    9.8566    2.4908   25.6257 H   0  0  0  0  0  0  0  0  0  0  0  0
    6.2807    3.1743   23.3093 H   0  0  0  0  0  0  0  0  0  0  0  0
    5.8031    5.1436   24.8654 H   0  0  0  0  0  0  0  0  0  0  0  0
  1  2  1  0
  2  3  2  0
  3  4  1  0
  4  5  2  0
  5  6  1  0
  6  7  1  0
  7  8  2  0
  8  9  1  0
  9 10  1  0
 10 11  2  0
 11 12  1  0
 12 13  2  0
 13 14  1  0
 14 15  2  0
 15 16  1  0
 13 17  1  0
 12 18  1  0
 11 19  1  0
  9 20  1  0
  9 21  1  0
  8 22  1  0
 22 23  2  0
 23 24  1  0
 24 25  2  0
 25 26  1  0
 26 27  2  0
 27 28  1  0
 28 29  2  0
 29 30  1  0
 30 31  2  0
 31 32  1  0
 32 33  1  0
 31 34  1  0
 30 35  1  0
 27 36  1  0
 25 37  1  0
  5 38  1  0
 38 39  2  0
 38 40  1  0
  4 41  1  0
  3 42  1  0
 39  2  1  0
 23  6  1  0
 29 24  1  0
 15 10  1  0
 32 28  1  0
M  END
>  <cnnaffinity>  (1) 
-5.76319

>  <filename>  (1) 
Fc1ccc(-n2nc(Cc3cccnc3)nc2-c2cncc3[nH]ccc23)cn1

$$$$
