
     RDKit          3D

 45 49  0  0  0  0  0  0  0  0999 V2000
   13.0083    5.1981   22.3013 F   0  0  0  0  0  0  0  0  0  0  0  0
   12.7973    3.8730   22.3367 C   0  0  0  0  0  0  0  0  0  0  0  0
   13.8639    3.0449   22.6506 C   0  0  0  0  0  0  0  0  0  0  0  0
   13.6582    1.6555   22.6845 C   0  0  0  0  0  0  0  0  0  0  0  0
   12.4088    1.1147   22.3594 C   0  0  0  0  0  0  0  0  0  0  0  0
   11.3322    1.9856   22.1360 C   0  0  0  0  0  0  0  0  0  0  0  0
   10.0036    1.4676   22.0874 N   0  0  0  0  0  0  0  0  0  0  0  0
    9.5924    0.4496   21.2832 N   0  0  0  0  0  0  0  0  0  0  0  0
    8.3266    0.3001   21.6290 C   0  0  0  0  0  0  0  0  0  0  0  0
    7.4141   -0.6788   20.9498 C   0  0  0  0  0  0  0  0  0  0  0  0
    6.6339   -0.0413   19.8140 C   0  0  0  0  0  0  0  0  0  0  0  0
    5.4357    0.6288   20.0818 C   0  0  0  0  0  0  0  0  0  0  0  0
    4.7984    1.3095   19.0443 C   0  0  0  0  0  0  0  0  0  0  0  0
    5.3904    1.3035   17.7783 C   0  0  0  0  0  0  0  0  0  0  0  0
    6.5320    0.6568   17.4958 N   0  0  0  0  0  0  0  0  0  0  0  0
    7.1296    0.0060   18.5010 C   0  0  0  0  0  0  0  0  0  0  0  0
    8.0625   -0.5052   18.2557 H   0  0  0  0  0  0  0  0  0  0  0  0
    4.9269    1.8396   16.9526 H   0  0  0  0  0  0  0  0  0  0  0  0
    3.8768    1.8546   19.2102 H   0  0  0  0  0  0  0  0  0  0  0  0
    5.0305    0.6256   21.0962 H   0  0  0  0  0  0  0  0  0  0  0  0
    6.7238   -1.0633   21.7083 H   0  0  0  0  0  0  0  0  0  0  0  0
    8.0207   -1.5140   20.5897 H   0  0  0  0  0  0  0  0  0  0  0  0
    7.9011    1.1275   22.6184 N   0  0  0  0  0  0  0  0  0  0  0  0
    8.9803    1.8278   22.9080 C   0  0  0  0  0  0  0  0  0  0  0  0
    9.0827    2.8644   23.9962 C   0  0  0  0  0  0  0  0  0  0  0  0
    8.3125    4.1736   23.6519 C   0  0  0  0  0  0  0  0  0  0  0  0
    7.2897    4.3528   24.6440 O   0  0  0  0  0  0  0  0  0  0  0  0
    7.3889    3.3499   25.5543 C   0  0  0  0  0  0  0  0  0  0  0  0
    6.5360    3.1777   26.6430 C   0  0  0  0  0  0  0  0  0  0  0  0
    6.7649    2.0715   27.4779 C   0  0  0  0  0  0  0  0  0  0  0  0
    7.8198    1.1794   27.2274 C   0  0  0  0  0  0  0  0  0  0  0  0
    8.6634    1.3742   26.1248 C   0  0  0  0  0  0  0  0  0  0  0  0
    8.4252    2.4663   25.2944 C   0  0  0  0  0  0  0  0  0  0  0  0
    9.4782    0.6875   25.9074 H   0  0  0  0  0  0  0  0  0  0  0  0
    7.9839    0.3272   27.8832 H   0  0  0  0  0  0  0  0  0  0  0  0
    6.1092    1.9001   28.3294 H   0  0  0  0  0  0  0  0  0  0  0  0
    5.7262    3.8800   26.8074 H   0  0  0  0  0  0  0  0  0  0  0  0
    7.8198    4.1383   22.6714 H   0  0  0  0  0  0  0  0  0  0  0  0
    8.9732    5.0486   23.6865 H   0  0  0  0  0  0  0  0  0  0  0  0
   10.1396    3.0828   24.1881 H   0  0  0  0  0  0  0  0  0  0  0  0
   11.5204    3.3773   22.1206 C   0  0  0  0  0  0  0  0  0  0  0  0
   10.6886    4.0708   22.0628 H   0  0  0  0  0  0  0  0  0  0  0  0
   12.2540    0.0389   22.3066 H   0  0  0  0  0  0  0  0  0  0  0  0
   14.4722    0.9812   22.9448 H   0  0  0  0  0  0  0  0  0  0  0  0
   14.8216    3.5270   22.7910 H   0  0  0  0  0  0  0  0  0  0  0  0
  1  2  1  0
  2  3  2  0
  3  4  1  0
  4  5  2  0
  5  6  1  0
  6  7  1  0
  7  8  1  0
  8  9  2  0
  9 10  1  0
 10 11  1  0
 11 12  2  0
 12 13  1  0
 13 14  2  0
 14 15  1  0
 15 16  2  0
 16 17  1  0
 14 18  1  0
 13 19  1  0
 12 20  1  0
 10 21  1  0
 10 22  1  0
  9 23  1  0
 23 24  2  0
 24 25  1  0
 25 26  1  0
 26 27  1  0
 27 28  1  0
 28 29  2  0
 29 30  1  0
 30 31  2  0
 31 32  1  0
 32 33  2  0
 32 34  1  0
 31 35  1  0
 30 36  1  0
 29 37  1  0
 26 38  1  0
 26 39  1  0
 25 40  1  0
  6 41  2  0
 41 42  1  0
  5 43  1  0
  4 44  1  0
  3 45  1  0
 41  2  1  0
 24  7  1  0
 33 25  1  0
 16 11  1  0
 33 28  1  0
M  END
>  <cnnaffinity>  (1) 
-6.17362

>  <filename>  (1) 
Fc1cccc(-n2nc(Cc3cccnc3)nc2C2COc3ccccc32)c1

$$$$
