
     RDKit          3D

 45 49  0  0  0  0  0  0  0  0999 V2000
    8.4985    5.0776   22.2022 F   0  0  0  0  0  0  0  0  0  0  0  0
    7.5107    4.7594   23.0650 C   0  0  0  0  0  0  0  0  0  0  0  0
    6.3325    5.4996   23.0076 C   0  0  0  0  0  0  0  0  0  0  0  0
    5.3062    5.2073   23.9117 C   0  0  0  0  0  0  0  0  0  0  0  0
    5.4637    4.1848   24.8495 C   0  0  0  0  0  0  0  0  0  0  0  0
    6.6542    3.4540   24.8759 C   0  0  0  0  0  0  0  0  0  0  0  0
    7.6995    3.7217   23.9825 C   0  0  0  0  0  0  0  0  0  0  0  0
    8.9394    2.8591   23.9802 C   0  0  0  0  0  0  0  0  0  0  0  0
    8.9504    1.8857   22.8890 N   0  0  0  0  0  0  0  0  0  0  0  0
    7.8741    1.0929   22.6764 N   0  0  0  0  0  0  0  0  0  0  0  0
    8.2768    0.2907   21.7140 C   0  0  0  0  0  0  0  0  0  0  0  0
    7.3750   -0.6915   21.0182 C   0  0  0  0  0  0  0  0  0  0  0  0
    6.6120   -0.0414   19.8610 C   0  0  0  0  0  0  0  0  0  0  0  0
    5.4113    0.6396   20.1072 C   0  0  0  0  0  0  0  0  0  0  0  0
    4.7821    1.3143   19.0593 C   0  0  0  0  0  0  0  0  0  0  0  0
    5.3849    1.3024   17.8001 C   0  0  0  0  0  0  0  0  0  0  0  0
    6.5353    0.6650   17.5375 N   0  0  0  0  0  0  0  0  0  0  0  0
    7.1272    0.0198   18.5509 C   0  0  0  0  0  0  0  0  0  0  0  0
    8.0786   -0.4570   18.3058 H   0  0  0  0  0  0  0  0  0  0  0  0
    4.9358    1.8392   16.9679 H   0  0  0  0  0  0  0  0  0  0  0  0
    3.8593    1.8623   19.2073 H   0  0  0  0  0  0  0  0  0  0  0  0
    4.9974    0.6689   21.1168 H   0  0  0  0  0  0  0  0  0  0  0  0
    6.6788   -1.1021   21.7608 H   0  0  0  0  0  0  0  0  0  0  0  0
    8.0178   -1.5130   20.6818 H   0  0  0  0  0  0  0  0  0  0  0  0
    9.5680    0.4639   21.3388 N   0  0  0  0  0  0  0  0  0  0  0  0
    9.9756    1.4604   22.1143 C   0  0  0  0  0  0  0  0  0  0  0  0
   11.3554    1.9676   22.2931 C   0  0  0  0  0  0  0  0  0  0  0  0
   11.7245    3.3223   22.1985 C   0  0  0  0  0  0  0  0  0  0  0  0
   13.0711    3.7179   22.3590 C   0  0  0  0  0  0  0  0  0  0  0  0
   14.0641    2.8902   22.6623 N   0  0  0  0  0  0  0  0  0  0  0  0
   13.6987    1.6049   22.7355 C   0  0  0  0  0  0  0  0  0  0  0  0
   12.4124    1.0663   22.5542 C   0  0  0  0  0  0  0  0  0  0  0  0
   12.6349   -0.3435   22.6474 C   0  0  0  0  0  0  0  0  0  0  0  0
   13.9048   -0.6294   22.8248 N   0  0  0  0  0  0  0  0  0  0  0  0
   14.5328    0.5636   22.9125 N   0  0  0  0  0  0  0  0  0  0  0  0
   15.5257    0.6655   22.8072 H   0  0  0  0  0  0  0  0  0  0  0  0
   11.9034   -1.1340   22.5694 H   0  0  0  0  0  0  0  0  0  0  0  0
   13.3503    4.7614   22.2303 H   0  0  0  0  0  0  0  0  0  0  0  0
   11.0002    4.1005   22.0050 H   0  0  0  0  0  0  0  0  0  0  0  0
    9.0130    2.2981   24.9185 H   0  0  0  0  0  0  0  0  0  0  0  0
    9.8348    3.4763   23.8908 H   0  0  0  0  0  0  0  0  0  0  0  0
    6.7749    2.6476   25.5966 H   0  0  0  0  0  0  0  0  0  0  0  0
    4.6691    3.9533   25.5517 H   0  0  0  0  0  0  0  0  0  0  0  0
    4.3818    5.7765   23.8781 H   0  0  0  0  0  0  0  0  0  0  0  0
    6.2431    6.2748   22.2538 H   0  0  0  0  0  0  0  0  0  0  0  0
  1  2  1  0
  2  3  2  0
  3  4  1  0
  4  5  2  0
  5  6  1  0
  6  7  2  0
  7  8  1  0
  8  9  1  0
  9 10  1  0
 10 11  2  0
 11 12  1  0
 12 13  1  0
 13 14  2  0
 14 15  1  0
 15 16  2  0
 16 17  1  0
 17 18  2  0
 18 19  1  0
 16 20  1  0
 15 21  1  0
 14 22  1  0
 12 23  1  0
 12 24  1  0
 11 25  1  0
 25 26  2  0
 26 27  1  0
 27 28  2  0
 28 29  1  0
 29 30  2  0
 30 31  1  0
 31 32  2  0
 32 33  1  0
 33 34  2  0
 34 35  1  0
 35 36  1  0
 33 37  1  0
 29 38  1  0
 28 39  1  0
  8 40  1  0
  8 41  1  0
  6 42  1  0
  5 43  1  0
  4 44  1  0
  3 45  1  0
  7  2  1  0
 26  9  1  0
 32 27  1  0
 18 13  1  0
 35 31  1  0
M  END
>  <cnnaffinity>  (1) 
-6.82146

>  <filename>  (1) 
Fc1ccccc1Cn1nc(Cc2cccnc2)nc1-c1ccnc2[nH]ncc12

$$$$
