
     RDKit          3D

 33 35  0  0  0  0  0  0  0  0999 V2000
    5.4616    5.2388   25.3003 F   0  0  0  0  0  0  0  0  0  0  0  0
    4.9631    3.9881   25.1934 C   0  0  0  0  0  0  0  0  0  0  0  0
    3.7388    3.6749   25.7785 C   0  0  0  0  0  0  0  0  0  0  0  0
    3.2162    2.3862   25.6763 C   0  0  0  0  0  0  0  0  0  0  0  0
    1.5373    1.9711   26.4840 Br  0  0  0  0  0  0  0  0  0  0  0  0
    3.9355    1.4108   24.9774 C   0  0  0  0  0  0  0  0  0  0  0  0
    5.1589    1.7137   24.3799 C   0  0  0  0  0  0  0  0  0  0  0  0
    5.8380    0.7254   23.6741 N   0  0  0  0  0  0  0  0  0  0  0  0
    7.1139    0.9276   22.9746 C   0  0  0  0  0  0  0  0  0  0  0  0
    7.5449   -0.3595   22.3198 C   0  0  0  0  0  0  0  0  0  0  0  0
    8.3170   -1.3404   22.8745 C   0  0  0  0  0  0  0  0  0  0  0  0
    8.5487   -2.2410   21.8465 N   0  0  0  0  0  0  0  0  0  0  0  0
    7.9959   -1.8558   20.6640 N   0  0  0  0  0  0  0  0  0  0  0  0
    7.3681   -0.7339   20.9227 C   0  0  0  0  0  0  0  0  0  0  0  0
    6.6545    0.0085   19.8997 C   0  0  0  0  0  0  0  0  0  0  0  0
    5.4504    0.6612   20.1731 C   0  0  0  0  0  0  0  0  0  0  0  0
    4.8276    1.3096   19.1090 C   0  0  0  0  0  0  0  0  0  0  0  0
    5.4063    1.2932   17.8340 C   0  0  0  0  0  0  0  0  0  0  0  0
    6.5699    0.6672   17.5823 N   0  0  0  0  0  0  0  0  0  0  0  0
    7.1781    0.0391   18.6010 C   0  0  0  0  0  0  0  0  0  0  0  0
    8.1268   -0.4504   18.4016 H   0  0  0  0  0  0  0  0  0  0  0  0
    4.8931    1.7954   17.0195 H   0  0  0  0  0  0  0  0  0  0  0  0
    3.8885    1.8285   19.2593 H   0  0  0  0  0  0  0  0  0  0  0  0
    5.0038    0.6457   21.1706 H   0  0  0  0  0  0  0  0  0  0  0  0
    9.0886   -3.0972   21.9591 H   0  0  0  0  0  0  0  0  0  0  0  0
    8.6894   -1.3916   23.8967 H   0  0  0  0  0  0  0  0  0  0  0  0
    7.8810    1.2397   23.6922 H   0  0  0  0  0  0  0  0  0  0  0  0
    7.0081    1.7243   22.2303 H   0  0  0  0  0  0  0  0  0  0  0  0
    5.4311   -0.2080   23.6469 H   0  0  0  0  0  0  0  0  0  0  0  0
    5.6674    3.0052   24.4978 C   0  0  0  0  0  0  0  0  0  0  0  0
    6.6164    3.2436   24.0412 H   0  0  0  0  0  0  0  0  0  0  0  0
    3.5416    0.4057   24.8972 H   0  0  0  0  0  0  0  0  0  0  0  0
    3.1932    4.4416   26.3171 H   0  0  0  0  0  0  0  0  0  0  0  0
  1  2  1  0
  2  3  2  0
  3  4  1  0
  4  5  1  0
  4  6  2  0
  6  7  1  0
  7  8  1  0
  8  9  1  0
  9 10  1  0
 10 11  2  0
 11 12  1  0
 12 13  1  0
 13 14  2  0
 14 15  1  0
 15 16  2  0
 16 17  1  0
 17 18  2  0
 18 19  1  0
 19 20  2  0
 20 21  1  0
 18 22  1  0
 17 23  1  0
 16 24  1  0
 12 25  1  0
 11 26  1  0
  9 27  1  0
  9 28  1  0
  8 29  1  0
  7 30  2  0
 30 31  1  0
  6 32  1  0
  3 33  1  0
 30  2  1  0
 14 10  1  0
 20 15  1  0
M  END
>  <cnnaffinity>  (1) 
-4.81896

>  <filename>  (1) 
Fc1cc(Br)cc(NCc2c[nH]nc2-c2cccnc2)c1

$$$$
