
     RDKit          3D

 35 38  0  0  0  0  0  0  0  0999 V2000
    3.7979   -2.8214   30.0899 F   0  0  0  0  0  0  0  0  0  0  0  0
    4.2643   -1.9557   29.1751 C   0  0  0  0  0  0  0  0  0  0  0  0
    3.6998   -0.6833   29.1105 C   0  0  0  0  0  0  0  0  0  0  0  0
    4.1943    0.2113   28.1566 C   0  0  0  0  0  0  0  0  0  0  0  0
    5.2246   -0.1722   27.2940 C   0  0  0  0  0  0  0  0  0  0  0  0
    5.7866   -1.4595   27.3707 C   0  0  0  0  0  0  0  0  0  0  0  0
    6.8732   -1.8605   26.4326 C   0  0  0  0  0  0  0  0  0  0  0  0
    7.9767   -2.6243   26.8515 C   0  0  0  0  0  0  0  0  0  0  0  0
    8.9849   -2.9985   26.0568 N   0  0  0  0  0  0  0  0  0  0  0  0
    8.9381   -2.6334   24.7733 C   0  0  0  0  0  0  0  0  0  0  0  0
    7.8874   -1.8750   24.2384 C   0  0  0  0  0  0  0  0  0  0  0  0
    7.8644   -1.4826   22.8310 C   0  0  0  0  0  0  0  0  0  0  0  0
    6.9438   -0.7805   22.2435 N   0  0  0  0  0  0  0  0  0  0  0  0
    7.4004   -0.7069   20.9538 C   0  0  0  0  0  0  0  0  0  0  0  0
    6.6592    0.0076   19.9101 C   0  0  0  0  0  0  0  0  0  0  0  0
    5.4375    0.6508   20.1699 C   0  0  0  0  0  0  0  0  0  0  0  0
    4.8093    1.3059   19.1132 C   0  0  0  0  0  0  0  0  0  0  0  0
    5.4074    1.2860   17.8476 C   0  0  0  0  0  0  0  0  0  0  0  0
    6.5701    0.6700   17.5925 N   0  0  0  0  0  0  0  0  0  0  0  0
    7.1799    0.0542   18.6085 C   0  0  0  0  0  0  0  0  0  0  0  0
    8.1247   -0.4283   18.3719 H   0  0  0  0  0  0  0  0  0  0  0  0
    4.9266    1.7749   17.0028 H   0  0  0  0  0  0  0  0  0  0  0  0
    3.8781    1.8402   19.2586 H   0  0  0  0  0  0  0  0  0  0  0  0
    5.0035    0.6332   21.1733 H   0  0  0  0  0  0  0  0  0  0  0  0
    8.5335   -1.3263   20.7518 N   0  0  0  0  0  0  0  0  0  0  0  0
    8.8467   -1.8461   22.0042 O   0  0  0  0  0  0  0  0  0  0  0  0
    6.8457   -1.4842   25.0877 C   0  0  0  0  0  0  0  0  0  0  0  0
    6.0070   -0.9053   24.6929 H   0  0  0  0  0  0  0  0  0  0  0  0
    9.7737   -2.9663   24.1638 H   0  0  0  0  0  0  0  0  0  0  0  0
    8.0634   -2.9376   27.8859 H   0  0  0  0  0  0  0  0  0  0  0  0
    5.2936   -2.3603   28.3278 C   0  0  0  0  0  0  0  0  0  0  0  0
    5.6771   -3.3727   28.4073 H   0  0  0  0  0  0  0  0  0  0  0  0
    5.6119    0.5280   26.5595 H   0  0  0  0  0  0  0  0  0  0  0  0
    3.7683    1.2080   28.0807 H   0  0  0  0  0  0  0  0  0  0  0  0
    2.8997   -0.4152   29.7939 H   0  0  0  0  0  0  0  0  0  0  0  0
  1  2  1  0
  2  3  2  0
  3  4  1  0
  4  5  2  0
  5  6  1  0
  6  7  1  0
  7  8  2  0
  8  9  1  0
  9 10  2  0
 10 11  1  0
 11 12  1  0
 12 13  2  0
 13 14  1  0
 14 15  1  0
 15 16  2  0
 16 17  1  0
 17 18  2  0
 18 19  1  0
 19 20  2  0
 20 21  1  0
 18 22  1  0
 17 23  1  0
 16 24  1  0
 14 25  2  0
 25 26  1  0
 11 27  2  0
 27 28  1  0
 10 29  1  0
  8 30  1  0
  6 31  2  0
 31 32  1  0
  5 33  1  0
  4 34  1  0
  3 35  1  0
 31  2  1  0
 27  7  1  0
 26 12  1  0
 20 15  1  0
M  END
>  <cnnaffinity>  (1) 
-5.40095

>  <filename>  (1) 
Fc1cccc(-c2cncc(-c3nc(-c4cccnc4)no3)c2)c1

$$$$
