
     RDKit          3D

 41 45  0  0  0  0  0  0  0  0999 V2000
   14.7058    3.9689   22.7399 F   0  0  0  0  0  0  0  0  0  0  0  0
   13.5416    3.3076   22.6576 C   0  0  0  0  0  0  0  0  0  0  0  0
   12.3682    4.0374   22.5617 C   0  0  0  0  0  0  0  0  0  0  0  0
   11.1557    3.3624   22.3455 C   0  0  0  0  0  0  0  0  0  0  0  0
   11.0867    1.9666   22.2722 C   0  0  0  0  0  0  0  0  0  0  0  0
    9.7967    1.2771   22.2023 C   0  0  0  0  0  0  0  0  0  0  0  0
    9.4541    0.2983   21.3781 N   0  0  0  0  0  0  0  0  0  0  0  0
    8.1350    0.1291   21.6376 C   0  0  0  0  0  0  0  0  0  0  0  0
    7.2932   -0.8238   20.8388 C   0  0  0  0  0  0  0  0  0  0  0  0
    6.5446   -0.1352   19.6992 C   0  0  0  0  0  0  0  0  0  0  0  0
    5.3742    0.5856   19.9704 C   0  0  0  0  0  0  0  0  0  0  0  0
    4.7819    1.3246   18.9435 C   0  0  0  0  0  0  0  0  0  0  0  0
    5.3834    1.3245   17.6825 C   0  0  0  0  0  0  0  0  0  0  0  0
    6.4953    0.6310   17.3943 N   0  0  0  0  0  0  0  0  0  0  0  0
    7.0491   -0.0763   18.3882 C   0  0  0  0  0  0  0  0  0  0  0  0
    7.9559   -0.6249   18.1311 H   0  0  0  0  0  0  0  0  0  0  0  0
    4.9517    1.9022   16.8662 H   0  0  0  0  0  0  0  0  0  0  0  0
    3.8842    1.9086   19.1106 H   0  0  0  0  0  0  0  0  0  0  0  0
    4.9540    0.5804   20.9785 H   0  0  0  0  0  0  0  0  0  0  0  0
    7.9639   -1.6026   20.4611 H   0  0  0  0  0  0  0  0  0  0  0  0
    6.5842   -1.2927   21.5297 H   0  0  0  0  0  0  0  0  0  0  0  0
    7.6490    0.9079   22.5815 N   0  0  0  0  0  0  0  0  0  0  0  0
    8.7251    1.6400   22.9592 N   0  0  0  0  0  0  0  0  0  0  0  0
    8.5916    2.6591   23.9706 C   0  0  0  0  0  0  0  0  0  0  0  0
    8.4718    2.2990   25.4281 C   0  0  0  0  0  0  0  0  0  0  0  0
    9.7192    2.9411   24.9229 C   0  0  0  0  0  0  0  0  0  0  0  0
   10.6267    2.3483   24.8337 H   0  0  0  0  0  0  0  0  0  0  0  0
    9.8999    3.9829   25.1579 H   0  0  0  0  0  0  0  0  0  0  0  0
    7.8096    2.8977   26.0481 H   0  0  0  0  0  0  0  0  0  0  0  0
    8.5006    1.2493   25.6874 H   0  0  0  0  0  0  0  0  0  0  0  0
    7.9770    3.4933   23.6386 H   0  0  0  0  0  0  0  0  0  0  0  0
   12.2799    1.2164   22.3667 C   0  0  0  0  0  0  0  0  0  0  0  0
   13.4956    1.8956   22.6157 C   0  0  0  0  0  0  0  0  0  0  0  0
   14.4829    0.9419   22.7178 N   0  0  0  0  0  0  0  0  0  0  0  0
   13.9343   -0.3117   22.5366 C   0  0  0  0  0  0  0  0  0  0  0  0
   12.5954   -0.1861   22.3141 C   0  0  0  0  0  0  0  0  0  0  0  0
   11.8694   -0.9605   22.0913 H   0  0  0  0  0  0  0  0  0  0  0  0
   14.5431   -1.2092   22.5863 H   0  0  0  0  0  0  0  0  0  0  0  0
   15.4515    1.1524   22.9002 H   0  0  0  0  0  0  0  0  0  0  0  0
   10.2466    3.9451   22.2681 H   0  0  0  0  0  0  0  0  0  0  0  0
   12.4030    5.1138   22.6783 H   0  0  0  0  0  0  0  0  0  0  0  0
  1  2  1  0
  2  3  2  0
  3  4  1  0
  4  5  2  0
  5  6  1  0
  6  7  2  0
  7  8  1  0
  8  9  1  0
  9 10  1  0
 10 11  2  0
 11 12  1  0
 12 13  2  0
 13 14  1  0
 14 15  2  0
 15 16  1  0
 13 17  1  0
 12 18  1  0
 11 19  1  0
  9 20  1  0
  9 21  1  0
  8 22  2  0
 22 23  1  0
 23 24  1  0
 24 25  1  0
 25 26  1  0
 26 27  1  0
 26 28  1  0
 25 29  1  0
 25 30  1  0
 24 31  1  0
  5 32  1  0
 32 33  2  0
 33 34  1  0
 34 35  1  0
 35 36  2  0
 36 37  1  0
 35 38  1  0
 34 39  1  0
  4 40  1  0
  3 41  1  0
 33  2  1  0
 23  6  1  0
 26 24  1  0
 36 32  1  0
 15 10  1  0
M  END
>  <cnnaffinity>  (1) 
-6.28352

>  <filename>  (1) 
Fc1ccc(-c2nc(Cc3cccnc3)nn2C2CC2)c2cc[nH]c12

$$$$
