
     RDKit          3D

 23 24  0  0  0  0  0  0  0  0999 V2000
    5.3768    1.8363   16.9457 H   0  0  0  0  0  0  0  0  0  0  0  0
    5.6511    1.2620   17.8290 C   0  0  0  0  0  0  0  0  0  0  0  0
    6.7463    0.4931   17.7297 N   0  0  0  0  0  0  0  0  0  0  0  0
    7.1255   -0.2118   18.8103 C   0  0  0  0  0  0  0  0  0  0  0  0
    7.9939   -0.8560   18.6716 H   0  0  0  0  0  0  0  0  0  0  0  0
    6.4498   -0.1743   20.0627 C   0  0  0  0  0  0  0  0  0  0  0  0
    6.8551   -0.8421   21.2368 N   0  0  0  0  0  0  0  0  0  0  0  0
    6.3000   -0.6199   22.0549 H   0  0  0  0  0  0  0  0  0  0  0  0
    8.3965   -1.4403   21.5771 S   0  0  0  0  0  0  0  0  0  0  0  0
    9.3167    0.0259   22.0237 C   0  0  0  0  0  0  0  0  0  0  0  0
    9.5749    0.3249   23.3707 C   0  0  0  0  0  0  0  0  0  0  0  0
    9.0693   -0.2298   24.1634 H   0  0  0  0  0  0  0  0  0  0  0  0
   10.4226    1.2957   23.7429 N   0  0  0  0  0  0  0  0  0  0  0  0
   11.0488    2.0099   22.7902 C   0  0  0  0  0  0  0  0  0  0  0  0
   11.7609    2.7704   23.1086 H   0  0  0  0  0  0  0  0  0  0  0  0
   10.7971    1.8056   21.4296 C   0  0  0  0  0  0  0  0  0  0  0  0
   11.4242    2.5328   20.4958 F   0  0  0  0  0  0  0  0  0  0  0  0
    9.9037    0.8218   21.0319 C   0  0  0  0  0  0  0  0  0  0  0  0
    9.6769    0.6959   19.9801 H   0  0  0  0  0  0  0  0  0  0  0  0
    5.2706    0.5855   20.1122 C   0  0  0  0  0  0  0  0  0  0  0  0
    4.6870    0.5946   21.0339 H   0  0  0  0  0  0  0  0  0  0  0  0
    4.8777    1.3250   18.9947 C   0  0  0  0  0  0  0  0  0  0  0  0
    4.0040    1.9681   19.0135 H   0  0  0  0  0  0  0  0  0  0  0  0
  1  2  1  0
  2  3  2  0
  3  4  1  0
  4  5  1  0
  4  6  2  0
  6  7  1  0
  7  8  1  0
  7  9  1  0
  9 10  1  0
 10 11  2  0
 11 12  1  0
 11 13  1  0
 13 14  2  0
 14 15  1  0
 14 16  1  0
 16 17  1  0
 16 18  2  0
 18 19  1  0
  6 20  1  0
 20 21  1  0
 20 22  2  0
 22 23  1  0
 22  2  1  0
 18 10  1  0
M  END
>  <cnnaffinity>  (1) 
-5.04972

>  <filename>  (1) 
Fc1cncc(SNc2cccnc2)c1

$$$$
