
     RDKit          3D

 41 45  0  0  0  0  0  0  0  0999 V2000
   12.5839    5.3165   22.7625 F   0  0  0  0  0  0  0  0  0  0  0  0
   12.5045    3.9863   22.5895 C   0  0  0  0  0  0  0  0  0  0  0  0
   11.2481    3.4217   22.3323 C   0  0  0  0  0  0  0  0  0  0  0  0
   11.1069    2.0354   22.2364 C   0  0  0  0  0  0  0  0  0  0  0  0
    9.8099    1.3823   22.1456 C   0  0  0  0  0  0  0  0  0  0  0  0
    9.4868    0.3832   21.3398 N   0  0  0  0  0  0  0  0  0  0  0  0
    8.1817    0.1752   21.6391 C   0  0  0  0  0  0  0  0  0  0  0  0
    7.3388   -0.7879   20.8638 C   0  0  0  0  0  0  0  0  0  0  0  0
    6.5856   -0.1168   19.7231 C   0  0  0  0  0  0  0  0  0  0  0  0
    5.4120    0.5975   19.9895 C   0  0  0  0  0  0  0  0  0  0  0  0
    4.8128    1.3264   18.9601 C   0  0  0  0  0  0  0  0  0  0  0  0
    5.4071    1.3126   17.6962 C   0  0  0  0  0  0  0  0  0  0  0  0
    6.5132    0.6087   17.4099 N   0  0  0  0  0  0  0  0  0  0  0  0
    7.0766   -0.0860   18.4065 C   0  0  0  0  0  0  0  0  0  0  0  0
    7.9743   -0.6477   18.1405 H   0  0  0  0  0  0  0  0  0  0  0  0
    4.9694    1.8759   16.8727 H   0  0  0  0  0  0  0  0  0  0  0  0
    3.9146    1.9093   19.1262 H   0  0  0  0  0  0  0  0  0  0  0  0
    4.9923    0.5853   20.9967 H   0  0  0  0  0  0  0  0  0  0  0  0
    8.0008   -1.5691   20.4866 H   0  0  0  0  0  0  0  0  0  0  0  0
    6.6447   -1.2467   21.5742 H   0  0  0  0  0  0  0  0  0  0  0  0
    7.7003    0.9309   22.6014 N   0  0  0  0  0  0  0  0  0  0  0  0
    8.7596    1.7077   22.9400 N   0  0  0  0  0  0  0  0  0  0  0  0
    8.6307    2.7016   23.9769 C   0  0  0  0  0  0  0  0  0  0  0  0
    9.7666    2.9784   24.9194 C   0  0  0  0  0  0  0  0  0  0  0  0
    8.5287    2.3121   25.4308 C   0  0  0  0  0  0  0  0  0  0  0  0
    8.5880    1.2550   25.6639 H   0  0  0  0  0  0  0  0  0  0  0  0
    7.8527    2.8784   26.0673 H   0  0  0  0  0  0  0  0  0  0  0  0
    9.9584    4.0217   25.1576 H   0  0  0  0  0  0  0  0  0  0  0  0
   10.6482    2.3474   24.8196 H   0  0  0  0  0  0  0  0  0  0  0  0
    8.0075    3.5306   23.6590 H   0  0  0  0  0  0  0  0  0  0  0  0
   12.2638    1.2382   22.3213 C   0  0  0  0  0  0  0  0  0  0  0  0
   12.4199   -0.1156   22.2289 N   0  0  0  0  0  0  0  0  0  0  0  0
   13.7633   -0.4157   22.3047 C   0  0  0  0  0  0  0  0  0  0  0  0
   14.4666    0.7376   22.4931 C   0  0  0  0  0  0  0  0  0  0  0  0
   13.5282    1.8199   22.5516 C   0  0  0  0  0  0  0  0  0  0  0  0
   13.6480    3.2178   22.7083 C   0  0  0  0  0  0  0  0  0  0  0  0
   14.5922    3.7094   22.8982 H   0  0  0  0  0  0  0  0  0  0  0  0
   15.5256    0.8959   22.4019 H   0  0  0  0  0  0  0  0  0  0  0  0
   14.0932   -1.4472   22.2858 H   0  0  0  0  0  0  0  0  0  0  0  0
   11.6489   -0.7115   21.9613 H   0  0  0  0  0  0  0  0  0  0  0  0
   10.3864    4.0768   22.2709 H   0  0  0  0  0  0  0  0  0  0  0  0
  1  2  1  0
  2  3  2  0
  3  4  1  0
  4  5  1  0
  5  6  2  0
  6  7  1  0
  7  8  1  0
  8  9  1  0
  9 10  2  0
 10 11  1  0
 11 12  2  0
 12 13  1  0
 13 14  2  0
 14 15  1  0
 12 16  1  0
 11 17  1  0
 10 18  1  0
  8 19  1  0
  8 20  1  0
  7 21  2  0
 21 22  1  0
 22 23  1  0
 23 24  1  0
 24 25  1  0
 25 26  1  0
 25 27  1  0
 24 28  1  0
 24 29  1  0
 23 30  1  0
  4 31  2  0
 31 32  1  0
 32 33  1  0
 33 34  2  0
 34 35  1  0
 35 36  2  0
 36 37  1  0
 34 38  1  0
 33 39  1  0
 32 40  1  0
  3 41  1  0
 36  2  1  0
 22  5  1  0
 25 23  1  0
 35 31  1  0
 14  9  1  0
M  END
>  <cnnaffinity>  (1) 
-6.39196

>  <filename>  (1) 
Fc1cc(-c2nc(Cc3cccnc3)nn2C2CC2)c2[nH]ccc2c1

$$$$
