
     RDKit          3D

 41 45  0  0  0  0  0  0  0  0999 V2000
   11.8516    2.2689   20.4141 F   0  0  0  0  0  0  0  0  0  0  0  0
   11.8334    1.6009   21.5766 C   0  0  0  0  0  0  0  0  0  0  0  0
   12.5483    2.1600   22.6568 C   0  0  0  0  0  0  0  0  0  0  0  0
   12.4589    1.5652   23.9109 C   0  0  0  0  0  0  0  0  0  0  0  0
   11.6499    0.4213   24.0921 C   0  0  0  0  0  0  0  0  0  0  0  0
   11.2169   -0.3718   25.2135 C   0  0  0  0  0  0  0  0  0  0  0  0
   10.5316   -1.4364   24.6889 C   0  0  0  0  0  0  0  0  0  0  0  0
   10.4847   -1.3500   23.3215 N   0  0  0  0  0  0  0  0  0  0  0  0
    9.8078   -2.2442   22.4076 C   0  0  0  0  0  0  0  0  0  0  0  0
    8.5121   -1.6783   21.9202 C   0  0  0  0  0  0  0  0  0  0  0  0
    8.2564   -1.2224   20.7133 N   0  0  0  0  0  0  0  0  0  0  0  0
    7.0260   -0.6546   20.8594 C   0  0  0  0  0  0  0  0  0  0  0  0
    6.3721    0.0455   19.7558 C   0  0  0  0  0  0  0  0  0  0  0  0
    5.1773    0.7780   19.8914 C   0  0  0  0  0  0  0  0  0  0  0  0
    4.7071    1.4691   18.7776 C   0  0  0  0  0  0  0  0  0  0  0  0
    5.4205    1.3907   17.5750 C   0  0  0  0  0  0  0  0  0  0  0  0
    6.5466    0.6740   17.4322 N   0  0  0  0  0  0  0  0  0  0  0  0
    7.0066    0.0285   18.5078 C   0  0  0  0  0  0  0  0  0  0  0  0
    7.9283   -0.5339   18.3724 H   0  0  0  0  0  0  0  0  0  0  0  0
    5.0824    1.9310   16.6917 H   0  0  0  0  0  0  0  0  0  0  0  0
    3.8153    2.0864   18.8270 H   0  0  0  0  0  0  0  0  0  0  0  0
    4.6516    0.8046   20.8491 H   0  0  0  0  0  0  0  0  0  0  0  0
    6.5219   -0.7582   22.0715 N   0  0  0  0  0  0  0  0  0  0  0  0
    7.4751   -1.4366   22.7505 N   0  0  0  0  0  0  0  0  0  0  0  0
    7.3801   -1.6612   24.1764 C   0  0  0  0  0  0  0  0  0  0  0  0
    6.1779   -2.3515   24.7519 C   0  0  0  0  0  0  0  0  0  0  0  0
    7.5027   -3.0607   24.7129 C   0  0  0  0  0  0  0  0  0  0  0  0
    8.0396   -3.2379   25.6441 H   0  0  0  0  0  0  0  0  0  0  0  0
    7.5932   -3.8592   23.9809 H   0  0  0  0  0  0  0  0  0  0  0  0
    5.4028   -2.6606   24.0575 H   0  0  0  0  0  0  0  0  0  0  0  0
    5.7944   -1.9870   25.7021 H   0  0  0  0  0  0  0  0  0  0  0  0
    7.7954   -0.8346   24.7490 H   0  0  0  0  0  0  0  0  0  0  0  0
    9.6364   -3.1930   22.9169 H   0  0  0  0  0  0  0  0  0  0  0  0
   10.4583   -2.4155   21.5467 H   0  0  0  0  0  0  0  0  0  0  0  0
   11.0899   -0.1816   22.9403 C   0  0  0  0  0  0  0  0  0  0  0  0
   11.1288    0.4138   21.6666 C   0  0  0  0  0  0  0  0  0  0  0  0
   10.5798    0.0005   20.8288 H   0  0  0  0  0  0  0  0  0  0  0  0
   10.1268   -2.3213   25.1591 H   0  0  0  0  0  0  0  0  0  0  0  0
   11.3573   -0.1442   26.2600 H   0  0  0  0  0  0  0  0  0  0  0  0
   13.0010    1.9628   24.7585 H   0  0  0  0  0  0  0  0  0  0  0  0
   13.1542    3.0404   22.4664 H   0  0  0  0  0  0  0  0  0  0  0  0
  1  2  1  0
  2  3  2  0
  3  4  1  0
  4  5  2  0
  5  6  1  0
  6  7  2  0
  7  8  1  0
  8  9  1  0
  9 10  1  0
 10 11  2  0
 11 12  1  0
 12 13  1  0
 13 14  2  0
 14 15  1  0
 15 16  2  0
 16 17  1  0
 17 18  2  0
 18 19  1  0
 16 20  1  0
 15 21  1  0
 14 22  1  0
 12 23  2  0
 23 24  1  0
 24 25  1  0
 25 26  1  0
 26 27  1  0
 27 28  1  0
 27 29  1  0
 26 30  1  0
 26 31  1  0
 25 32  1  0
  9 33  1  0
  9 34  1  0
  8 35  1  0
 35 36  2  0
 36 37  1  0
  7 38  1  0
  6 39  1  0
  4 40  1  0
  3 41  1  0
 36  2  1  0
 35  5  1  0
 24 10  1  0
 27 25  1  0
 18 13  1  0
M  END
>  <cnnaffinity>  (1) 
-5.3945

>  <filename>  (1) 
Fc1ccc2ccn(Cc3nc(-c4cccnc4)nn3C3CC3)c2c1

$$$$
