
     RDKit          3D

 26 27  0  0  0  0  0  0  0  0999 V2000
   10.8930   -0.9907   25.0549 F   0  0  0  0  0  0  0  0  0  0  0  0
   10.1713   -1.7773   24.2296 C   0  0  0  0  0  0  0  0  0  0  0  0
    9.7630   -3.0742   24.5730 C   0  0  0  0  0  0  0  0  0  0  0  0
    8.9776   -3.8236   23.6881 C   0  0  0  0  0  0  0  0  0  0  0  0
    8.3950   -5.5845   24.1586 Br  0  0  0  0  0  0  0  0  0  0  0  0
    8.6039   -3.2635   22.4625 C   0  0  0  0  0  0  0  0  0  0  0  0
    9.0097   -1.9629   22.1196 C   0  0  0  0  0  0  0  0  0  0  0  0
    8.6010   -1.3303   20.8255 C   0  0  0  0  0  0  0  0  0  0  0  0
    7.3079   -0.6538   20.9735 N   0  0  0  0  0  0  0  0  0  0  0  0
    6.6658    0.0045   19.9071 C   0  0  0  0  0  0  0  0  0  0  0  0
    5.4536    0.6415   20.1649 C   0  0  0  0  0  0  0  0  0  0  0  0
    4.8213    1.3045   19.1028 C   0  0  0  0  0  0  0  0  0  0  0  0
    5.4015    1.2972   17.8205 C   0  0  0  0  0  0  0  0  0  0  0  0
    6.5670    0.6817   17.5510 N   0  0  0  0  0  0  0  0  0  0  0  0
    7.1812    0.0597   18.5855 C   0  0  0  0  0  0  0  0  0  0  0  0
    8.1262   -0.4364   18.3991 H   0  0  0  0  0  0  0  0  0  0  0  0
    4.8822    1.8015   17.0101 H   0  0  0  0  0  0  0  0  0  0  0  0
    3.8860    1.8292   19.2603 H   0  0  0  0  0  0  0  0  0  0  0  0
    5.0252    0.6235   21.1690 H   0  0  0  0  0  0  0  0  0  0  0  0
    6.8694   -0.6519   21.8969 H   0  0  0  0  0  0  0  0  0  0  0  0
    9.3736   -0.6492   20.4550 H   0  0  0  0  0  0  0  0  0  0  0  0
    8.4987   -2.1050   20.0912 H   0  0  0  0  0  0  0  0  0  0  0  0
    9.8046   -1.2416   23.0064 C   0  0  0  0  0  0  0  0  0  0  0  0
   10.1299   -0.2376   22.7630 H   0  0  0  0  0  0  0  0  0  0  0  0
    7.9846   -3.8405   21.7849 H   0  0  0  0  0  0  0  0  0  0  0  0
   10.0454   -3.5023   25.5293 H   0  0  0  0  0  0  0  0  0  0  0  0
  1  2  1  0
  2  3  2  0
  3  4  1  0
  4  5  1  0
  4  6  2  0
  6  7  1  0
  7  8  1  0
  8  9  1  0
  9 10  1  0
 10 11  2  0
 11 12  1  0
 12 13  2  0
 13 14  1  0
 14 15  2  0
 15 16  1  0
 13 17  1  0
 12 18  1  0
 11 19  1  0
  9 20  1  0
  8 21  1  0
  8 22  1  0
  7 23  2  0
 23 24  1  0
  6 25  1  0
  3 26  1  0
 23  2  1  0
 15 10  1  0
M  END
>  <cnnaffinity>  (1) 
-4.5141

>  <filename>  (1) 
Fc1cc(Br)cc(CNc2cccnc2)c1

$$$$
