
     RDKit          3D

 29 31  0  0  0  0  0  0  0  0999 V2000
    9.1566   -4.8310   26.0684 F   0  0  0  0  0  0  0  0  0  0  0  0
    8.5453   -3.6683   25.8070 C   0  0  0  0  0  0  0  0  0  0  0  0
    7.9086   -2.9976   26.8416 C   0  0  0  0  0  0  0  0  0  0  0  0
    7.2896   -1.7844   26.5611 C   0  0  0  0  0  0  0  0  0  0  0  0
    7.3120   -1.2373   25.2656 C   0  0  0  0  0  0  0  0  0  0  0  0
    6.6558    0.1286   25.0499 C   0  0  0  0  0  0  0  0  0  0  0  0
    7.4248    0.9553   24.3179 F   0  0  0  0  0  0  0  0  0  0  0  0
    6.3974    0.7769   26.2056 F   0  0  0  0  0  0  0  0  0  0  0  0
    5.4784    0.0323   24.4228 F   0  0  0  0  0  0  0  0  0  0  0  0
    7.9315   -1.9654   24.2097 C   0  0  0  0  0  0  0  0  0  0  0  0
    7.9326   -1.5273   22.7784 C   0  0  0  0  0  0  0  0  0  0  0  0
    8.8979   -1.8575   21.9606 N   0  0  0  0  0  0  0  0  0  0  0  0
    8.5153   -1.2882   20.7534 O   0  0  0  0  0  0  0  0  0  0  0  0
    7.3487   -0.6860   20.9718 C   0  0  0  0  0  0  0  0  0  0  0  0
    6.6512    0.0149   19.8990 C   0  0  0  0  0  0  0  0  0  0  0  0
    5.4337    0.6569   20.1624 C   0  0  0  0  0  0  0  0  0  0  0  0
    4.8044    1.3106   19.1098 C   0  0  0  0  0  0  0  0  0  0  0  0
    5.4079    1.2873   17.8460 C   0  0  0  0  0  0  0  0  0  0  0  0
    6.5728    0.6709   17.5891 N   0  0  0  0  0  0  0  0  0  0  0  0
    7.1816    0.0558   18.6063 C   0  0  0  0  0  0  0  0  0  0  0  0
    8.1283   -0.4308   18.3729 H   0  0  0  0  0  0  0  0  0  0  0  0
    4.9221    1.7734   17.0032 H   0  0  0  0  0  0  0  0  0  0  0  0
    3.8720    1.8453   19.2595 H   0  0  0  0  0  0  0  0  0  0  0  0
    5.0083    0.6312   21.1715 H   0  0  0  0  0  0  0  0  0  0  0  0
    6.9352   -0.7876   22.1963 N   0  0  0  0  0  0  0  0  0  0  0  0
    8.5675   -3.1819   24.5103 C   0  0  0  0  0  0  0  0  0  0  0  0
    9.0706   -3.7532   23.7374 H   0  0  0  0  0  0  0  0  0  0  0  0
    6.7937   -1.2561   27.3723 H   0  0  0  0  0  0  0  0  0  0  0  0
    7.9127   -3.4279   27.8329 H   0  0  0  0  0  0  0  0  0  0  0  0
  1  2  1  0
  2  3  2  0
  3  4  1  0
  4  5  2  0
  5  6  1  0
  6  7  1  0
  6  8  1  0
  6  9  1  0
  5 10  1  0
 10 11  1  0
 11 12  2  0
 12 13  1  0
 13 14  1  0
 14 15  1  0
 15 16  2  0
 16 17  1  0
 17 18  2  0
 18 19  1  0
 19 20  2  0
 20 21  1  0
 18 22  1  0
 17 23  1  0
 16 24  1  0
 14 25  2  0
 10 26  2  0
 26 27  1  0
  4 28  1  0
  3 29  1  0
 26  2  1  0
 25 11  1  0
 20 15  1  0
M  END
>  <cnnaffinity>  (1) 
-5.35487

>  <filename>  (1) 
Fc1ccc(C(F)(F)F)c(-c2noc(-c3cccnc3)n2)c1

$$$$
