
     RDKit          3D

 33 35  0  0  0  0  0  0  0  0999 V2000
   10.7410   -1.0665   22.2745 F   0  0  0  0  0  0  0  0  0  0  0  0
    9.4151   -1.2196   22.1380 C   0  0  0  0  0  0  0  0  0  0  0  0
    8.7433   -2.0605   23.0192 C   0  0  0  0  0  0  0  0  0  0  0  0
    7.3572   -2.2383   22.8732 C   0  0  0  0  0  0  0  0  0  0  0  0
    6.5631   -3.0955   23.7681 C   0  0  0  0  0  0  0  0  0  0  0  0
    6.9144   -3.4831   24.9971 C   0  0  0  0  0  0  0  0  0  0  0  0
    6.1243   -4.3603   25.8823 C   0  0  0  0  0  0  0  0  0  0  0  0
    6.6006   -4.6629   27.1841 C   0  0  0  0  0  0  0  0  0  0  0  0
    5.8315   -5.4895   27.9836 C   0  0  0  0  0  0  0  0  0  0  0  0
    4.6262   -5.9705   27.4364 C   0  0  0  0  0  0  0  0  0  0  0  0
    4.2125   -5.6587   26.2016 N   0  0  0  0  0  0  0  0  0  0  0  0
    4.9548   -4.8616   25.4350 N   0  0  0  0  0  0  0  0  0  0  0  0
    3.9662   -6.6197   27.9921 H   0  0  0  0  0  0  0  0  0  0  0  0
    6.1330   -5.7667   28.9919 H   0  0  0  0  0  0  0  0  0  0  0  0
    7.5467   -4.2490   27.5271 H   0  0  0  0  0  0  0  0  0  0  0  0
    7.8440   -3.1129   25.4251 H   0  0  0  0  0  0  0  0  0  0  0  0
    5.5983   -3.4211   23.3811 H   0  0  0  0  0  0  0  0  0  0  0  0
    6.6947   -1.5529   21.8426 C   0  0  0  0  0  0  0  0  0  0  0  0
    7.3855   -0.7032   20.9729 C   0  0  0  0  0  0  0  0  0  0  0  0
    6.6572    0.0175   19.9019 C   0  0  0  0  0  0  0  0  0  0  0  0
    5.4331    0.6524   20.1510 C   0  0  0  0  0  0  0  0  0  0  0  0
    4.8032    1.3174   19.1007 C   0  0  0  0  0  0  0  0  0  0  0  0
    5.4021    1.2952   17.8331 C   0  0  0  0  0  0  0  0  0  0  0  0
    6.5634    0.6755   17.5681 N   0  0  0  0  0  0  0  0  0  0  0  0
    7.1709    0.0732   18.5972 C   0  0  0  0  0  0  0  0  0  0  0  0
    8.1102   -0.4263   18.3720 H   0  0  0  0  0  0  0  0  0  0  0  0
    4.9153    1.7819   16.9921 H   0  0  0  0  0  0  0  0  0  0  0  0
    3.8681    1.8477   19.2565 H   0  0  0  0  0  0  0  0  0  0  0  0
    5.0099    0.6368   21.1610 H   0  0  0  0  0  0  0  0  0  0  0  0
    8.7706   -0.5393   21.1121 C   0  0  0  0  0  0  0  0  0  0  0  0
    9.3296    0.1272   20.4623 H   0  0  0  0  0  0  0  0  0  0  0  0
    5.6245   -1.6771   21.7049 H   0  0  0  0  0  0  0  0  0  0  0  0
    9.3104   -2.5885   23.7747 H   0  0  0  0  0  0  0  0  0  0  0  0
  1  2  1  0
  2  3  2  0
  3  4  1  0
  4  5  1  0
  5  6  2  3
  6  7  1  0
  7  8  2  0
  8  9  1  0
  9 10  2  0
 10 11  1  0
 11 12  2  0
 10 13  1  0
  9 14  1  0
  8 15  1  0
  6 16  1  0
  5 17  1  0
  4 18  2  0
 18 19  1  0
 19 20  1  0
 20 21  2  0
 21 22  1  0
 22 23  2  0
 23 24  1  0
 24 25  2  0
 25 26  1  0
 23 27  1  0
 22 28  1  0
 21 29  1  0
 19 30  2  0
 30 31  1  0
 18 32  1  0
  3 33  1  0
 30  2  1  0
 12  7  1  0
 25 20  1  0
M  END
>  <cnnaffinity>  (1) 
-5.30157

>  <filename>  (1) 
Fc1cc(C=Cc2cccnn2)cc(-c2cccnc2)c1

$$$$
