
     RDKit          3D

 27 29  0  0  0  0  0  0  0  0999 V2000
    4.9181    1.7855   16.9939 H   0  0  0  0  0  0  0  0  0  0  0  0
    5.4016    1.2957   17.8373 C   0  0  0  0  0  0  0  0  0  0  0  0
    6.5652    0.6792   17.5748 N   0  0  0  0  0  0  0  0  0  0  0  0
    7.1689    0.0614   18.5941 C   0  0  0  0  0  0  0  0  0  0  0  0
    8.1133   -0.4267   18.3713 H   0  0  0  0  0  0  0  0  0  0  0  0
    6.6638    0.0048   19.9094 C   0  0  0  0  0  0  0  0  0  0  0  0
    7.3768   -0.7055   20.9921 C   0  0  0  0  0  0  0  0  0  0  0  0
    8.1199   -2.2368   20.8049 S   0  0  0  0  0  0  0  0  0  0  0  0
    8.5691   -2.4289   22.3811 N   0  0  0  0  0  0  0  0  0  0  0  0
    8.1912   -1.3755   23.0446 C   0  0  0  0  0  0  0  0  0  0  0  0
    8.4422   -1.3294   24.1018 H   0  0  0  0  0  0  0  0  0  0  0  0
    7.5192   -0.3446   22.3183 C   0  0  0  0  0  0  0  0  0  0  0  0
    7.1202    0.9308   22.9197 C   0  0  0  0  0  0  0  0  0  0  0  0
    7.3914    2.1462   22.2743 C   0  0  0  0  0  0  0  0  0  0  0  0
    7.8821    2.1235   21.3065 H   0  0  0  0  0  0  0  0  0  0  0  0
    7.0096    3.3557   22.8500 C   0  0  0  0  0  0  0  0  0  0  0  0
    7.1942    4.3060   22.3611 H   0  0  0  0  0  0  0  0  0  0  0  0
    6.3682    3.3441   24.0825 C   0  0  0  0  0  0  0  0  0  0  0  0
    6.0001    4.4959   24.6532 F   0  0  0  0  0  0  0  0  0  0  0  0
    6.1086    2.1356   24.7406 C   0  0  0  0  0  0  0  0  0  0  0  0
    5.5014    2.1464   25.9341 F   0  0  0  0  0  0  0  0  0  0  0  0
    6.4851    0.9334   24.1703 C   0  0  0  0  0  0  0  0  0  0  0  0
    6.2657    0.0054   24.6905 H   0  0  0  0  0  0  0  0  0  0  0  0
    5.4369    0.6422   20.1557 C   0  0  0  0  0  0  0  0  0  0  0  0
    5.0163    0.6328   21.1648 H   0  0  0  0  0  0  0  0  0  0  0  0
    4.8032    1.3061   19.1028 C   0  0  0  0  0  0  0  0  0  0  0  0
    3.8724    1.8432   19.2552 H   0  0  0  0  0  0  0  0  0  0  0  0
  1  2  1  0
  2  3  2  0
  3  4  1  0
  4  5  1  0
  4  6  2  0
  6  7  1  0
  7  8  1  0
  8  9  1  0
  9 10  2  0
 10 11  1  0
 10 12  1  0
 12 13  1  0
 13 14  2  0
 14 15  1  0
 14 16  1  0
 16 17  1  0
 16 18  2  0
 18 19  1  0
 18 20  1  0
 20 21  1  0
 20 22  2  0
 22 23  1  0
  6 24  1  0
 24 25  1  0
 24 26  2  0
 26 27  1  0
 26  2  1  0
 12  7  2  0
 22 13  1  0
M  END
>  <cnnaffinity>  (1) 
-5.05531

>  <filename>  (1) 
Fc1ccc(-c2cnsc2-c2cccnc2)cc1F

$$$$
