
     RDKit          3D

 39 43  0  0  0  0  0  0  0  0999 V2000
   12.9475    5.1812   22.6912 F   0  0  0  0  0  0  0  0  0  0  0  0
   12.7870    3.8530   22.5909 C   0  0  0  0  0  0  0  0  0  0  0  0
   11.4896    3.3492   22.4225 C   0  0  0  0  0  0  0  0  0  0  0  0
   11.2680    1.9649   22.3601 C   0  0  0  0  0  0  0  0  0  0  0  0
    9.9210    1.4024   22.2215 C   0  0  0  0  0  0  0  0  0  0  0  0
    9.4960    0.4976   21.3532 N   0  0  0  0  0  0  0  0  0  0  0  0
    8.2096    0.2961   21.7233 C   0  0  0  0  0  0  0  0  0  0  0  0
    7.3413   -0.6745   20.9779 C   0  0  0  0  0  0  0  0  0  0  0  0
    6.5910   -0.0345   19.8210 C   0  0  0  0  0  0  0  0  0  0  0  0
    5.3860    0.6345   20.0580 C   0  0  0  0  0  0  0  0  0  0  0  0
    4.7749    1.3242   19.0105 C   0  0  0  0  0  0  0  0  0  0  0  0
    5.3955    1.3120   17.7576 C   0  0  0  0  0  0  0  0  0  0  0  0
    6.5390    0.6573   17.4987 N   0  0  0  0  0  0  0  0  0  0  0  0
    7.1116    0.0023   18.5157 C   0  0  0  0  0  0  0  0  0  0  0  0
    8.0400   -0.5263   18.2875 H   0  0  0  0  0  0  0  0  0  0  0  0
    4.9567    1.8473   16.9195 H   0  0  0  0  0  0  0  0  0  0  0  0
    3.8513    1.8750   19.1567 H   0  0  0  0  0  0  0  0  0  0  0  0
    4.9532    0.6120   21.0596 H   0  0  0  0  0  0  0  0  0  0  0  0
    8.0035   -1.4646   20.6092 H   0  0  0  0  0  0  0  0  0  0  0  0
    6.6389   -1.1187   21.6912 H   0  0  0  0  0  0  0  0  0  0  0  0
    7.8045    1.0255   22.7420 N   0  0  0  0  0  0  0  0  0  0  0  0
    8.9029    1.7585   23.0519 N   0  0  0  0  0  0  0  0  0  0  0  0
    8.9196    2.7495   24.1109 C   0  0  0  0  0  0  0  0  0  0  0  0
    7.6607    3.2321   24.7663 C   0  0  0  0  0  0  0  0  0  0  0  0
    8.4193    4.1479   23.8489 C   0  0  0  0  0  0  0  0  0  0  0  0
    7.9819    4.3535   22.8757 H   0  0  0  0  0  0  0  0  0  0  0  0
    8.9775    4.9796   24.2699 H   0  0  0  0  0  0  0  0  0  0  0  0
    6.7240    2.8207   24.4014 H   0  0  0  0  0  0  0  0  0  0  0  0
    7.6606    3.4148   25.8384 H   0  0  0  0  0  0  0  0  0  0  0  0
    9.8078    2.6684   24.7327 H   0  0  0  0  0  0  0  0  0  0  0  0
   12.4058    1.1124   22.4635 C   0  0  0  0  0  0  0  0  0  0  0  0
   12.5421   -0.2631   22.4523 N   0  0  0  0  0  0  0  0  0  0  0  0
   13.7894   -0.5557   22.5365 N   0  0  0  0  0  0  0  0  0  0  0  0
   14.4999    0.5848   22.6420 N   0  0  0  0  0  0  0  0  0  0  0  0
   13.6918    1.6756   22.6148 C   0  0  0  0  0  0  0  0  0  0  0  0
   13.9180    3.0684   22.6826 C   0  0  0  0  0  0  0  0  0  0  0  0
   14.8796    3.5639   22.6984 H   0  0  0  0  0  0  0  0  0  0  0  0
   15.5074    0.5189   22.5999 H   0  0  0  0  0  0  0  0  0  0  0  0
   10.6858    4.0707   22.3218 H   0  0  0  0  0  0  0  0  0  0  0  0
  1  2  1  0
  2  3  2  0
  3  4  1  0
  4  5  1  0
  5  6  2  0
  6  7  1  0
  7  8  1  0
  8  9  1  0
  9 10  2  0
 10 11  1  0
 11 12  2  0
 12 13  1  0
 13 14  2  0
 14 15  1  0
 12 16  1  0
 11 17  1  0
 10 18  1  0
  8 19  1  0
  8 20  1  0
  7 21  2  0
 21 22  1  0
 22 23  1  0
 23 24  1  0
 24 25  1  0
 25 26  1  0
 25 27  1  0
 24 28  1  0
 24 29  1  0
 23 30  1  0
  4 31  2  0
 31 32  1  0
 32 33  2  0
 33 34  1  0
 34 35  1  0
 35 36  2  0
 36 37  1  0
 34 38  1  0
  3 39  1  0
 36  2  1  0
 22  5  1  0
 25 23  1  0
 35 31  1  0
 14  9  1  0
M  END
>  <cnnaffinity>  (1) 
-6.5747

>  <filename>  (1) 
Fc1cc(-c2nc(Cc3cccnc3)nn2C2CC2)c2nn[nH]c2c1

$$$$
