
     RDKit          3D

 43 47  0  0  0  0  0  0  0  0999 V2000
    4.9311   -7.3014   23.7295 F   0  0  0  0  0  0  0  0  0  0  0  0
    5.8566   -6.4033   23.3463 C   0  0  0  0  0  0  0  0  0  0  0  0
    6.1627   -6.2801   21.9927 C   0  0  0  0  0  0  0  0  0  0  0  0
    7.1199   -5.3324   21.6059 C   0  0  0  0  0  0  0  0  0  0  0  0
    7.7522   -4.5152   22.5584 C   0  0  0  0  0  0  0  0  0  0  0  0
    8.7215   -3.4255   22.1328 C   0  0  0  0  0  0  0  0  0  0  0  0
    8.1258   -2.0599   22.0078 C   0  0  0  0  0  0  0  0  0  0  0  0
    7.8285   -1.5967   20.8141 N   0  0  0  0  0  0  0  0  0  0  0  0
    7.2720   -0.3846   21.0703 N   0  0  0  0  0  0  0  0  0  0  0  0
    6.6006    0.2670   19.9991 C   0  0  0  0  0  0  0  0  0  0  0  0
    5.3956    0.9569   20.1572 C   0  0  0  0  0  0  0  0  0  0  0  0
    4.8002    1.4879   19.0059 C   0  0  0  0  0  0  0  0  0  0  0  0
    5.4291    1.3320   17.7669 C   0  0  0  0  0  0  0  0  0  0  0  0
    6.5815    0.6569   17.6123 N   0  0  0  0  0  0  0  0  0  0  0  0
    7.1363    0.1272   18.7029 C   0  0  0  0  0  0  0  0  0  0  0  0
    8.0498   -0.4462   18.5642 H   0  0  0  0  0  0  0  0  0  0  0  0
    4.9923    1.7482   16.8606 H   0  0  0  0  0  0  0  0  0  0  0  0
    3.8586    2.0218   19.0631 H   0  0  0  0  0  0  0  0  0  0  0  0
    4.9337    1.0527   21.1423 H   0  0  0  0  0  0  0  0  0  0  0  0
    7.3270   -0.1635   22.4229 C   0  0  0  0  0  0  0  0  0  0  0  0
    6.8831    1.0261   23.1334 C   0  0  0  0  0  0  0  0  0  0  0  0
    6.1243    0.8269   24.2847 C   0  0  0  0  0  0  0  0  0  0  0  0
    5.6325    1.8223   25.0442 N   0  0  0  0  0  0  0  0  0  0  0  0
    5.9030    3.0852   24.7109 C   0  0  0  0  0  0  0  0  0  0  0  0
    6.6846    3.3933   23.5786 C   0  0  0  0  0  0  0  0  0  0  0  0
    7.2163    2.3568   22.7790 C   0  0  0  0  0  0  0  0  0  0  0  0
    8.0464    2.9833   21.7955 C   0  0  0  0  0  0  0  0  0  0  0  0
    7.9551    4.3351   21.9911 C   0  0  0  0  0  0  0  0  0  0  0  0
    7.1297    4.5882   23.0611 N   0  0  0  0  0  0  0  0  0  0  0  0
    6.9000    5.5032   23.4201 H   0  0  0  0  0  0  0  0  0  0  0  0
    8.4259    5.1586   21.4727 H   0  0  0  0  0  0  0  0  0  0  0  0
    8.6748    2.4844   21.0714 H   0  0  0  0  0  0  0  0  0  0  0  0
    5.5150    3.8679   25.3623 H   0  0  0  0  0  0  0  0  0  0  0  0
    5.8956   -0.1849   24.6099 H   0  0  0  0  0  0  0  0  0  0  0  0
    7.8426   -1.2228   23.0312 N   0  0  0  0  0  0  0  0  0  0  0  0
    9.1036   -3.6272   21.1337 H   0  0  0  0  0  0  0  0  0  0  0  0
    9.5742   -3.3675   22.8154 H   0  0  0  0  0  0  0  0  0  0  0  0
    7.4416   -4.6933   23.9164 C   0  0  0  0  0  0  0  0  0  0  0  0
    6.4890   -5.6341   24.3213 C   0  0  0  0  0  0  0  0  0  0  0  0
    6.2327   -5.7874   25.3655 H   0  0  0  0  0  0  0  0  0  0  0  0
    7.9565   -4.0856   24.6595 H   0  0  0  0  0  0  0  0  0  0  0  0
    7.3789   -5.2317   20.5523 H   0  0  0  0  0  0  0  0  0  0  0  0
    5.6458   -6.9244   21.2870 H   0  0  0  0  0  0  0  0  0  0  0  0
  1  2  1  0
  2  3  2  0
  3  4  1  0
  4  5  2  0
  5  6  1  0
  6  7  1  0
  7  8  2  0
  8  9  1  0
  9 10  1  0
 10 11  2  0
 11 12  1  0
 12 13  2  0
 13 14  1  0
 14 15  2  0
 15 16  1  0
 13 17  1  0
 12 18  1  0
 11 19  1  0
  9 20  1  0
 20 21  1  0
 21 22  2  0
 22 23  1  0
 23 24  2  0
 24 25  1  0
 25 26  2  0
 26 27  1  0
 27 28  2  0
 28 29  1  0
 29 30  1  0
 28 31  1  0
 27 32  1  0
 24 33  1  0
 22 34  1  0
 20 35  2  0
  6 36  1  0
  6 37  1  0
  5 38  1  0
 38 39  2  0
 39 40  1  0
 38 41  1  0
  4 42  1  0
  3 43  1  0
 39  2  1  0
 35  7  1  0
 15 10  1  0
 26 21  1  0
 29 25  1  0
M  END
>  <cnnaffinity>  (1) 
-5.81267

>  <filename>  (1) 
Fc1ccc(Cc2nc(-c3cncc4[nH]ccc34)n(-c3cccnc3)n2)cc1

$$$$
