
     RDKit          3D

 27 29  0  0  0  0  0  0  0  0999 V2000
    4.9134    1.7825   16.9924 H   0  0  0  0  0  0  0  0  0  0  0  0
    5.3974    1.2961   17.8325 C   0  0  0  0  0  0  0  0  0  0  0  0
    6.5607    0.6813   17.5667 N   0  0  0  0  0  0  0  0  0  0  0  0
    7.1721    0.0731   18.5899 C   0  0  0  0  0  0  0  0  0  0  0  0
    8.1116   -0.4268   18.3621 H   0  0  0  0  0  0  0  0  0  0  0  0
    6.6625    0.0204   19.8968 C   0  0  0  0  0  0  0  0  0  0  0  0
    7.3884   -0.6969   20.9639 C   0  0  0  0  0  0  0  0  0  0  0  0
    8.7440   -0.7735   21.0685 C   0  0  0  0  0  0  0  0  0  0  0  0
    9.4612   -0.3059   20.4115 H   0  0  0  0  0  0  0  0  0  0  0  0
    9.2312   -1.6730   22.4449 S   0  0  0  0  0  0  0  0  0  0  0  0
    7.5857   -1.9879   22.9121 C   0  0  0  0  0  0  0  0  0  0  0  0
    7.2451   -2.7898   24.1099 C   0  0  0  0  0  0  0  0  0  0  0  0
    5.9266   -2.8472   24.6176 C   0  0  0  0  0  0  0  0  0  0  0  0
    5.1280   -2.2968   24.1478 H   0  0  0  0  0  0  0  0  0  0  0  0
    5.5557   -3.5591   25.6920 N   0  0  0  0  0  0  0  0  0  0  0  0
    6.5018   -4.2599   26.3292 C   0  0  0  0  0  0  0  0  0  0  0  0
    6.2043   -4.8361   27.2002 H   0  0  0  0  0  0  0  0  0  0  0  0
    7.8341   -4.2619   25.9010 C   0  0  0  0  0  0  0  0  0  0  0  0
    8.7422   -4.9776   26.5714 F   0  0  0  0  0  0  0  0  0  0  0  0
    8.2287   -3.5321   24.7903 C   0  0  0  0  0  0  0  0  0  0  0  0
    9.2681   -3.5491   24.4722 H   0  0  0  0  0  0  0  0  0  0  0  0
    6.7390   -1.4047   22.0188 C   0  0  0  0  0  0  0  0  0  0  0  0
    5.6611   -1.4970   22.0261 H   0  0  0  0  0  0  0  0  0  0  0  0
    5.4355    0.6553   20.1471 C   0  0  0  0  0  0  0  0  0  0  0  0
    5.0165    0.6361   21.1593 H   0  0  0  0  0  0  0  0  0  0  0  0
    4.8014    1.3162   19.0999 C   0  0  0  0  0  0  0  0  0  0  0  0
    3.8704    1.8456   19.2567 H   0  0  0  0  0  0  0  0  0  0  0  0
  1  2  1  0
  2  3  2  0
  3  4  1  0
  4  5  1  0
  4  6  2  0
  6  7  1  0
  7  8  2  0
  8  9  1  0
  8 10  1  0
 10 11  1  0
 11 12  1  0
 12 13  2  0
 13 14  1  0
 13 15  1  0
 15 16  2  0
 16 17  1  0
 16 18  1  0
 18 19  1  0
 18 20  2  0
 20 21  1  0
 11 22  2  0
 22 23  1  0
  6 24  1  0
 24 25  1  0
 24 26  2  0
 26 27  1  0
 26  2  1  0
 22  7  1  0
 20 12  1  0
M  END
>  <cnnaffinity>  (1) 
-5.11677

>  <filename>  (1) 
Fc1cncc(-c2cc(-c3cccnc3)cs2)c1

$$$$
