
     RDKit          3D

 49 53  0  0  0  0  0  0  0  0999 V2000
   10.1375    5.7568   23.6970 F   0  0  0  0  0  0  0  0  0  0  0  0
    8.8431    5.5129   24.1535 C   0  0  0  0  0  0  0  0  0  0  0  0
    8.2864    4.2448   23.5180 C   0  0  2  0  0  0  0  0  0  0  0  0
    6.8283    3.9763   23.9398 C   0  0  0  0  0  0  0  0  0  0  0  0
    6.8865    3.0806   25.2013 C   0  0  0  0  0  0  0  0  0  0  0  0
    8.3476    2.5897   25.3226 C   0  0  0  0  0  0  0  0  0  0  0  0
    9.0325    2.9562   23.9849 C   0  0  1  0  0  0  0  0  0  0  0  0
    8.9331    1.8569   22.9582 C   0  0  0  0  0  0  0  0  0  0  0  0
    7.8816    1.1100   22.6740 N   0  0  0  0  0  0  0  0  0  0  0  0
    8.3355    0.2672   21.7117 C   0  0  0  0  0  0  0  0  0  0  0  0
    7.4327   -0.6889   20.9763 C   0  0  0  0  0  0  0  0  0  0  0  0
    6.6587   -0.0356   19.8344 C   0  0  0  0  0  0  0  0  0  0  0  0
    5.4533    0.6276   20.0934 C   0  0  0  0  0  0  0  0  0  0  0  0
    4.8110    1.3063   19.0544 C   0  0  0  0  0  0  0  0  0  0  0  0
    5.4032    1.2993   17.7876 C   0  0  0  0  0  0  0  0  0  0  0  0
    6.5484    0.6571   17.5083 N   0  0  0  0  0  0  0  0  0  0  0  0
    7.1480    0.0102   18.5166 C   0  0  0  0  0  0  0  0  0  0  0  0
    8.0789   -0.5007   18.2690 H   0  0  0  0  0  0  0  0  0  0  0  0
    4.9366    1.8284   16.9582 H   0  0  0  0  0  0  0  0  0  0  0  0
    3.8819    1.8437   19.2159 H   0  0  0  0  0  0  0  0  0  0  0  0
    5.0399    0.6192   21.1041 H   0  0  0  0  0  0  0  0  0  0  0  0
    6.7264   -1.0989   21.7066 H   0  0  0  0  0  0  0  0  0  0  0  0
    8.0450   -1.5132   20.5998 H   0  0  0  0  0  0  0  0  0  0  0  0
    9.6153    0.4087   21.4104 N   0  0  0  0  0  0  0  0  0  0  0  0
    9.9827    1.4740   22.1753 N   0  0  0  0  0  0  0  0  0  0  0  0
   11.2887    2.0227   22.2092 C   0  0  0  0  0  0  0  0  0  0  0  0
   11.5321    3.3992   22.1704 C   0  0  0  0  0  0  0  0  0  0  0  0
   12.8317    3.9183   22.3513 C   0  0  0  0  0  0  0  0  0  0  0  0
   13.9024    3.0806   22.6303 C   0  0  0  0  0  0  0  0  0  0  0  0
   13.6768    1.6872   22.6733 C   0  0  0  0  0  0  0  0  0  0  0  0
   12.3906    1.1832   22.4171 C   0  0  0  0  0  0  0  0  0  0  0  0
   12.5338   -0.1831   22.4216 N   0  0  0  0  0  0  0  0  0  0  0  0
   13.8584   -0.4383   22.6298 C   0  0  0  0  0  0  0  0  0  0  0  0
   14.5744    0.6393   22.7983 N   0  0  0  0  0  0  0  0  0  0  0  0
   14.2489   -1.4474   22.6771 H   0  0  0  0  0  0  0  0  0  0  0  0
   11.8180   -0.8035   22.0733 H   0  0  0  0  0  0  0  0  0  0  0  0
   14.9051    3.4718   22.6935 H   0  0  0  0  0  0  0  0  0  0  0  0
   12.9876    4.9905   22.2920 H   0  0  0  0  0  0  0  0  0  0  0  0
   10.7101    4.0930   22.0795 H   0  0  0  0  0  0  0  0  0  0  0  0
   10.0942    3.1481   24.1587 H   0  0  0  0  0  0  0  0  0  0  0  0
    8.4191    1.5153   25.5313 H   0  0  0  0  0  0  0  0  0  0  0  0
    8.8717    3.0924   26.1464 H   0  0  0  0  0  0  0  0  0  0  0  0
    6.5808    3.6142   26.1089 H   0  0  0  0  0  0  0  0  0  0  0  0
    6.2074    2.2312   25.0852 H   0  0  0  0  0  0  0  0  0  0  0  0
    6.3279    3.4364   23.1287 H   0  0  0  0  0  0  0  0  0  0  0  0
    6.2628    4.9030   24.1005 H   0  0  0  0  0  0  0  0  0  0  0  0
    8.3639    4.3766   22.4261 H   0  0  0  0  0  0  0  0  0  0  0  0
    8.8856    5.4430   25.2470 H   0  0  0  0  0  0  0  0  0  0  0  0
    8.2385    6.3867   23.8832 H   0  0  0  0  0  0  0  0  0  0  0  0
  1  2  1  0
  2  3  1  0
  3  4  1  0
  4  5  1  0
  5  6  1  0
  6  7  1  0
  7  8  1  0
  8  9  2  0
  9 10  1  0
 10 11  1  0
 11 12  1  0
 12 13  2  0
 13 14  1  0
 14 15  2  0
 15 16  1  0
 16 17  2  0
 17 18  1  0
 15 19  1  0
 14 20  1  0
 13 21  1  0
 11 22  1  0
 11 23  1  0
 10 24  2  0
 24 25  1  0
 25 26  1  0
 26 27  2  0
 27 28  1  0
 28 29  2  0
 29 30  1  0
 30 31  2  0
 31 32  1  0
 32 33  1  0
 33 34  2  0
 33 35  1  0
 32 36  1  0
 29 37  1  0
 28 38  1  0
 27 39  1  0
  7 40  1  1
  6 41  1  0
  6 42  1  0
  5 43  1  0
  5 44  1  0
  4 45  1  0
  4 46  1  0
  3 47  1  6
  2 48  1  0
  2 49  1  0
  7  3  1  0
 25  8  1  0
 31 26  1  0
 17 12  1  0
 34 30  1  0
M  END
>  <cnnaffinity>  (1) 
-6.91474

>  <filename>  (1) 
FC[C@@H]1CCC[C@H]1c1nc(Cc2cccnc2)nn1-c1cccc2nc[nH]c12

$$$$
