
     RDKit          3D

 45 49  0  0  0  0  0  0  0  0999 V2000
   13.1033    3.8906   22.0581 F   0  0  0  0  0  0  0  0  0  0  0  0
   12.8705    3.4025   23.3377 C   0  0  0  0  0  0  0  0  0  0  0  0
   11.9700    2.1806   23.3346 C   0  0  2  0  0  0  0  0  0  0  0  0
   12.3099    0.9674   22.5200 C   0  0  0  0  0  0  0  0  0  0  0  0
   11.1303    1.8304   22.1307 C   0  0  1  0  0  0  0  0  0  0  0  0
    9.7478    1.2922   22.1671 C   0  0  0  0  0  0  0  0  0  0  0  0
    9.3179    0.4057   21.2876 N   0  0  0  0  0  0  0  0  0  0  0  0
    8.0386    0.1728   21.6724 C   0  0  0  0  0  0  0  0  0  0  0  0
    7.1511   -0.7690   20.9114 C   0  0  0  0  0  0  0  0  0  0  0  0
    6.4544   -0.1012   19.7309 C   0  0  0  0  0  0  0  0  0  0  0  0
    5.2887    0.6503   19.9254 C   0  0  0  0  0  0  0  0  0  0  0  0
    4.7462    1.3599   18.8517 C   0  0  0  0  0  0  0  0  0  0  0  0
    5.3946    1.2975   17.6153 C   0  0  0  0  0  0  0  0  0  0  0  0
    6.5021    0.5721   17.3989 N   0  0  0  0  0  0  0  0  0  0  0  0
    7.0106   -0.1007   18.4388 C   0  0  0  0  0  0  0  0  0  0  0  0
    7.9221   -0.6667   18.2370 H   0  0  0  0  0  0  0  0  0  0  0  0
    5.0148    1.8607   16.7630 H   0  0  0  0  0  0  0  0  0  0  0  0
    3.8636    1.9813   18.9662 H   0  0  0  0  0  0  0  0  0  0  0  0
    4.8281    0.6987   20.9139 H   0  0  0  0  0  0  0  0  0  0  0  0
    6.4158   -1.1776   21.6130 H   0  0  0  0  0  0  0  0  0  0  0  0
    7.7921   -1.5890   20.5736 H   0  0  0  0  0  0  0  0  0  0  0  0
    7.6429    0.8445   22.7302 N   0  0  0  0  0  0  0  0  0  0  0  0
    8.7287    1.6156   23.0195 N   0  0  0  0  0  0  0  0  0  0  0  0
    8.7040    2.5582   24.0929 C   0  0  0  0  0  0  0  0  0  0  0  0
    8.5202    2.1281   25.3880 C   0  0  0  0  0  0  0  0  0  0  0  0
    8.6886    3.0633   26.4362 C   0  0  0  0  0  0  0  0  0  0  0  0
    9.0064    4.3320   26.2759 N   0  0  0  0  0  0  0  0  0  0  0  0
    9.0744    4.7939   24.9850 C   0  0  0  0  0  0  0  0  0  0  0  0
    9.3429    6.1809   24.7915 C   0  0  0  0  0  0  0  0  0  0  0  0
    9.2525    6.7449   23.5374 C   0  0  0  0  0  0  0  0  0  0  0  0
    8.9115    5.9480   22.4135 C   0  0  0  0  0  0  0  0  0  0  0  0
    8.7314    4.5887   22.5528 C   0  0  0  0  0  0  0  0  0  0  0  0
    8.8608    3.9653   23.8372 C   0  0  0  0  0  0  0  0  0  0  0  0
    8.4818    3.9639   21.6971 H   0  0  0  0  0  0  0  0  0  0  0  0
    8.7734    6.4153   21.4389 H   0  0  0  0  0  0  0  0  0  0  0  0
    9.4156    7.8123   23.4150 H   0  0  0  0  0  0  0  0  0  0  0  0
    9.5834    6.7605   25.6751 H   0  0  0  0  0  0  0  0  0  0  0  0
    8.5608    2.7104   27.4591 H   0  0  0  0  0  0  0  0  0  0  0  0
    8.2384    1.1024   25.6030 H   0  0  0  0  0  0  0  0  0  0  0  0
   11.2909    2.4485   21.2447 H   0  0  0  0  0  0  0  0  0  0  0  0
   13.1882    1.0037   21.8800 H   0  0  0  0  0  0  0  0  0  0  0  0
   12.1133   -0.0122   22.9534 H   0  0  0  0  0  0  0  0  0  0  0  0
   11.5323    1.9738   24.3105 H   0  0  0  0  0  0  0  0  0  0  0  0
   12.4229    4.2128   23.9217 H   0  0  0  0  0  0  0  0  0  0  0  0
   13.8463    3.1571   23.7745 H   0  0  0  0  0  0  0  0  0  0  0  0
  1  2  1  0
  2  3  1  0
  3  4  1  0
  4  5  1  0
  5  6  1  0
  6  7  2  0
  7  8  1  0
  8  9  1  0
  9 10  1  0
 10 11  2  0
 11 12  1  0
 12 13  2  0
 13 14  1  0
 14 15  2  0
 15 16  1  0
 13 17  1  0
 12 18  1  0
 11 19  1  0
  9 20  1  0
  9 21  1  0
  8 22  2  0
 22 23  1  0
 23 24  1  0
 24 25  2  0
 25 26  1  0
 26 27  2  0
 27 28  1  0
 28 29  2  0
 29 30  1  0
 30 31  2  0
 31 32  1  0
 32 33  2  0
 32 34  1  0
 31 35  1  0
 30 36  1  0
 29 37  1  0
 26 38  1  0
 25 39  1  0
  5 40  1  6
  4 41  1  0
  4 42  1  0
  3 43  1  1
  2 44  1  0
  2 45  1  0
  5  3  1  0
 23  6  1  0
 33 24  1  0
 15 10  1  0
 33 28  1  0
M  END
>  <cnnaffinity>  (1) 
-6.06077

>  <filename>  (1) 
FC[C@@H]1C[C@H]1c1nc(Cc2cccnc2)nn1-c1ccnc2ccccc12

$$$$
