
     RDKit          3D

 45 49  0  0  0  0  0  0  0  0999 V2000
   12.6857    0.3921   25.3349 F   0  0  0  0  0  0  0  0  0  0  0  0
   11.5983    1.0245   24.7396 C   0  0  0  0  0  0  0  0  0  0  0  0
   12.0897    1.7311   23.5095 C   0  0  1  0  0  0  0  0  0  0  0  0
   12.4398    0.9386   22.2875 C   0  0  0  0  0  0  0  0  0  0  0  0
   11.3012    1.9180   22.2258 C   0  0  1  0  0  0  0  0  0  0  0  0
    9.9185    1.4238   22.0613 C   0  0  0  0  0  0  0  0  0  0  0  0
    9.5023    0.4860   21.2304 N   0  0  0  0  0  0  0  0  0  0  0  0
    8.2181    0.2830   21.6169 C   0  0  0  0  0  0  0  0  0  0  0  0
    7.3133   -0.7031   20.9395 C   0  0  0  0  0  0  0  0  0  0  0  0
    6.5456   -0.0742   19.7892 C   0  0  0  0  0  0  0  0  0  0  0  0
    5.3553    0.6215   20.0264 C   0  0  0  0  0  0  0  0  0  0  0  0
    4.7703    1.3311   18.9738 C   0  0  0  0  0  0  0  0  0  0  0  0
    5.3927    1.3105   17.7216 C   0  0  0  0  0  0  0  0  0  0  0  0
    6.5154    0.6215   17.4637 N   0  0  0  0  0  0  0  0  0  0  0  0
    7.0652   -0.0483   18.4833 C   0  0  0  0  0  0  0  0  0  0  0  0
    7.9793   -0.5979   18.2553 H   0  0  0  0  0  0  0  0  0  0  0  0
    4.9683    1.8602   16.8826 H   0  0  0  0  0  0  0  0  0  0  0  0
    3.8625    1.9064   19.1138 H   0  0  0  0  0  0  0  0  0  0  0  0
    4.9084    0.6081   21.0237 H   0  0  0  0  0  0  0  0  0  0  0  0
    6.6279   -1.0901   21.6992 H   0  0  0  0  0  0  0  0  0  0  0  0
    7.9207   -1.5396   20.5825 H   0  0  0  0  0  0  0  0  0  0  0  0
    7.8078    1.0342   22.6202 N   0  0  0  0  0  0  0  0  0  0  0  0
    8.9035    1.8056   22.8802 N   0  0  0  0  0  0  0  0  0  0  0  0
    8.9218    2.8543   23.8405 C   0  0  0  0  0  0  0  0  0  0  0  0
    9.3699    4.1199   23.5216 C   0  0  0  0  0  0  0  0  0  0  0  0
    9.1908    5.1571   24.4676 C   0  0  0  0  0  0  0  0  0  0  0  0
    8.6717    5.0069   25.6675 N   0  0  0  0  0  0  0  0  0  0  0  0
    8.3184    3.7325   26.0326 C   0  0  0  0  0  0  0  0  0  0  0  0
    7.7932    3.5402   27.3436 C   0  0  0  0  0  0  0  0  0  0  0  0
    7.5909    2.2703   27.8359 C   0  0  0  0  0  0  0  0  0  0  0  0
    7.8880    1.1332   27.0404 C   0  0  0  0  0  0  0  0  0  0  0  0
    8.3182    1.2868   25.7409 C   0  0  0  0  0  0  0  0  0  0  0  0
    8.4869    2.5927   25.1806 C   0  0  0  0  0  0  0  0  0  0  0  0
    8.5407    0.4302   25.1095 H   0  0  0  0  0  0  0  0  0  0  0  0
    7.7978    0.1384   27.4678 H   0  0  0  0  0  0  0  0  0  0  0  0
    7.2057    2.1140   28.8402 H   0  0  0  0  0  0  0  0  0  0  0  0
    7.6096    4.4359   27.9286 H   0  0  0  0  0  0  0  0  0  0  0  0
    9.4879    6.1700   24.1973 H   0  0  0  0  0  0  0  0  0  0  0  0
    9.8131    4.3431   22.5575 H   0  0  0  0  0  0  0  0  0  0  0  0
   11.4979    2.8350   21.6733 H   0  0  0  0  0  0  0  0  0  0  0  0
   13.3652    1.1623   21.7791 H   0  0  0  0  0  0  0  0  0  0  0  0
   12.1680   -0.1147   22.2546 H   0  0  0  0  0  0  0  0  0  0  0  0
   12.7491    2.5619   23.7383 H   0  0  0  0  0  0  0  0  0  0  0  0
   11.1609    1.7224   25.4633 H   0  0  0  0  0  0  0  0  0  0  0  0
   10.8478    0.2638   24.4938 H   0  0  0  0  0  0  0  0  0  0  0  0
  1  2  1  0
  2  3  1  0
  3  4  1  0
  4  5  1  0
  5  6  1  0
  6  7  2  0
  7  8  1  0
  8  9  1  0
  9 10  1  0
 10 11  2  0
 11 12  1  0
 12 13  2  0
 13 14  1  0
 14 15  2  0
 15 16  1  0
 13 17  1  0
 12 18  1  0
 11 19  1  0
  9 20  1  0
  9 21  1  0
  8 22  2  0
 22 23  1  0
 23 24  1  0
 24 25  2  0
 25 26  1  0
 26 27  2  0
 27 28  1  0
 28 29  2  0
 29 30  1  0
 30 31  2  0
 31 32  1  0
 32 33  2  0
 32 34  1  0
 31 35  1  0
 30 36  1  0
 29 37  1  0
 26 38  1  0
 25 39  1  0
  5 40  1  6
  4 41  1  0
  4 42  1  0
  3 43  1  1
  2 44  1  0
  2 45  1  0
  5  3  1  0
 23  6  1  0
 33 24  1  0
 15 10  1  0
 33 28  1  0
M  END
>  <cnnaffinity>  (1) 
-5.82551

>  <filename>  (1) 
FC[C@H]1C[C@H]1c1nc(Cc2cccnc2)nn1-c1ccnc2ccccc12

$$$$
