
     RDKit          3D

 21 22  0  0  0  0  0  0  0  0999 V2000
    4.9192    1.7855   16.9963 H   0  0  0  0  0  0  0  0  0  0  0  0
    5.4031    1.2951   17.8405 C   0  0  0  0  0  0  0  0  0  0  0  0
    6.5633    0.6749   17.5794 N   0  0  0  0  0  0  0  0  0  0  0  0
    7.1793    0.0636   18.5975 C   0  0  0  0  0  0  0  0  0  0  0  0
    8.1132   -0.4439   18.3680 H   0  0  0  0  0  0  0  0  0  0  0  0
    6.6798    0.0223   19.9114 C   0  0  0  0  0  0  0  0  0  0  0  0
    7.3629   -0.6816   20.9575 N   0  0  0  0  0  0  0  0  0  0  0  0
    8.6268   -0.4180   21.4680 C   0  0  0  0  0  0  0  0  0  0  0  0
    9.5170    0.6589   20.9540 C   0  0  0  0  0  0  0  0  0  0  0  0
   10.4312    0.6924   21.5572 H   0  0  0  0  0  0  0  0  0  0  0  0
    9.7376    0.4397   19.9106 H   0  0  0  0  0  0  0  0  0  0  0  0
    8.8730    1.8867   20.9691 F   0  0  0  0  0  0  0  0  0  0  0  0
    8.9526   -1.2486   22.4072 N   0  0  0  0  0  0  0  0  0  0  0  0
    7.8507   -2.0318   22.5309 N   0  0  0  0  0  0  0  0  0  0  0  0
    7.7795   -2.7663   23.2142 H   0  0  0  0  0  0  0  0  0  0  0  0
    6.8472   -1.7570   21.6759 C   0  0  0  0  0  0  0  0  0  0  0  0
    5.4275   -2.5991   21.5323 S   0  0  0  0  0  0  0  0  0  0  0  0
    5.4562    0.6427   20.1710 C   0  0  0  0  0  0  0  0  0  0  0  0
    5.0251    0.6062   21.1726 H   0  0  0  0  0  0  0  0  0  0  0  0
    4.8204    1.3054   19.1122 C   0  0  0  0  0  0  0  0  0  0  0  0
    3.8878    1.8321   19.2625 H   0  0  0  0  0  0  0  0  0  0  0  0
  1  2  1  0
  2  3  2  0
  3  4  1  0
  4  5  1  0
  4  6  2  0
  6  7  1  0
  7  8  1  0
  8  9  1  0
  9 10  1  0
  9 11  1  0
  9 12  1  0
  8 13  2  0
 13 14  1  0
 14 15  1  0
 14 16  1  0
 16 17  2  0
  6 18  1  0
 18 19  1  0
 18 20  2  0
 20 21  1  0
 20  2  1  0
 16  7  1  0
M  END
>  <cnnaffinity>  (1) 
-4.1275

>  <filename>  (1) 
FCc1n[nH]c(=S)n1-c1cccnc1

$$$$
