
     RDKit          3D

 38 41  0  0  0  0  0  0  0  0999 V2000
   13.5710    1.7589   22.8939 F   0  0  0  0  0  0  0  0  0  0  0  0
   12.2888    1.2527   23.0223 C   0  0  0  0  0  0  0  0  0  0  0  0
   11.4167    1.9531   21.9842 C   0  0  0  0  0  0  0  0  0  0  0  0
   10.0361    1.4924   22.0499 N   0  0  0  0  0  0  0  0  0  0  0  0
    9.6201    0.4918   21.2458 N   0  0  0  0  0  0  0  0  0  0  0  0
    8.3799    0.2791   21.6508 C   0  0  0  0  0  0  0  0  0  0  0  0
    7.4476   -0.6863   20.9903 C   0  0  0  0  0  0  0  0  0  0  0  0
    6.6424   -0.0328   19.8678 C   0  0  0  0  0  0  0  0  0  0  0  0
    5.4384    0.6362   20.1269 C   0  0  0  0  0  0  0  0  0  0  0  0
    4.7940    1.3099   19.0841 C   0  0  0  0  0  0  0  0  0  0  0  0
    5.3839    1.3028   17.8169 C   0  0  0  0  0  0  0  0  0  0  0  0
    6.5410    0.6797   17.5486 N   0  0  0  0  0  0  0  0  0  0  0  0
    7.1470    0.0448   18.5584 C   0  0  0  0  0  0  0  0  0  0  0  0
    8.1054   -0.4208   18.3232 H   0  0  0  0  0  0  0  0  0  0  0  0
    4.9174    1.8175   16.9768 H   0  0  0  0  0  0  0  0  0  0  0  0
    3.8675    1.8531   19.2371 H   0  0  0  0  0  0  0  0  0  0  0  0
    5.0274    0.6421   21.1376 H   0  0  0  0  0  0  0  0  0  0  0  0
    6.7802   -1.0536   21.7761 H   0  0  0  0  0  0  0  0  0  0  0  0
    8.0379   -1.5340   20.6269 H   0  0  0  0  0  0  0  0  0  0  0  0
    7.9839    1.0423   22.6864 N   0  0  0  0  0  0  0  0  0  0  0  0
    9.0437    1.8069   22.9172 C   0  0  0  0  0  0  0  0  0  0  0  0
    9.0771    2.8169   23.9554 C   0  0  0  0  0  0  0  0  0  0  0  0
    8.0768    3.1427   24.8049 C   0  0  0  0  0  0  0  0  0  0  0  0
    8.5909    4.2083   25.6266 C   0  0  0  0  0  0  0  0  0  0  0  0
    8.1612    4.9550   26.7409 C   0  0  0  0  0  0  0  0  0  0  0  0
    8.9522    5.8342   27.3542 N   0  0  0  0  0  0  0  0  0  0  0  0
   10.1934    6.0431   26.8765 C   0  0  0  0  0  0  0  0  0  0  0  0
   10.7265    5.3983   25.7667 C   0  0  0  0  0  0  0  0  0  0  0  0
    9.8935    4.4535   25.1678 C   0  0  0  0  0  0  0  0  0  0  0  0
   10.2015    3.5976   24.1612 O   0  0  0  0  0  0  0  0  0  0  0  0
   11.7690    5.5338   25.5055 H   0  0  0  0  0  0  0  0  0  0  0  0
   10.7884    6.7493   27.4544 H   0  0  0  0  0  0  0  0  0  0  0  0
    7.1585    4.8340   27.1519 H   0  0  0  0  0  0  0  0  0  0  0  0
    7.1025    2.6696   24.7980 H   0  0  0  0  0  0  0  0  0  0  0  0
   11.4594    3.0342   22.1375 H   0  0  0  0  0  0  0  0  0  0  0  0
   11.7773    1.7234   20.9761 H   0  0  0  0  0  0  0  0  0  0  0  0
   11.9410    1.4483   24.0433 H   0  0  0  0  0  0  0  0  0  0  0  0
   12.3154    0.1698   22.8463 H   0  0  0  0  0  0  0  0  0  0  0  0
  1  2  1  0
  2  3  1  0
  3  4  1  0
  4  5  1  0
  5  6  2  0
  6  7  1  0
  7  8  1  0
  8  9  2  0
  9 10  1  0
 10 11  2  0
 11 12  1  0
 12 13  2  0
 13 14  1  0
 11 15  1  0
 10 16  1  0
  9 17  1  0
  7 18  1  0
  7 19  1  0
  6 20  1  0
 20 21  2  0
 21 22  1  0
 22 23  2  0
 23 24  1  0
 24 25  2  0
 25 26  1  0
 26 27  2  0
 27 28  1  0
 28 29  2  0
 29 30  1  0
 28 31  1  0
 27 32  1  0
 25 33  1  0
 23 34  1  0
  3 35  1  0
  3 36  1  0
  2 37  1  0
  2 38  1  0
 21  4  1  0
 30 22  1  0
 13  8  1  0
 29 24  1  0
M  END
>  <cnnaffinity>  (1) 
-5.4604

>  <filename>  (1) 
FCCn1nc(Cc2cccnc2)nc1-c1cc2cnccc2o1

$$$$
