
     RDKit          3D

 46 49  0  0  0  0  0  0  0  0999 V2000
   12.3831   -2.2152   22.1867 F   0  0  0  0  0  0  0  0  0  0  0  0
   11.2197   -1.4834   22.3413 C   0  0  0  0  0  0  0  0  0  0  0  0
   10.0375   -2.4124   22.1162 C   0  0  0  0  0  0  0  0  0  0  0  0
    8.7831   -1.6760   22.0449 N   0  0  0  0  0  0  0  0  0  0  0  0
    8.4845   -1.1235   20.8503 N   0  0  0  0  0  0  0  0  0  0  0  0
    7.3029   -0.5670   21.0539 C   0  0  0  0  0  0  0  0  0  0  0  0
    6.5824    0.0947   19.9658 C   0  0  0  0  0  0  0  0  0  0  0  0
    5.3525    0.7524   20.1291 C   0  0  0  0  0  0  0  0  0  0  0  0
    4.7829    1.3600   19.0102 C   0  0  0  0  0  0  0  0  0  0  0  0
    5.4497    1.2858   17.7821 C   0  0  0  0  0  0  0  0  0  0  0  0
    6.6121    0.6407   17.6111 N   0  0  0  0  0  0  0  0  0  0  0  0
    7.1582    0.0618   18.6841 C   0  0  0  0  0  0  0  0  0  0  0  0
    8.0972   -0.4625   18.5169 H   0  0  0  0  0  0  0  0  0  0  0  0
    5.0311    1.7604   16.8957 H   0  0  0  0  0  0  0  0  0  0  0  0
    3.8427    1.8977   19.0698 H   0  0  0  0  0  0  0  0  0  0  0  0
    4.8503    0.7922   21.0984 H   0  0  0  0  0  0  0  0  0  0  0  0
    6.8363   -0.7074   22.3172 N   0  0  0  0  0  0  0  0  0  0  0  0
    7.7770   -1.4166   22.9218 C   0  0  0  0  0  0  0  0  0  0  0  0
    7.7872   -1.8267   24.3617 C   0  0  0  0  0  0  0  0  0  0  0  0
    7.3966   -3.3072   24.6994 C   0  0  0  0  0  0  0  0  0  0  0  0
    7.9175   -3.6684   26.1280 C   0  0  0  0  0  0  0  0  0  0  0  0
    6.9856   -4.5950   26.9261 C   0  0  0  0  0  0  0  0  0  0  0  0
    5.5802   -3.9742   26.9479 C   0  0  0  0  0  0  0  0  0  0  0  0
    5.0279   -3.9043   25.5358 C   0  0  0  0  0  0  0  0  0  0  0  0
    3.6747   -4.1792   25.2716 C   0  0  0  0  0  0  0  0  0  0  0  0
    3.2179   -4.3141   23.9603 C   0  0  0  0  0  0  0  0  0  0  0  0
    4.1182   -4.1583   22.8980 C   0  0  0  0  0  0  0  0  0  0  0  0
    5.4463   -3.8106   23.1540 C   0  0  0  0  0  0  0  0  0  0  0  0
    5.9150   -3.6418   24.4687 C   0  0  0  0  0  0  0  0  0  0  0  0
    6.1417   -3.6614   22.3323 H   0  0  0  0  0  0  0  0  0  0  0  0
    3.8136   -4.3179   21.8723 H   0  0  0  0  0  0  0  0  0  0  0  0
    2.1654   -4.5403   23.7825 H   0  0  0  0  0  0  0  0  0  0  0  0
    2.9855   -4.3130   26.1068 H   0  0  0  0  0  0  0  0  0  0  0  0
    4.8963   -4.5362   27.5948 H   0  0  0  0  0  0  0  0  0  0  0  0
    5.6446   -2.9580   27.3680 H   0  0  0  0  0  0  0  0  0  0  0  0
    6.9464   -5.5859   26.4486 H   0  0  0  0  0  0  0  0  0  0  0  0
    7.3660   -4.7530   27.9432 H   0  0  0  0  0  0  0  0  0  0  0  0
    8.0530   -2.7516   26.7229 H   0  0  0  0  0  0  0  0  0  0  0  0
    8.9161   -4.1160   26.0340 H   0  0  0  0  0  0  0  0  0  0  0  0
    7.9317   -3.9578   23.9899 H   0  0  0  0  0  0  0  0  0  0  0  0
    7.1168   -1.1430   24.8898 H   0  0  0  0  0  0  0  0  0  0  0  0
    8.7917   -1.6309   24.7616 H   0  0  0  0  0  0  0  0  0  0  0  0
   10.0023   -3.1961   22.8804 H   0  0  0  0  0  0  0  0  0  0  0  0
   10.1475   -2.8837   21.1388 H   0  0  0  0  0  0  0  0  0  0  0  0
   11.1959   -0.6741   21.6039 H   0  0  0  0  0  0  0  0  0  0  0  0
   11.2042   -1.0566   23.3533 H   0  0  0  0  0  0  0  0  0  0  0  0
  1  2  1  0
  2  3  1  0
  3  4  1  0
  4  5  1  0
  5  6  2  0
  6  7  1  0
  7  8  2  0
  8  9  1  0
  9 10  2  0
 10 11  1  0
 11 12  2  0
 12 13  1  0
 10 14  1  0
  9 15  1  0
  8 16  1  0
  6 17  1  0
 17 18  2  0
 18 19  1  0
 19 20  1  0
 20 21  1  0
 21 22  1  0
 22 23  1  0
 23 24  1  0
 24 25  2  0
 25 26  1  0
 26 27  2  0
 27 28  1  0
 28 29  2  0
 28 30  1  0
 27 31  1  0
 26 32  1  0
 25 33  1  0
 23 34  1  0
 23 35  1  0
 22 36  1  0
 22 37  1  0
 21 38  1  0
 21 39  1  0
 20 40  1  0
 19 41  1  0
 19 42  1  0
  3 43  1  0
  3 44  1  0
  2 45  1  0
  2 46  1  0
 18  4  1  0
 29 20  1  0
 12  7  1  0
 29 24  1  0
M  END
>  <cnnaffinity>  (1) 
-6.1656

>  <filename>  (1) 
FCCn1nc(-c2cccnc2)nc1CC1CCCc2ccccc21

$$$$
