
     RDKit          3D

 36 39  0  0  0  0  0  0  0  0999 V2000
   12.3380   -2.0396   22.2367 F   0  0  0  0  0  0  0  0  0  0  0  0
   11.2633   -1.2200   22.0755 C   0  0  0  0  0  0  0  0  0  0  0  0
    9.9823   -2.0555   22.0463 C   0  0  0  0  0  0  0  0  0  0  0  0
    8.7381   -1.2987   21.7858 N   0  0  0  0  0  0  0  0  0  0  0  0
    8.4165   -0.7994   20.5733 N   0  0  0  0  0  0  0  0  0  0  0  0
    7.1406   -0.5027   20.6939 C   0  0  0  0  0  0  0  0  0  0  0  0
    6.4029    0.1540   19.6342 C   0  0  0  0  0  0  0  0  0  0  0  0
    5.1693    0.8009   19.8016 C   0  0  0  0  0  0  0  0  0  0  0  0
    4.6427    1.4591   18.6912 C   0  0  0  0  0  0  0  0  0  0  0  0
    5.3286    1.4345   17.4735 C   0  0  0  0  0  0  0  0  0  0  0  0
    6.4912    0.7842   17.3169 N   0  0  0  0  0  0  0  0  0  0  0  0
    7.0131    0.1723   18.3860 C   0  0  0  0  0  0  0  0  0  0  0  0
    7.9683   -0.3246   18.2696 H   0  0  0  0  0  0  0  0  0  0  0  0
    4.9187    1.9753   16.6279 H   0  0  0  0  0  0  0  0  0  0  0  0
    3.7204    2.0227   18.7548 H   0  0  0  0  0  0  0  0  0  0  0  0
    4.6468    0.8376   20.7595 H   0  0  0  0  0  0  0  0  0  0  0  0
    6.5891   -0.8213   21.9169 N   0  0  0  0  0  0  0  0  0  0  0  0
    7.6033   -1.2859   22.5922 C   0  0  0  0  0  0  0  0  0  0  0  0
    7.5827   -1.6344   24.0062 C   0  0  0  0  0  0  0  0  0  0  0  0
    6.5615   -2.4340   24.5433 C   0  0  0  0  0  0  0  0  0  0  0  0
    5.4885   -3.0796   23.9251 N   0  0  0  0  0  0  0  0  0  0  0  0
    4.8136   -3.6779   24.8860 C   0  0  0  0  0  0  0  0  0  0  0  0
    5.4295   -3.4672   26.1072 N   0  0  0  0  0  0  0  0  0  0  0  0
    6.5475   -2.7000   25.9019 C   0  0  0  0  0  0  0  0  0  0  0  0
    7.5283   -2.1970   26.7504 C   0  0  0  0  0  0  0  0  0  0  0  0
    8.5384   -1.3847   26.2347 C   0  0  0  0  0  0  0  0  0  0  0  0
    9.8699   -0.6618   27.3841 Br  0  0  0  0  0  0  0  0  0  0  0  0
    8.5731   -1.1091   24.8655 C   0  0  0  0  0  0  0  0  0  0  0  0
    9.3580   -0.4571   24.4888 H   0  0  0  0  0  0  0  0  0  0  0  0
    7.4986   -2.4289   27.8007 H   0  0  0  0  0  0  0  0  0  0  0  0
    5.0881   -3.7779   27.0122 H   0  0  0  0  0  0  0  0  0  0  0  0
    3.8955   -4.2539   24.7520 H   0  0  0  0  0  0  0  0  0  0  0  0
    9.9041   -2.5960   22.9932 H   0  0  0  0  0  0  0  0  0  0  0  0
   10.0795   -2.7844   21.2424 H   0  0  0  0  0  0  0  0  0  0  0  0
   11.3757   -0.6654   21.1424 H   0  0  0  0  0  0  0  0  0  0  0  0
   11.2360   -0.5038   22.9001 H   0  0  0  0  0  0  0  0  0  0  0  0
  1  2  1  0
  2  3  1  0
  3  4  1  0
  4  5  1  0
  5  6  2  0
  6  7  1  0
  7  8  2  0
  8  9  1  0
  9 10  2  0
 10 11  1  0
 11 12  2  0
 12 13  1  0
 10 14  1  0
  9 15  1  0
  8 16  1  0
  6 17  1  0
 17 18  2  0
 18 19  1  0
 19 20  2  0
 20 21  1  0
 21 22  2  0
 22 23  1  0
 23 24  1  0
 24 25  2  0
 25 26  1  0
 26 27  1  0
 26 28  2  0
 28 29  1  0
 25 30  1  0
 23 31  1  0
 22 32  1  0
  3 33  1  0
  3 34  1  0
  2 35  1  0
  2 36  1  0
 18  4  1  0
 28 19  1  0
 12  7  1  0
 24 20  1  0
M  END
>  <cnnaffinity>  (1) 
-5.77053

>  <filename>  (1) 
FCCn1nc(-c2cccnc2)nc1-c1cc(Br)cc2[nH]cnc12

$$$$
