
     RDKit          3D

 41 44  0  0  0  0  0  0  0  0999 V2000
   11.6790   -0.6582   21.5490 F   0  0  0  0  0  0  0  0  0  0  0  0
   11.2493   -1.5897   22.4735 C   0  0  0  0  0  0  0  0  0  0  0  0
    9.9729   -2.2975   22.0422 C   0  0  0  0  0  0  0  0  0  0  0  0
    8.7671   -1.4836   21.9280 N   0  0  0  0  0  0  0  0  0  0  0  0
    8.4188   -1.0559   20.6925 N   0  0  0  0  0  0  0  0  0  0  0  0
    7.2827   -0.4145   20.8928 C   0  0  0  0  0  0  0  0  0  0  0  0
    6.5150    0.1796   19.8040 C   0  0  0  0  0  0  0  0  0  0  0  0
    5.2773    0.8277   19.9604 C   0  0  0  0  0  0  0  0  0  0  0  0
    4.7254    1.4343   18.8327 C   0  0  0  0  0  0  0  0  0  0  0  0
    5.4029    1.3491   17.6091 C   0  0  0  0  0  0  0  0  0  0  0  0
    6.5466    0.6695   17.4415 N   0  0  0  0  0  0  0  0  0  0  0  0
    7.0767    0.0970   18.5228 C   0  0  0  0  0  0  0  0  0  0  0  0
    7.9996   -0.4610   18.3843 H   0  0  0  0  0  0  0  0  0  0  0  0
    5.0133    1.8418   16.7228 H   0  0  0  0  0  0  0  0  0  0  0  0
    3.7980    1.9916   18.8898 H   0  0  0  0  0  0  0  0  0  0  0  0
    4.7688    0.8593   20.9277 H   0  0  0  0  0  0  0  0  0  0  0  0
    6.8880   -0.3919   22.1839 N   0  0  0  0  0  0  0  0  0  0  0  0
    7.8251   -1.0745   22.8106 C   0  0  0  0  0  0  0  0  0  0  0  0
    7.7268   -1.4372   24.2590 C   0  0  0  0  0  0  0  0  0  0  0  0
    7.2937   -2.8674   24.4736 C   0  0  0  0  0  0  0  0  0  0  0  0
    6.0141   -3.2288   24.0974 C   0  0  0  0  0  0  0  0  0  0  0  0
    5.5086   -4.5265   24.3569 C   0  0  0  0  0  0  0  0  0  0  0  0
    6.3234   -5.4810   24.9291 C   0  0  0  0  0  0  0  0  0  0  0  0
    7.6890   -5.1789   25.2349 C   0  0  0  0  0  0  0  0  0  0  0  0
    8.6234   -6.1384   25.7207 C   0  0  0  0  0  0  0  0  0  0  0  0
    9.9323   -5.7801   25.9332 C   0  0  0  0  0  0  0  0  0  0  0  0
   10.4127   -4.5257   25.7389 N   0  0  0  0  0  0  0  0  0  0  0  0
    9.5603   -3.6120   25.3066 C   0  0  0  0  0  0  0  0  0  0  0  0
    8.1789   -3.8498   25.0139 C   0  0  0  0  0  0  0  0  0  0  0  0
    9.9754   -2.6182   25.1313 H   0  0  0  0  0  0  0  0  0  0  0  0
   10.6780   -6.5143   26.2381 H   0  0  0  0  0  0  0  0  0  0  0  0
    8.2949   -7.1559   25.8850 H   0  0  0  0  0  0  0  0  0  0  0  0
    5.9419   -6.4762   25.1450 H   0  0  0  0  0  0  0  0  0  0  0  0
    4.4773   -4.7545   24.0889 H   0  0  0  0  0  0  0  0  0  0  0  0
    5.3992   -2.4979   23.5837 H   0  0  0  0  0  0  0  0  0  0  0  0
    6.9627   -0.7635   24.6574 H   0  0  0  0  0  0  0  0  0  0  0  0
    8.6544   -1.2225   24.7887 H   0  0  0  0  0  0  0  0  0  0  0  0
   10.1288   -2.7015   21.0434 H   0  0  0  0  0  0  0  0  0  0  0  0
    9.7739   -3.1264   22.7322 H   0  0  0  0  0  0  0  0  0  0  0  0
   11.1214   -1.0823   23.4363 H   0  0  0  0  0  0  0  0  0  0  0  0
   12.0419   -2.3411   22.5583 H   0  0  0  0  0  0  0  0  0  0  0  0
  1  2  1  0
  2  3  1  0
  3  4  1  0
  4  5  1  0
  5  6  2  0
  6  7  1  0
  7  8  2  0
  8  9  1  0
  9 10  2  0
 10 11  1  0
 11 12  2  0
 12 13  1  0
 10 14  1  0
  9 15  1  0
  8 16  1  0
  6 17  1  0
 17 18  2  0
 18 19  1  0
 19 20  1  0
 20 21  2  0
 21 22  1  0
 22 23  2  0
 23 24  1  0
 24 25  2  0
 25 26  1  0
 26 27  2  0
 27 28  1  0
 28 29  2  0
 28 30  1  0
 26 31  1  0
 25 32  1  0
 23 33  1  0
 22 34  1  0
 21 35  1  0
 19 36  1  0
 19 37  1  0
  3 38  1  0
  3 39  1  0
  2 40  1  0
  2 41  1  0
 18  4  1  0
 29 20  1  0
 12  7  1  0
 29 24  1  0
M  END
>  <cnnaffinity>  (1) 
-5.82082

>  <filename>  (1) 
FCCn1nc(-c2cccnc2)nc1Cc1cccc2ccncc12

$$$$
