
     RDKit          3D

 44 47  0  0  0  0  0  0  0  0999 V2000
   12.4181   -2.1949   22.3042 F   0  0  0  0  0  0  0  0  0  0  0  0
   11.2645   -1.4346   22.2281 C   0  0  0  0  0  0  0  0  0  0  0  0
   10.0825   -2.3864   22.1987 C   0  0  0  0  0  0  0  0  0  0  0  0
    8.8258   -1.6873   22.0532 N   0  0  0  0  0  0  0  0  0  0  0  0
    8.5538   -1.1871   20.8246 N   0  0  0  0  0  0  0  0  0  0  0  0
    7.3384   -0.6963   20.9730 C   0  0  0  0  0  0  0  0  0  0  0  0
    6.6250   -0.0048   19.9088 C   0  0  0  0  0  0  0  0  0  0  0  0
    5.4107    0.6557   20.1442 C   0  0  0  0  0  0  0  0  0  0  0  0
    4.8085    1.3100   19.0751 C   0  0  0  0  0  0  0  0  0  0  0  0
    5.4356    1.2819   17.8238 C   0  0  0  0  0  0  0  0  0  0  0  0
    6.5960    0.6494   17.5921 N   0  0  0  0  0  0  0  0  0  0  0  0
    7.1772    0.0270   18.6212 C   0  0  0  0  0  0  0  0  0  0  0  0
    8.1263   -0.4658   18.4118 H   0  0  0  0  0  0  0  0  0  0  0  0
    4.9872    1.7867   16.9710 H   0  0  0  0  0  0  0  0  0  0  0  0
    3.8786    1.8500   19.2007 H   0  0  0  0  0  0  0  0  0  0  0  0
    4.9740    0.6562   21.1469 H   0  0  0  0  0  0  0  0  0  0  0  0
    6.8177   -0.8581   22.2106 N   0  0  0  0  0  0  0  0  0  0  0  0
    7.7754   -1.4701   22.8764 C   0  0  0  0  0  0  0  0  0  0  0  0
    7.8179   -1.7942   24.3356 C   0  0  0  0  0  0  0  0  0  0  0  0
    8.7922   -0.9156   25.1624 C   0  0  0  0  0  0  0  0  0  0  0  0
    8.1680   -0.8296   26.5548 C   0  0  0  0  0  0  0  0  0  0  0  0
    6.7595   -1.1262   26.3312 N   0  0  0  0  0  0  0  0  0  0  0  0
    5.8170   -0.9954   27.2994 C   0  0  0  0  0  0  0  0  0  0  0  0
    4.4632   -1.2891   27.0525 C   0  0  0  0  0  0  0  0  0  0  0  0
    3.5724   -1.2276   28.1101 C   0  0  0  0  0  0  0  0  0  0  0  0
    3.9072   -0.8670   29.3552 N   0  0  0  0  0  0  0  0  0  0  0  0
    5.1930   -0.5640   29.5755 C   0  0  0  0  0  0  0  0  0  0  0  0
    6.1655   -0.5649   28.5891 C   0  0  0  0  0  0  0  0  0  0  0  0
    7.1592   -0.1869   28.7704 H   0  0  0  0  0  0  0  0  0  0  0  0
    5.4599   -0.3123   30.6036 H   0  0  0  0  0  0  0  0  0  0  0  0
    2.5280   -1.5039   27.9593 H   0  0  0  0  0  0  0  0  0  0  0  0
    4.1329   -1.5733   26.0677 H   0  0  0  0  0  0  0  0  0  0  0  0
    6.4501   -1.6086   24.9996 C   0  0  0  0  0  0  0  0  0  0  0  0
    5.9055   -2.5615   25.0508 H   0  0  0  0  0  0  0  0  0  0  0  0
    5.8151   -0.8939   24.4607 H   0  0  0  0  0  0  0  0  0  0  0  0
    8.5948   -1.5481   27.2678 H   0  0  0  0  0  0  0  0  0  0  0  0
    8.2973    0.1695   26.9927 H   0  0  0  0  0  0  0  0  0  0  0  0
    8.8440    0.0900   24.7342 H   0  0  0  0  0  0  0  0  0  0  0  0
    9.8082   -1.3194   25.1949 H   0  0  0  0  0  0  0  0  0  0  0  0
    8.1124   -2.8424   24.4494 H   0  0  0  0  0  0  0  0  0  0  0  0
   10.0765   -3.0411   23.0742 H   0  0  0  0  0  0  0  0  0  0  0  0
   10.1651   -2.9837   21.2995 H   0  0  0  0  0  0  0  0  0  0  0  0
   11.2160   -0.7677   23.0984 H   0  0  0  0  0  0  0  0  0  0  0  0
   11.2925   -0.8410   21.3095 H   0  0  0  0  0  0  0  0  0  0  0  0
  1  2  1  0
  2  3  1  0
  3  4  1  0
  4  5  1  0
  5  6  2  0
  6  7  1  0
  7  8  2  0
  8  9  1  0
  9 10  2  0
 10 11  1  0
 11 12  2  0
 12 13  1  0
 10 14  1  0
  9 15  1  0
  8 16  1  0
  6 17  1  0
 17 18  2  0
 18 19  1  0
 19 20  1  0
 20 21  1  0
 21 22  1  0
 22 23  1  0
 23 24  2  0
 24 25  1  0
 25 26  2  0
 26 27  1  0
 27 28  2  0
 28 29  1  0
 27 30  1  0
 25 31  1  0
 24 32  1  0
 22 33  1  0
 33 34  1  0
 33 35  1  0
 21 36  1  0
 21 37  1  0
 20 38  1  0
 20 39  1  0
 19 40  1  0
  3 41  1  0
  3 42  1  0
  2 43  1  0
  2 44  1  0
 18  4  1  0
 33 19  1  0
 12  7  1  0
 28 23  1  0
M  END
>  <cnnaffinity>  (1) 
-6.0188

>  <filename>  (1) 
FCCn1nc(-c2cccnc2)nc1C1CCN(c2ccncc2)C1

$$$$
