
     RDKit          3D

 36 39  0  0  0  0  0  0  0  0999 V2000
   10.8880   -0.6696   23.7050 F   0  0  0  0  0  0  0  0  0  0  0  0
   11.1886   -1.3394   22.5584 C   0  0  0  0  0  0  0  0  0  0  0  0
   10.1230   -2.3785   22.2407 C   0  0  0  0  0  0  0  0  0  0  0  0
    8.8352   -1.7632   21.9224 N   0  0  0  0  0  0  0  0  0  0  0  0
    8.5263   -1.3075   20.6913 N   0  0  0  0  0  0  0  0  0  0  0  0
    7.3937   -0.6833   20.9024 C   0  0  0  0  0  0  0  0  0  0  0  0
    6.6561    0.0042   19.8856 C   0  0  0  0  0  0  0  0  0  0  0  0
    5.4458    0.6470   20.1573 C   0  0  0  0  0  0  0  0  0  0  0  0
    4.8257    1.2928   19.1007 C   0  0  0  0  0  0  0  0  0  0  0  0
    5.4190    1.2815   17.8361 C   0  0  0  0  0  0  0  0  0  0  0  0
    6.5833    0.6561   17.5846 N   0  0  0  0  0  0  0  0  0  0  0  0
    7.1917    0.0340   18.6034 C   0  0  0  0  0  0  0  0  0  0  0  0
    8.1437   -0.4594   18.4233 H   0  0  0  0  0  0  0  0  0  0  0  0
    4.9199    1.8041   17.0300 H   0  0  0  0  0  0  0  0  0  0  0  0
    3.8922    1.8212   19.2436 H   0  0  0  0  0  0  0  0  0  0  0  0
    5.0003    0.6535   21.1536 H   0  0  0  0  0  0  0  0  0  0  0  0
    6.9372   -0.7084   22.1995 N   0  0  0  0  0  0  0  0  0  0  0  0
    7.8428   -1.4068   22.8122 C   0  0  0  0  0  0  0  0  0  0  0  0
    7.8267   -1.7331   24.2203 C   0  0  0  0  0  0  0  0  0  0  0  0
    7.7694   -0.7300   25.1782 C   0  0  0  0  0  0  0  0  0  0  0  0
    7.7723   -1.0835   26.6020 C   0  0  0  0  0  0  0  0  0  0  0  0
    7.7160    0.2833   27.9336 Br  0  0  0  0  0  0  0  0  0  0  0  0
    7.8418   -2.4156   26.9656 C   0  0  0  0  0  0  0  0  0  0  0  0
    7.8435   -3.4141   26.0034 N   0  0  0  0  0  0  0  0  0  0  0  0
    7.8267   -4.7828   26.1625 C   0  0  0  0  0  0  0  0  0  0  0  0
    7.8606   -5.2901   24.8944 C   0  0  0  0  0  0  0  0  0  0  0  0
    7.8896   -4.2595   23.9554 N   0  0  0  0  0  0  0  0  0  0  0  0
    7.8660   -3.1411   24.6500 C   0  0  0  0  0  0  0  0  0  0  0  0
    7.8541   -6.3499   24.6535 H   0  0  0  0  0  0  0  0  0  0  0  0
    7.7883   -5.3462   27.0877 H   0  0  0  0  0  0  0  0  0  0  0  0
    7.9152   -2.7236   27.9877 H   0  0  0  0  0  0  0  0  0  0  0  0
    7.7540    0.3234   24.8995 H   0  0  0  0  0  0  0  0  0  0  0  0
   10.0187   -3.0931   23.0661 H   0  0  0  0  0  0  0  0  0  0  0  0
   10.4345   -2.9025   21.3451 H   0  0  0  0  0  0  0  0  0  0  0  0
   12.1523   -1.8454   22.6610 H   0  0  0  0  0  0  0  0  0  0  0  0
   11.2651   -0.6375   21.7222 H   0  0  0  0  0  0  0  0  0  0  0  0
  1  2  1  0
  2  3  1  0
  3  4  1  0
  4  5  1  0
  5  6  2  0
  6  7  1  0
  7  8  2  0
  8  9  1  0
  9 10  2  0
 10 11  1  0
 11 12  2  0
 12 13  1  0
 10 14  1  0
  9 15  1  0
  8 16  1  0
  6 17  1  0
 17 18  2  0
 18 19  1  0
 19 20  2  0
 20 21  1  0
 21 22  1  0
 21 23  2  0
 23 24  1  0
 24 25  1  0
 25 26  2  0
 26 27  1  0
 27 28  2  0
 26 29  1  0
 25 30  1  0
 23 31  1  0
 20 32  1  0
  3 33  1  0
  3 34  1  0
  2 35  1  0
  2 36  1  0
 18  4  1  0
 28 19  1  0
 12  7  1  0
 28 24  1  0
M  END
>  <cnnaffinity>  (1) 
-6.23366

>  <filename>  (1) 
FCCn1nc(-c2cccnc2)nc1-c1cc(Br)cn2ccnc12

$$$$
