
     RDKit          3D

 44 47  0  0  0  0  0  0  0  0999 V2000
   12.3396   -2.3587   22.3108 F   0  0  0  0  0  0  0  0  0  0  0  0
   11.2564   -1.5619   21.9877 C   0  0  0  0  0  0  0  0  0  0  0  0
   10.0104   -2.4065   22.1768 C   0  0  0  0  0  0  0  0  0  0  0  0
    8.8108   -1.6084   22.0833 N   0  0  0  0  0  0  0  0  0  0  0  0
    8.5392   -1.1090   20.8563 N   0  0  0  0  0  0  0  0  0  0  0  0
    7.3386   -0.5942   21.0144 C   0  0  0  0  0  0  0  0  0  0  0  0
    6.6200    0.0288   19.9150 C   0  0  0  0  0  0  0  0  0  0  0  0
    5.3972    0.6683   20.1331 C   0  0  0  0  0  0  0  0  0  0  0  0
    4.7971    1.3106   19.0562 C   0  0  0  0  0  0  0  0  0  0  0  0
    5.4374    1.2792   17.8118 C   0  0  0  0  0  0  0  0  0  0  0  0
    6.5948    0.6385   17.5866 N   0  0  0  0  0  0  0  0  0  0  0  0
    7.1752    0.0268   18.6255 C   0  0  0  0  0  0  0  0  0  0  0  0
    8.1243   -0.4695   18.4217 H   0  0  0  0  0  0  0  0  0  0  0  0
    5.0015    1.7946   16.9585 H   0  0  0  0  0  0  0  0  0  0  0  0
    3.8680    1.8504   19.1823 H   0  0  0  0  0  0  0  0  0  0  0  0
    4.9714    0.6698   21.1398 H   0  0  0  0  0  0  0  0  0  0  0  0
    6.8274   -0.7157   22.2663 N   0  0  0  0  0  0  0  0  0  0  0  0
    7.7685   -1.3770   22.9137 C   0  0  0  0  0  0  0  0  0  0  0  0
    7.7365   -1.8439   24.3320 C   0  0  0  0  0  0  0  0  0  0  0  0
    9.0026   -1.5288   25.1681 C   0  0  0  0  0  0  0  0  0  0  0  0
    9.5649   -2.7859   25.4866 O   0  0  0  0  0  0  0  0  0  0  0  0
    8.4924   -3.6847   25.6934 C   0  0  0  0  0  0  0  0  0  0  0  0
    7.5518   -3.3927   24.5109 C   0  0  0  0  0  0  0  0  0  0  0  0
    6.1129   -3.8355   24.6743 C   0  0  0  0  0  0  0  0  0  0  0  0
    5.3474   -3.3432   25.7432 C   0  0  0  0  0  0  0  0  0  0  0  0
    4.0159   -3.7298   25.9138 C   0  0  0  0  0  0  0  0  0  0  0  0
    3.4230   -4.6181   25.0095 C   0  0  0  0  0  0  0  0  0  0  0  0
    4.1714   -5.1184   23.9395 C   0  0  0  0  0  0  0  0  0  0  0  0
    5.5083   -4.7310   23.7747 C   0  0  0  0  0  0  0  0  0  0  0  0
    6.0802   -5.1260   22.9365 H   0  0  0  0  0  0  0  0  0  0  0  0
    3.7158   -5.8106   23.2350 H   0  0  0  0  0  0  0  0  0  0  0  0
    2.3861   -4.9174   25.1421 H   0  0  0  0  0  0  0  0  0  0  0  0
    3.4440   -3.3312   26.7469 H   0  0  0  0  0  0  0  0  0  0  0  0
    5.7947   -2.6404   26.4447 H   0  0  0  0  0  0  0  0  0  0  0  0
    7.9747   -3.9062   23.6376 H   0  0  0  0  0  0  0  0  0  0  0  0
    8.0001   -3.5145   26.6689 H   0  0  0  0  0  0  0  0  0  0  0  0
    8.9094   -4.6963   25.6864 H   0  0  0  0  0  0  0  0  0  0  0  0
    9.7684   -0.9651   24.6255 H   0  0  0  0  0  0  0  0  0  0  0  0
    8.7505   -0.9653   26.0884 H   0  0  0  0  0  0  0  0  0  0  0  0
    6.8871   -1.3152   24.7646 H   0  0  0  0  0  0  0  0  0  0  0  0
   10.0444   -2.9551   23.1145 H   0  0  0  0  0  0  0  0  0  0  0  0
    9.9419   -3.0928   21.3446 H   0  0  0  0  0  0  0  0  0  0  0  0
   11.3592   -1.2341   20.9471 H   0  0  0  0  0  0  0  0  0  0  0  0
   11.2601   -0.6821   22.6452 H   0  0  0  0  0  0  0  0  0  0  0  0
  1  2  1  0
  2  3  1  0
  3  4  1  0
  4  5  1  0
  5  6  2  0
  6  7  1  0
  7  8  2  0
  8  9  1  0
  9 10  2  0
 10 11  1  0
 11 12  2  0
 12 13  1  0
 10 14  1  0
  9 15  1  0
  8 16  1  0
  6 17  1  0
 17 18  2  0
 18 19  1  0
 19 20  1  0
 20 21  1  0
 21 22  1  0
 22 23  1  0
 23 24  1  0
 24 25  2  0
 25 26  1  0
 26 27  2  0
 27 28  1  0
 28 29  2  0
 29 30  1  0
 28 31  1  0
 27 32  1  0
 26 33  1  0
 25 34  1  0
 23 35  1  0
 22 36  1  0
 22 37  1  0
 20 38  1  0
 20 39  1  0
 19 40  1  0
  3 41  1  0
  3 42  1  0
  2 43  1  0
  2 44  1  0
 18  4  1  0
 23 19  1  0
 29 24  1  0
 12  7  1  0
M  END
>  <cnnaffinity>  (1) 
-5.86311

>  <filename>  (1) 
FCCn1nc(-c2cccnc2)nc1C1COCC1c1ccccc1

$$$$
