
     RDKit          3D

 41 44  0  0  0  0  0  0  0  0999 V2000
   10.9436   -0.9337   23.6725 F   0  0  0  0  0  0  0  0  0  0  0  0
   11.1516   -1.6074   22.4762 C   0  0  0  0  0  0  0  0  0  0  0  0
    9.9634   -2.4877   22.1502 C   0  0  0  0  0  0  0  0  0  0  0  0
    8.7051   -1.7798   22.0284 N   0  0  0  0  0  0  0  0  0  0  0  0
    8.4322   -1.2448   20.8240 N   0  0  0  0  0  0  0  0  0  0  0  0
    7.2887   -0.6245   21.0264 C   0  0  0  0  0  0  0  0  0  0  0  0
    6.5992    0.0598   19.9394 C   0  0  0  0  0  0  0  0  0  0  0  0
    5.3772    0.7124   20.1341 C   0  0  0  0  0  0  0  0  0  0  0  0
    4.7880    1.3389   19.0395 C   0  0  0  0  0  0  0  0  0  0  0  0
    5.4372    1.2921   17.8003 C   0  0  0  0  0  0  0  0  0  0  0  0
    6.5987    0.6502   17.5998 N   0  0  0  0  0  0  0  0  0  0  0  0
    7.1622    0.0490   18.6519 C   0  0  0  0  0  0  0  0  0  0  0  0
    8.0994   -0.4713   18.4555 H   0  0  0  0  0  0  0  0  0  0  0  0
    5.0065    1.7877   16.9314 H   0  0  0  0  0  0  0  0  0  0  0  0
    3.8484    1.8689   19.1381 H   0  0  0  0  0  0  0  0  0  0  0  0
    4.9171    0.7160   21.1241 H   0  0  0  0  0  0  0  0  0  0  0  0
    6.8306   -0.6987   22.3023 N   0  0  0  0  0  0  0  0  0  0  0  0
    7.7310   -1.4386   22.9168 C   0  0  0  0  0  0  0  0  0  0  0  0
    7.7628   -1.9201   24.3519 C   0  0  0  0  0  0  0  0  0  0  0  0
    7.0944   -0.9538   25.3510 C   0  0  0  0  0  0  0  0  0  0  0  0
    5.6762   -0.9993   25.4094 O   0  0  0  0  0  0  0  0  0  0  0  0
    5.0138   -2.1458   25.1027 C   0  0  0  0  0  0  0  0  0  0  0  0
    3.6244   -2.1054   25.2970 C   0  0  0  0  0  0  0  0  0  0  0  0
    2.8149   -3.1378   24.8314 C   0  0  0  0  0  0  0  0  0  0  0  0
    3.4116   -4.2169   24.1731 C   0  0  0  0  0  0  0  0  0  0  0  0
    2.3941   -5.4112   23.4129 Cl  0  0  0  0  0  0  0  0  0  0  0  0
    4.8030   -4.3231   24.1015 C   0  0  0  0  0  0  0  0  0  0  0  0
    5.6413   -3.2911   24.5702 C   0  0  0  0  0  0  0  0  0  0  0  0
    7.1648   -3.3407   24.5438 C   0  0  0  0  0  0  0  0  0  0  0  0
    7.5499   -3.7480   25.4927 H   0  0  0  0  0  0  0  0  0  0  0  0
    7.5115   -4.0166   23.7524 H   0  0  0  0  0  0  0  0  0  0  0  0
    5.2141   -5.2097   23.6367 H   0  0  0  0  0  0  0  0  0  0  0  0
    1.7389   -3.0959   24.9574 H   0  0  0  0  0  0  0  0  0  0  0  0
    3.1968   -1.2204   25.7508 H   0  0  0  0  0  0  0  0  0  0  0  0
    7.4645   -1.1703   26.3641 H   0  0  0  0  0  0  0  0  0  0  0  0
    7.3362    0.0857   25.1080 H   0  0  0  0  0  0  0  0  0  0  0  0
    8.8242   -1.9232   24.6287 H   0  0  0  0  0  0  0  0  0  0  0  0
    9.8731   -3.2952   22.8831 H   0  0  0  0  0  0  0  0  0  0  0  0
   10.1239   -2.9071   21.1578 H   0  0  0  0  0  0  0  0  0  0  0  0
   12.0355   -2.2468   22.5741 H   0  0  0  0  0  0  0  0  0  0  0  0
   11.3355   -0.8745   21.6840 H   0  0  0  0  0  0  0  0  0  0  0  0
  1  2  1  0
  2  3  1  0
  3  4  1  0
  4  5  1  0
  5  6  2  0
  6  7  1  0
  7  8  2  0
  8  9  1  0
  9 10  2  0
 10 11  1  0
 11 12  2  0
 12 13  1  0
 10 14  1  0
  9 15  1  0
  8 16  1  0
  6 17  1  0
 17 18  2  0
 18 19  1  0
 19 20  1  0
 20 21  1  0
 21 22  1  0
 22 23  2  0
 23 24  1  0
 24 25  2  0
 25 26  1  0
 25 27  1  0
 27 28  2  0
 28 29  1  0
 29 30  1  0
 29 31  1  0
 27 32  1  0
 24 33  1  0
 23 34  1  0
 20 35  1  0
 20 36  1  0
 19 37  1  0
  3 38  1  0
  3 39  1  0
  2 40  1  0
  2 41  1  0
 18  4  1  0
 29 19  1  0
 12  7  1  0
 28 22  1  0
M  END
>  <cnnaffinity>  (1) 
-5.94625

>  <filename>  (1) 
FCCn1nc(-c2cccnc2)nc1C1COc2ccc(Cl)cc2C1

$$$$
