
     RDKit          3D

 37 40  0  0  0  0  0  0  0  0999 V2000
   12.3168   -2.4739   22.4465 F   0  0  0  0  0  0  0  0  0  0  0  0
   11.2397   -1.6096   22.3689 C   0  0  0  0  0  0  0  0  0  0  0  0
   10.0204   -2.4913   22.1926 C   0  0  0  0  0  0  0  0  0  0  0  0
    8.8084   -1.7184   22.0298 N   0  0  0  0  0  0  0  0  0  0  0  0
    8.5295   -1.2844   20.7855 N   0  0  0  0  0  0  0  0  0  0  0  0
    7.3679   -0.6851   20.9374 C   0  0  0  0  0  0  0  0  0  0  0  0
    6.6572   -0.0045   19.8798 C   0  0  0  0  0  0  0  0  0  0  0  0
    5.4459    0.6438   20.1507 C   0  0  0  0  0  0  0  0  0  0  0  0
    4.8163    1.2991   19.1019 C   0  0  0  0  0  0  0  0  0  0  0  0
    5.4181    1.2802   17.8383 C   0  0  0  0  0  0  0  0  0  0  0  0
    6.5796    0.6610   17.5753 N   0  0  0  0  0  0  0  0  0  0  0  0
    7.1904    0.0392   18.5865 C   0  0  0  0  0  0  0  0  0  0  0  0
    8.1441   -0.4375   18.3560 H   0  0  0  0  0  0  0  0  0  0  0  0
    4.9514    1.7875   16.9993 H   0  0  0  0  0  0  0  0  0  0  0  0
    3.8841    1.8317   19.2485 H   0  0  0  0  0  0  0  0  0  0  0  0
    5.0302    0.6279   21.1610 H   0  0  0  0  0  0  0  0  0  0  0  0
    6.8764   -0.7217   22.1941 N   0  0  0  0  0  0  0  0  0  0  0  0
    7.8053   -1.3845   22.8723 C   0  0  0  0  0  0  0  0  0  0  0  0
    7.8626   -1.7712   24.3162 C   0  0  0  0  0  0  0  0  0  0  0  0
    9.0322   -1.5947   24.9305 N   0  0  0  0  0  0  0  0  0  0  0  0
    9.0875   -1.7379   26.2756 C   0  0  0  0  0  0  0  0  0  0  0  0
    8.0365   -2.1950   27.0222 C   0  0  0  0  0  0  0  0  0  0  0  0
    6.8011   -2.4843   26.4040 C   0  0  0  0  0  0  0  0  0  0  0  0
    5.6457   -2.9260   27.0930 C   0  0  0  0  0  0  0  0  0  0  0  0
    4.5008   -3.1880   26.3800 C   0  0  0  0  0  0  0  0  0  0  0  0
    4.4173   -3.0761   25.0310 N   0  0  0  0  0  0  0  0  0  0  0  0
    5.4826   -2.6617   24.3760 C   0  0  0  0  0  0  0  0  0  0  0  0
    6.7114   -2.2985   24.9990 C   0  0  0  0  0  0  0  0  0  0  0  0
    5.4084   -2.5819   23.2896 H   0  0  0  0  0  0  0  0  0  0  0  0
    3.5820   -3.5185   26.8678 H   0  0  0  0  0  0  0  0  0  0  0  0
    5.6630   -3.0582   28.1683 H   0  0  0  0  0  0  0  0  0  0  0  0
    8.1880   -2.3476   28.0664 H   0  0  0  0  0  0  0  0  0  0  0  0
    9.9986   -1.4328   26.7801 H   0  0  0  0  0  0  0  0  0  0  0  0
   10.1237   -3.0147   21.2461 H   0  0  0  0  0  0  0  0  0  0  0  0
    9.9421   -3.2055   23.0181 H   0  0  0  0  0  0  0  0  0  0  0  0
   11.1985   -1.0019   23.2812 H   0  0  0  0  0  0  0  0  0  0  0  0
   11.3580   -0.9618   21.4927 H   0  0  0  0  0  0  0  0  0  0  0  0
  1  2  1  0
  2  3  1  0
  3  4  1  0
  4  5  1  0
  5  6  2  0
  6  7  1  0
  7  8  2  0
  8  9  1  0
  9 10  2  0
 10 11  1  0
 11 12  2  0
 12 13  1  0
 10 14  1  0
  9 15  1  0
  8 16  1  0
  6 17  1  0
 17 18  2  0
 18 19  1  0
 19 20  2  0
 20 21  1  0
 21 22  2  0
 22 23  1  0
 23 24  2  0
 24 25  1  0
 25 26  2  0
 26 27  1  0
 27 28  2  0
 27 29  1  0
 25 30  1  0
 24 31  1  0
 22 32  1  0
 21 33  1  0
  3 34  1  0
  3 35  1  0
  2 36  1  0
  2 37  1  0
 18  4  1  0
 28 19  1  0
 12  7  1  0
 28 23  1  0
M  END
>  <cnnaffinity>  (1) 
-5.75587

>  <filename>  (1) 
FCCn1nc(-c2cccnc2)nc1-c1nccc2ccncc12

$$$$
