
     RDKit          3D

 35 38  0  0  0  0  0  0  0  0999 V2000
   11.6916   -1.1072   21.2525 F   0  0  0  0  0  0  0  0  0  0  0  0
   11.2864   -1.7295   22.4186 C   0  0  0  0  0  0  0  0  0  0  0  0
    9.9417   -2.4175   22.2079 C   0  0  0  0  0  0  0  0  0  0  0  0
    8.7673   -1.5514   22.0627 N   0  0  0  0  0  0  0  0  0  0  0  0
    8.4982   -1.0609   20.8296 N   0  0  0  0  0  0  0  0  0  0  0  0
    7.2758   -0.5775   20.9462 C   0  0  0  0  0  0  0  0  0  0  0  0
    6.5690    0.0900   19.8490 C   0  0  0  0  0  0  0  0  0  0  0  0
    5.3401    0.7498   20.0284 C   0  0  0  0  0  0  0  0  0  0  0  0
    4.7645    1.3863   18.9318 C   0  0  0  0  0  0  0  0  0  0  0  0
    5.4206    1.3302   17.6978 C   0  0  0  0  0  0  0  0  0  0  0  0
    6.5800    0.6835   17.5090 N   0  0  0  0  0  0  0  0  0  0  0  0
    7.1389    0.0846   18.5654 C   0  0  0  0  0  0  0  0  0  0  0  0
    8.0815   -0.4263   18.3710 H   0  0  0  0  0  0  0  0  0  0  0  0
    4.9857    1.8129   16.8245 H   0  0  0  0  0  0  0  0  0  0  0  0
    3.8225    1.9188   19.0131 H   0  0  0  0  0  0  0  0  0  0  0  0
    4.8465    0.7580   21.0017 H   0  0  0  0  0  0  0  0  0  0  0  0
    6.7207   -0.7645   22.1664 N   0  0  0  0  0  0  0  0  0  0  0  0
    7.6813   -1.3453   22.8608 C   0  0  0  0  0  0  0  0  0  0  0  0
    7.6215   -1.7406   24.2904 C   0  0  0  0  0  0  0  0  0  0  0  0
    6.5988   -2.5361   24.8557 C   0  0  0  0  0  0  0  0  0  0  0  0
    6.6329   -2.8892   26.2222 C   0  0  0  0  0  0  0  0  0  0  0  0
    7.5831   -2.4933   27.0913 N   0  0  0  0  0  0  0  0  0  0  0  0
    8.4915   -1.6913   26.5449 C   0  0  0  0  0  0  0  0  0  0  0  0
    8.5923   -1.2749   25.1987 C   0  0  0  0  0  0  0  0  0  0  0  0
    9.6710   -0.4179   25.0394 N   0  0  0  0  0  0  0  0  0  0  0  0
   10.1950   -0.3352   26.2342 C   0  0  0  0  0  0  0  0  0  0  0  0
    9.5381   -1.0758   27.1756 N   0  0  0  0  0  0  0  0  0  0  0  0
    9.7010   -1.1300   28.1628 H   0  0  0  0  0  0  0  0  0  0  0  0
   11.0640    0.2628   26.4750 H   0  0  0  0  0  0  0  0  0  0  0  0
    5.8401   -3.5050   26.6418 H   0  0  0  0  0  0  0  0  0  0  0  0
    5.7600   -2.8659   24.2548 H   0  0  0  0  0  0  0  0  0  0  0  0
    9.9967   -2.9806   21.2749 H   0  0  0  0  0  0  0  0  0  0  0  0
    9.7674   -3.1281   23.0214 H   0  0  0  0  0  0  0  0  0  0  0  0
   11.2534   -0.9946   23.2332 H   0  0  0  0  0  0  0  0  0  0  0  0
   12.0194   -2.5160   22.6584 H   0  0  0  0  0  0  0  0  0  0  0  0
  1  2  1  0
  2  3  1  0
  3  4  1  0
  4  5  1  0
  5  6  2  0
  6  7  1  0
  7  8  2  0
  8  9  1  0
  9 10  2  0
 10 11  1  0
 11 12  2  0
 12 13  1  0
 10 14  1  0
  9 15  1  0
  8 16  1  0
  6 17  1  0
 17 18  2  0
 18 19  1  0
 19 20  2  0
 20 21  1  0
 21 22  2  0
 22 23  1  0
 23 24  2  0
 24 25  1  0
 25 26  2  0
 26 27  1  0
 27 28  1  0
 26 29  1  0
 21 30  1  0
 20 31  1  0
  3 32  1  0
  3 33  1  0
  2 34  1  0
  2 35  1  0
 18  4  1  0
 24 19  1  0
 12  7  1  0
 27 23  1  0
M  END
>  <cnnaffinity>  (1) 
-5.30317

>  <filename>  (1) 
FCCn1nc(-c2cccnc2)nc1-c1ccnc2[nH]cnc12

$$$$
