
     RDKit          3D

 39 42  0  0  0  0  0  0  0  0999 V2000
    7.6930   -0.7302   26.2175 F   0  0  0  0  0  0  0  0  0  0  0  0
    7.3230   -0.3489   24.9342 C   0  0  0  0  0  0  0  0  0  0  0  0
    7.1131   -1.6141   24.0999 C   0  0  0  0  0  0  0  0  0  0  0  0
    7.3364   -1.3636   22.6881 N   0  0  0  0  0  0  0  0  0  0  0  0
    6.4306   -0.6321   22.0061 N   0  0  0  0  0  0  0  0  0  0  0  0
    6.9255   -0.6099   20.7842 C   0  0  0  0  0  0  0  0  0  0  0  0
    6.3065    0.1163   19.6835 C   0  0  0  0  0  0  0  0  0  0  0  0
    5.1214    0.8602   19.8158 C   0  0  0  0  0  0  0  0  0  0  0  0
    4.6506    1.5383   18.6961 C   0  0  0  0  0  0  0  0  0  0  0  0
    5.3748    1.4599   17.5006 C   0  0  0  0  0  0  0  0  0  0  0  0
    6.5044    0.7485   17.3668 N   0  0  0  0  0  0  0  0  0  0  0  0
    6.9547    0.0993   18.4435 C   0  0  0  0  0  0  0  0  0  0  0  0
    7.8799   -0.4597   18.3201 H   0  0  0  0  0  0  0  0  0  0  0  0
    5.0388    1.9923   16.6137 H   0  0  0  0  0  0  0  0  0  0  0  0
    3.7505    2.1415   18.7357 H   0  0  0  0  0  0  0  0  0  0  0  0
    4.6037    0.9125   20.7761 H   0  0  0  0  0  0  0  0  0  0  0  0
    8.1022   -1.2810   20.6404 N   0  0  0  0  0  0  0  0  0  0  0  0
    8.3442   -1.7170   21.8569 C   0  0  0  0  0  0  0  0  0  0  0  0
    9.5846   -2.4018   22.3544 C   0  0  0  0  0  0  0  0  0  0  0  0
   10.3755   -1.5424   23.3021 C   0  0  0  0  0  0  0  0  0  0  0  0
   10.4122   -1.6082   24.6473 C   0  0  0  0  0  0  0  0  0  0  0  0
   11.1420   -0.5907   25.2056 O   0  0  0  0  0  0  0  0  0  0  0  0
   11.5686    0.1771   24.1712 C   0  0  0  0  0  0  0  0  0  0  0  0
   12.3084    1.3578   24.2698 C   0  0  0  0  0  0  0  0  0  0  0  0
   12.5448    2.0144   23.0695 C   0  0  0  0  0  0  0  0  0  0  0  0
   13.2307    3.1684   23.0837 F   0  0  0  0  0  0  0  0  0  0  0  0
   12.0983    1.5275   21.8240 C   0  0  0  0  0  0  0  0  0  0  0  0
   11.3955    0.3293   21.7572 C   0  0  0  0  0  0  0  0  0  0  0  0
   11.1175   -0.3553   22.9541 C   0  0  0  0  0  0  0  0  0  0  0  0
   11.0276   -0.0650   20.8113 H   0  0  0  0  0  0  0  0  0  0  0  0
   12.3184    2.1161   20.9409 H   0  0  0  0  0  0  0  0  0  0  0  0
   12.6361    1.7426   25.2211 H   0  0  0  0  0  0  0  0  0  0  0  0
    9.9742   -2.3035   25.3509 H   0  0  0  0  0  0  0  0  0  0  0  0
    9.3052   -3.3388   22.8506 H   0  0  0  0  0  0  0  0  0  0  0  0
   10.1770   -2.6576   21.4720 H   0  0  0  0  0  0  0  0  0  0  0  0
    6.0935   -1.9895   24.2189 H   0  0  0  0  0  0  0  0  0  0  0  0
    7.7856   -2.4024   24.4435 H   0  0  0  0  0  0  0  0  0  0  0  0
    6.3982    0.2354   24.9883 H   0  0  0  0  0  0  0  0  0  0  0  0
    8.1235    0.2814   24.5262 H   0  0  0  0  0  0  0  0  0  0  0  0
  1  2  1  0
  2  3  1  0
  3  4  1  0
  4  5  1  0
  5  6  2  0
  6  7  1  0
  7  8  2  0
  8  9  1  0
  9 10  2  0
 10 11  1  0
 11 12  2  0
 12 13  1  0
 10 14  1  0
  9 15  1  0
  8 16  1  0
  6 17  1  0
 17 18  2  0
 18 19  1  0
 19 20  1  0
 20 21  2  0
 21 22  1  0
 22 23  1  0
 23 24  2  0
 24 25  1  0
 25 26  1  0
 25 27  2  0
 27 28  1  0
 28 29  2  0
 28 30  1  0
 27 31  1  0
 24 32  1  0
 21 33  1  0
 19 34  1  0
 19 35  1  0
  3 36  1  0
  3 37  1  0
  2 38  1  0
  2 39  1  0
 18  4  1  0
 29 20  1  0
 12  7  1  0
 29 23  1  0
M  END
>  <cnnaffinity>  (1) 
-5.61003

>  <filename>  (1) 
FCCn1nc(-c2cccnc2)nc1Cc1coc2cc(F)ccc12

$$$$
