
     RDKit          3D

 37 40  0  0  0  0  0  0  0  0999 V2000
   11.4812   -0.8720   23.0993 F   0  0  0  0  0  0  0  0  0  0  0  0
   11.2960   -1.7288   22.0256 C   0  0  0  0  0  0  0  0  0  0  0  0
    9.9453   -2.3990   22.1083 C   0  0  0  0  0  0  0  0  0  0  0  0
    8.8122   -1.4882   21.9942 N   0  0  0  0  0  0  0  0  0  0  0  0
    8.5226   -1.0046   20.7618 N   0  0  0  0  0  0  0  0  0  0  0  0
    7.2885   -0.5493   20.8977 C   0  0  0  0  0  0  0  0  0  0  0  0
    6.5566    0.0964   19.8112 C   0  0  0  0  0  0  0  0  0  0  0  0
    5.3240    0.7454   20.0026 C   0  0  0  0  0  0  0  0  0  0  0  0
    4.7497    1.3906   18.9102 C   0  0  0  0  0  0  0  0  0  0  0  0
    5.4062    1.3405   17.6743 C   0  0  0  0  0  0  0  0  0  0  0  0
    6.5536    0.6748   17.4697 N   0  0  0  0  0  0  0  0  0  0  0  0
    7.1115    0.0704   18.5221 C   0  0  0  0  0  0  0  0  0  0  0  0
    8.0391   -0.4642   18.3181 H   0  0  0  0  0  0  0  0  0  0  0  0
    4.9822    1.8518   16.8133 H   0  0  0  0  0  0  0  0  0  0  0  0
    3.8143    1.9348   19.0054 H   0  0  0  0  0  0  0  0  0  0  0  0
    4.8358    0.7318   20.9810 H   0  0  0  0  0  0  0  0  0  0  0  0
    6.7491   -0.7588   22.1209 N   0  0  0  0  0  0  0  0  0  0  0  0
    7.7440   -1.2938   22.8099 C   0  0  0  0  0  0  0  0  0  0  0  0
    7.7656   -1.6668   24.2303 C   0  0  0  0  0  0  0  0  0  0  0  0
    6.6576   -2.3353   24.7977 C   0  0  0  0  0  0  0  0  0  0  0  0
    5.4458   -2.6363   24.2586 N   0  0  0  0  0  0  0  0  0  0  0  0
    4.6684   -3.2902   25.1891 C   0  0  0  0  0  0  0  0  0  0  0  0
    5.3878   -3.4476   26.3377 C   0  0  0  0  0  0  0  0  0  0  0  0
    6.6757   -2.8496   26.1160 C   0  0  0  0  0  0  0  0  0  0  0  0
    7.8133   -2.6422   26.9139 C   0  0  0  0  0  0  0  0  0  0  0  0
    8.8220   -1.8389   26.4131 C   0  0  0  0  0  0  0  0  0  0  0  0
    9.7994   -1.4608   27.2519 F   0  0  0  0  0  0  0  0  0  0  0  0
    8.8446   -1.3817   25.0829 C   0  0  0  0  0  0  0  0  0  0  0  0
    9.7012   -0.8036   24.7472 H   0  0  0  0  0  0  0  0  0  0  0  0
    7.9268   -3.0954   27.8851 H   0  0  0  0  0  0  0  0  0  0  0  0
    5.0465   -3.8998   27.2582 H   0  0  0  0  0  0  0  0  0  0  0  0
    3.6775   -3.6429   24.9246 H   0  0  0  0  0  0  0  0  0  0  0  0
    5.1534   -2.1566   23.4212 H   0  0  0  0  0  0  0  0  0  0  0  0
    9.8735   -2.9725   23.0339 H   0  0  0  0  0  0  0  0  0  0  0  0
    9.8468   -3.0891   21.2716 H   0  0  0  0  0  0  0  0  0  0  0  0
   12.0688   -2.5084   22.0639 H   0  0  0  0  0  0  0  0  0  0  0  0
   11.3753   -1.1578   21.0970 H   0  0  0  0  0  0  0  0  0  0  0  0
  1  2  1  0
  2  3  1  0
  3  4  1  0
  4  5  1  0
  5  6  2  0
  6  7  1  0
  7  8  2  0
  8  9  1  0
  9 10  2  0
 10 11  1  0
 11 12  2  0
 12 13  1  0
 10 14  1  0
  9 15  1  0
  8 16  1  0
  6 17  1  0
 17 18  2  0
 18 19  1  0
 19 20  2  0
 20 21  1  0
 21 22  1  0
 22 23  2  0
 23 24  1  0
 24 25  2  0
 25 26  1  0
 26 27  1  0
 26 28  2  0
 28 29  1  0
 25 30  1  0
 23 31  1  0
 22 32  1  0
 21 33  1  0
  3 34  1  0
  3 35  1  0
  2 36  1  0
  2 37  1  0
 18  4  1  0
 28 19  1  0
 12  7  1  0
 24 20  1  0
M  END
>  <cnnaffinity>  (1) 
-5.75601

>  <filename>  (1) 
FCCn1nc(-c2cccnc2)nc1-c1cc(F)cc2cc[nH]c12

$$$$
