
     RDKit          3D

 38 41  0  0  0  0  0  0  0  0999 V2000
   10.6371   -0.8153   23.8472 F   0  0  0  0  0  0  0  0  0  0  0  0
   11.0495   -1.2444   22.5888 C   0  0  0  0  0  0  0  0  0  0  0  0
   10.0820   -2.2934   22.0715 C   0  0  0  0  0  0  0  0  0  0  0  0
    8.7527   -1.7686   21.8047 N   0  0  0  0  0  0  0  0  0  0  0  0
    8.4812   -1.2574   20.5809 N   0  0  0  0  0  0  0  0  0  0  0  0
    7.2989   -0.6953   20.7524 C   0  0  0  0  0  0  0  0  0  0  0  0
    6.5917    0.0205   19.7023 C   0  0  0  0  0  0  0  0  0  0  0  0
    5.3852    0.6946   19.9452 C   0  0  0  0  0  0  0  0  0  0  0  0
    4.7928    1.3744   18.8872 C   0  0  0  0  0  0  0  0  0  0  0  0
    5.4259    1.3596   17.6386 C   0  0  0  0  0  0  0  0  0  0  0  0
    6.5775    0.7142   17.3992 N   0  0  0  0  0  0  0  0  0  0  0  0
    7.1470    0.0623   18.4157 C   0  0  0  0  0  0  0  0  0  0  0  0
    8.0851   -0.4484   18.1966 H   0  0  0  0  0  0  0  0  0  0  0  0
    4.9862    1.8874   16.7963 H   0  0  0  0  0  0  0  0  0  0  0  0
    3.8657    1.9206   19.0181 H   0  0  0  0  0  0  0  0  0  0  0  0
    4.9424    0.6867   20.9438 H   0  0  0  0  0  0  0  0  0  0  0  0
    6.8071   -0.7893   22.0108 N   0  0  0  0  0  0  0  0  0  0  0  0
    7.7473   -1.4527   22.6564 C   0  0  0  0  0  0  0  0  0  0  0  0
    7.8012   -1.7952   24.0969 C   0  0  0  0  0  0  0  0  0  0  0  0
    7.7869   -3.1236   24.5036 C   0  0  0  0  0  0  0  0  0  0  0  0
    7.8640   -3.4609   25.8762 C   0  0  0  0  0  0  0  0  0  0  0  0
    7.8763   -2.4725   26.8323 C   0  0  0  0  0  0  0  0  0  0  0  0
    7.8131   -1.1068   26.4619 C   0  0  0  0  0  0  0  0  0  0  0  0
    7.6903   -0.0515   27.4041 C   0  0  0  0  0  0  0  0  0  0  0  0
    7.8683    1.2390   26.9890 C   0  0  0  0  0  0  0  0  0  0  0  0
    8.1283    1.6002   25.7086 N   0  0  0  0  0  0  0  0  0  0  0  0
    8.1471    0.6346   24.8068 C   0  0  0  0  0  0  0  0  0  0  0  0
    7.9113   -0.7529   25.0847 C   0  0  0  0  0  0  0  0  0  0  0  0
    8.3765    0.9341   23.7851 H   0  0  0  0  0  0  0  0  0  0  0  0
    7.8273    2.0477   27.7117 H   0  0  0  0  0  0  0  0  0  0  0  0
    7.4397   -0.2486   28.4325 H   0  0  0  0  0  0  0  0  0  0  0  0
    7.9711   -2.7055   27.8804 H   0  0  0  0  0  0  0  0  0  0  0  0
    7.9184   -4.5021   26.1762 H   0  0  0  0  0  0  0  0  0  0  0  0
    7.7093   -3.9166   23.7618 H   0  0  0  0  0  0  0  0  0  0  0  0
   10.4272   -2.6835   21.1156 H   0  0  0  0  0  0  0  0  0  0  0  0
   10.0052   -3.1093   22.7969 H   0  0  0  0  0  0  0  0  0  0  0  0
   11.0717   -0.3799   21.9183 H   0  0  0  0  0  0  0  0  0  0  0  0
   12.0519   -1.6763   22.6808 H   0  0  0  0  0  0  0  0  0  0  0  0
  1  2  1  0
  2  3  1  0
  3  4  1  0
  4  5  1  0
  5  6  2  0
  6  7  1  0
  7  8  2  0
  8  9  1  0
  9 10  2  0
 10 11  1  0
 11 12  2  0
 12 13  1  0
 10 14  1  0
  9 15  1  0
  8 16  1  0
  6 17  1  0
 17 18  2  0
 18 19  1  0
 19 20  2  0
 20 21  1  0
 21 22  2  0
 22 23  1  0
 23 24  2  0
 24 25  1  0
 25 26  2  0
 26 27  1  0
 27 28  2  0
 27 29  1  0
 25 30  1  0
 24 31  1  0
 22 32  1  0
 21 33  1  0
 20 34  1  0
  3 35  1  0
  3 36  1  0
  2 37  1  0
  2 38  1  0
 18  4  1  0
 28 19  1  0
 12  7  1  0
 28 23  1  0
M  END
>  <cnnaffinity>  (1) 
-5.86278

>  <filename>  (1) 
FCCn1nc(-c2cccnc2)nc1-c1cccc2ccncc12

$$$$
