
     RDKit          3D

 38 41  0  0  0  0  0  0  0  0999 V2000
   11.5963   -0.4035   22.2774 F   0  0  0  0  0  0  0  0  0  0  0  0
   11.1509   -1.6545   21.8825 C   0  0  0  0  0  0  0  0  0  0  0  0
    9.9332   -2.0992   22.6712 C   0  0  0  0  0  0  0  0  0  0  0  0
    8.7015   -1.3824   22.3389 N   0  0  0  0  0  0  0  0  0  0  0  0
    8.4202   -1.0392   21.0625 N   0  0  0  0  0  0  0  0  0  0  0  0
    7.2043   -0.5197   21.1514 C   0  0  0  0  0  0  0  0  0  0  0  0
    6.5163    0.0454   19.9963 C   0  0  0  0  0  0  0  0  0  0  0  0
    5.2902    0.7285   20.0691 C   0  0  0  0  0  0  0  0  0  0  0  0
    4.8159    1.3276   18.9020 C   0  0  0  0  0  0  0  0  0  0  0  0
    5.5662    1.2030   17.7236 C   0  0  0  0  0  0  0  0  0  0  0  0
    6.7116    0.5121   17.6372 N   0  0  0  0  0  0  0  0  0  0  0  0
    7.1668   -0.0510   18.7583 C   0  0  0  0  0  0  0  0  0  0  0  0
    8.0978   -0.6113   18.6935 H   0  0  0  0  0  0  0  0  0  0  0  0
    5.2394    1.6823   16.8051 H   0  0  0  0  0  0  0  0  0  0  0  0
    3.9053    1.9173   18.8916 H   0  0  0  0  0  0  0  0  0  0  0  0
    4.7423    0.8035   21.0126 H   0  0  0  0  0  0  0  0  0  0  0  0
    6.6741   -0.5533   22.3979 N   0  0  0  0  0  0  0  0  0  0  0  0
    7.6156   -1.1320   23.1139 C   0  0  0  0  0  0  0  0  0  0  0  0
    7.4668   -1.6401   24.5182 C   0  0  0  0  0  0  0  0  0  0  0  0
    8.4741   -1.0947   25.5752 C   0  0  0  0  0  0  0  0  0  0  0  0
    9.0098   -2.2350   26.2822 O   0  0  0  0  0  0  0  0  0  0  0  0
    8.6781   -3.3668   25.5979 C   0  0  0  0  0  0  0  0  0  0  0  0
    9.2666   -4.6242   25.7430 C   0  0  0  0  0  0  0  0  0  0  0  0
    8.8678   -5.6493   24.8610 C   0  0  0  0  0  0  0  0  0  0  0  0
    7.8933   -5.3947   23.8866 C   0  0  0  0  0  0  0  0  0  0  0  0
    7.5246   -6.3697   23.0348 F   0  0  0  0  0  0  0  0  0  0  0  0
    7.3083   -4.1363   23.7429 C   0  0  0  0  0  0  0  0  0  0  0  0
    7.7303   -3.1286   24.6084 C   0  0  0  0  0  0  0  0  0  0  0  0
    6.5569   -3.9710   22.9739 H   0  0  0  0  0  0  0  0  0  0  0  0
    9.2954   -6.6449   24.9438 H   0  0  0  0  0  0  0  0  0  0  0  0
   10.0061   -4.7901   26.5251 H   0  0  0  0  0  0  0  0  0  0  0  0
    9.3101   -0.5335   25.1336 H   0  0  0  0  0  0  0  0  0  0  0  0
    8.0135   -0.4452   26.3220 H   0  0  0  0  0  0  0  0  0  0  0  0
    6.4278   -1.4112   24.7813 H   0  0  0  0  0  0  0  0  0  0  0  0
    9.7728   -3.1671   22.4863 H   0  0  0  0  0  0  0  0  0  0  0  0
   10.1412   -1.9704   23.7340 H   0  0  0  0  0  0  0  0  0  0  0  0
   11.9635   -2.3691   22.0681 H   0  0  0  0  0  0  0  0  0  0  0  0
   10.9176   -1.6195   20.8184 H   0  0  0  0  0  0  0  0  0  0  0  0
  1  2  1  0
  2  3  1  0
  3  4  1  0
  4  5  1  0
  5  6  2  0
  6  7  1  0
  7  8  2  0
  8  9  1  0
  9 10  2  0
 10 11  1  0
 11 12  2  0
 12 13  1  0
 10 14  1  0
  9 15  1  0
  8 16  1  0
  6 17  1  0
 17 18  2  0
 18 19  1  0
 19 20  1  0
 20 21  1  0
 21 22  1  0
 22 23  2  0
 23 24  1  0
 24 25  2  0
 25 26  1  0
 25 27  1  0
 27 28  2  0
 27 29  1  0
 24 30  1  0
 23 31  1  0
 20 32  1  0
 20 33  1  0
 19 34  1  0
  3 35  1  0
  3 36  1  0
  2 37  1  0
  2 38  1  0
 18  4  1  0
 28 19  1  0
 12  7  1  0
 28 22  1  0
M  END
>  <cnnaffinity>  (1) 
-6.12003

>  <filename>  (1) 
FCCn1nc(-c2cccnc2)nc1C1COc2ccc(F)cc21

$$$$
