
     RDKit          3D

 38 41  0  0  0  0  0  0  0  0999 V2000
   11.4639   -0.8667   23.1292 F   0  0  0  0  0  0  0  0  0  0  0  0
   11.2711   -1.7132   22.0463 C   0  0  0  0  0  0  0  0  0  0  0  0
    9.9294   -2.4018   22.1393 C   0  0  0  0  0  0  0  0  0  0  0  0
    8.7991   -1.4907   22.0326 N   0  0  0  0  0  0  0  0  0  0  0  0
    8.5402   -0.9707   20.8105 N   0  0  0  0  0  0  0  0  0  0  0  0
    7.3370   -0.4506   20.9617 C   0  0  0  0  0  0  0  0  0  0  0  0
    6.5979    0.1629   19.8680 C   0  0  0  0  0  0  0  0  0  0  0  0
    5.3487    0.7785   20.0485 C   0  0  0  0  0  0  0  0  0  0  0  0
    4.7613    1.3789   18.9390 C   0  0  0  0  0  0  0  0  0  0  0  0
    5.4209    1.3144   17.7054 C   0  0  0  0  0  0  0  0  0  0  0  0
    6.5768    0.6610   17.5128 N   0  0  0  0  0  0  0  0  0  0  0  0
    7.1445    0.0934   18.5780 C   0  0  0  0  0  0  0  0  0  0  0  0
    8.0661   -0.4585   18.3932 H   0  0  0  0  0  0  0  0  0  0  0  0
    5.0006    1.8042   16.8330 H   0  0  0  0  0  0  0  0  0  0  0  0
    3.8139    1.9000   19.0155 H   0  0  0  0  0  0  0  0  0  0  0  0
    4.8570    0.7623   21.0250 H   0  0  0  0  0  0  0  0  0  0  0  0
    6.8059   -0.6090   22.1970 N   0  0  0  0  0  0  0  0  0  0  0  0
    7.7368   -1.2728   22.8526 C   0  0  0  0  0  0  0  0  0  0  0  0
    7.7357   -1.7074   24.2501 C   0  0  0  0  0  0  0  0  0  0  0  0
    8.7981   -1.3481   25.0545 C   0  0  0  0  0  0  0  0  0  0  0  0
    8.9363   -1.7142   26.3517 N   0  0  0  0  0  0  0  0  0  0  0  0
    7.9754   -2.4428   26.8807 C   0  0  0  0  0  0  0  0  0  0  0  0
    6.7993   -2.8501   26.1920 C   0  0  0  0  0  0  0  0  0  0  0  0
    5.7698   -3.6176   26.8220 C   0  0  0  0  0  0  0  0  0  0  0  0
    4.7167   -4.1000   26.0841 C   0  0  0  0  0  0  0  0  0  0  0  0
    4.6692   -3.8252   24.6947 C   0  0  0  0  0  0  0  0  0  0  0  0
    3.6673   -4.3619   23.9812 F   0  0  0  0  0  0  0  0  0  0  0  0
    5.6074   -3.0521   24.0570 C   0  0  0  0  0  0  0  0  0  0  0  0
    6.6930   -2.5167   24.8090 C   0  0  0  0  0  0  0  0  0  0  0  0
    5.5207   -2.8234   23.0015 H   0  0  0  0  0  0  0  0  0  0  0  0
    3.9369   -4.7133   26.5253 H   0  0  0  0  0  0  0  0  0  0  0  0
    5.8435   -3.8387   27.8871 H   0  0  0  0  0  0  0  0  0  0  0  0
    8.1191   -2.7668   27.9052 H   0  0  0  0  0  0  0  0  0  0  0  0
    9.6192   -0.7524   24.6580 H   0  0  0  0  0  0  0  0  0  0  0  0
    9.8666   -2.9807   23.0634 H   0  0  0  0  0  0  0  0  0  0  0  0
    9.8274   -3.0771   21.2919 H   0  0  0  0  0  0  0  0  0  0  0  0
   11.3257   -1.1231   21.1269 H   0  0  0  0  0  0  0  0  0  0  0  0
   12.0560   -2.4808   22.0608 H   0  0  0  0  0  0  0  0  0  0  0  0
  1  2  1  0
  2  3  1  0
  3  4  1  0
  4  5  1  0
  5  6  2  0
  6  7  1  0
  7  8  2  0
  8  9  1  0
  9 10  2  0
 10 11  1  0
 11 12  2  0
 12 13  1  0
 10 14  1  0
  9 15  1  0
  8 16  1  0
  6 17  1  0
 17 18  2  0
 18 19  1  0
 19 20  2  0
 20 21  1  0
 21 22  2  0
 22 23  1  0
 23 24  2  0
 24 25  1  0
 25 26  2  0
 26 27  1  0
 26 28  1  0
 28 29  2  0
 28 30  1  0
 25 31  1  0
 24 32  1  0
 22 33  1  0
 20 34  1  0
  3 35  1  0
  3 36  1  0
  2 37  1  0
  2 38  1  0
 18  4  1  0
 29 19  1  0
 12  7  1  0
 29 23  1  0
M  END
>  <cnnaffinity>  (1) 
-5.92794

>  <filename>  (1) 
FCCn1nc(-c2cccnc2)nc1-c1cncc2ccc(F)cc12

$$$$
