
     RDKit          3D

 38 41  0  0  0  0  0  0  0  0999 V2000
   11.9370    2.9232   20.3169 F   0  0  0  0  0  0  0  0  0  0  0  0
   11.9389    3.0604   21.6907 C   0  0  0  0  0  0  0  0  0  0  0  0
   11.4798    1.7708   22.3650 C   0  0  0  0  0  0  0  0  0  0  0  0
   10.0570    1.4400   22.2854 N   0  0  0  0  0  0  0  0  0  0  0  0
    9.6714    0.3573   21.5853 N   0  0  0  0  0  0  0  0  0  0  0  0
    8.3573    0.3571   21.6986 C   0  0  0  0  0  0  0  0  0  0  0  0
    7.4800   -0.6351   20.9795 C   0  0  0  0  0  0  0  0  0  0  0  0
    6.6897   -0.0139   19.8321 C   0  0  0  0  0  0  0  0  0  0  0  0
    5.4827    0.6472   20.0955 C   0  0  0  0  0  0  0  0  0  0  0  0
    4.8296    1.3089   19.0530 C   0  0  0  0  0  0  0  0  0  0  0  0
    5.4159    1.2872   17.7844 C   0  0  0  0  0  0  0  0  0  0  0  0
    6.5605    0.6449   17.5029 N   0  0  0  0  0  0  0  0  0  0  0  0
    7.1697    0.0097   18.5114 C   0  0  0  0  0  0  0  0  0  0  0  0
    8.0989   -0.5088   18.2670 H   0  0  0  0  0  0  0  0  0  0  0  0
    4.9409    1.7938   16.9478 H   0  0  0  0  0  0  0  0  0  0  0  0
    3.8961    1.8393   19.2117 H   0  0  0  0  0  0  0  0  0  0  0  0
    5.0878    0.6521   21.1136 H   0  0  0  0  0  0  0  0  0  0  0  0
    6.7798   -1.0450   21.7164 H   0  0  0  0  0  0  0  0  0  0  0  0
    8.1118   -1.4622   20.6363 H   0  0  0  0  0  0  0  0  0  0  0  0
    7.8657    1.3490   22.4663 N   0  0  0  0  0  0  0  0  0  0  0  0
    8.9611    2.0163   22.8482 C   0  0  0  0  0  0  0  0  0  0  0  0
    9.0063    3.1928   23.7559 C   0  0  0  0  0  0  0  0  0  0  0  0
   10.1803    3.6958   24.1679 N   0  0  0  0  0  0  0  0  0  0  0  0
   10.2032    4.7617   24.9899 C   0  0  0  0  0  0  0  0  0  0  0  0
    9.0626    5.3670   25.4911 C   0  0  0  0  0  0  0  0  0  0  0  0
    7.8131    4.8955   25.0496 C   0  0  0  0  0  0  0  0  0  0  0  0
    7.7817    3.8041   24.1552 C   0  0  0  0  0  0  0  0  0  0  0  0
    6.1555    3.4401   23.6729 S   0  0  0  0  0  0  0  0  0  0  0  0
    5.5435    4.7229   24.6481 C   0  0  0  0  0  0  0  0  0  0  0  0
    6.4957    5.4038   25.3275 C   0  0  0  0  0  0  0  0  0  0  0  0
    6.3107    6.2255   26.0114 H   0  0  0  0  0  0  0  0  0  0  0  0
    4.4774    4.9208   24.6238 H   0  0  0  0  0  0  0  0  0  0  0  0
    9.1379    6.1855   26.1959 H   0  0  0  0  0  0  0  0  0  0  0  0
   11.1947    5.1148   25.2845 H   0  0  0  0  0  0  0  0  0  0  0  0
   11.7591    1.8129   23.4196 H   0  0  0  0  0  0  0  0  0  0  0  0
   12.0065    0.9380   21.8919 H   0  0  0  0  0  0  0  0  0  0  0  0
   12.9744    3.2437   22.0059 H   0  0  0  0  0  0  0  0  0  0  0  0
   11.3327    3.9256   21.9737 H   0  0  0  0  0  0  0  0  0  0  0  0
  1  2  1  0
  2  3  1  0
  3  4  1  0
  4  5  1  0
  5  6  2  0
  6  7  1  0
  7  8  1  0
  8  9  2  0
  9 10  1  0
 10 11  2  0
 11 12  1  0
 12 13  2  0
 13 14  1  0
 11 15  1  0
 10 16  1  0
  9 17  1  0
  7 18  1  0
  7 19  1  0
  6 20  1  0
 20 21  2  0
 21 22  1  0
 22 23  2  0
 23 24  1  0
 24 25  2  0
 25 26  1  0
 26 27  2  0
 27 28  1  0
 28 29  1  0
 29 30  2  0
 30 31  1  0
 29 32  1  0
 25 33  1  0
 24 34  1  0
  3 35  1  0
  3 36  1  0
  2 37  1  0
  2 38  1  0
 21  4  1  0
 27 22  1  0
 13  8  1  0
 30 26  1  0
M  END
>  <cnnaffinity>  (1) 
-5.38893

>  <filename>  (1) 
FCCn1nc(Cc2cccnc2)nc1-c1nccc2ccsc12

$$$$
