
     RDKit          3D

 37 40  0  0  0  0  0  0  0  0999 V2000
   10.9415   -0.6858   23.6718 F   0  0  0  0  0  0  0  0  0  0  0  0
   11.2054   -1.3963   22.5123 C   0  0  0  0  0  0  0  0  0  0  0  0
   10.1064   -2.3972   22.2330 C   0  0  0  0  0  0  0  0  0  0  0  0
    8.8135   -1.7903   21.9808 N   0  0  0  0  0  0  0  0  0  0  0  0
    8.5428   -1.3235   20.7405 N   0  0  0  0  0  0  0  0  0  0  0  0
    7.3950   -0.6935   20.9181 C   0  0  0  0  0  0  0  0  0  0  0  0
    6.6639    0.0023   19.8757 C   0  0  0  0  0  0  0  0  0  0  0  0
    5.4462    0.6472   20.1474 C   0  0  0  0  0  0  0  0  0  0  0  0
    4.8131    1.3014   19.0981 C   0  0  0  0  0  0  0  0  0  0  0  0
    5.4138    1.2841   17.8326 C   0  0  0  0  0  0  0  0  0  0  0  0
    6.5750    0.6653   17.5671 N   0  0  0  0  0  0  0  0  0  0  0  0
    7.1864    0.0458   18.5787 C   0  0  0  0  0  0  0  0  0  0  0  0
    8.1392   -0.4353   18.3565 H   0  0  0  0  0  0  0  0  0  0  0  0
    4.9473    1.7908   16.9930 H   0  0  0  0  0  0  0  0  0  0  0  0
    3.8794    1.8362   19.2437 H   0  0  0  0  0  0  0  0  0  0  0  0
    5.0211    0.6360   21.1549 H   0  0  0  0  0  0  0  0  0  0  0  0
    6.9270   -0.7120   22.1874 N   0  0  0  0  0  0  0  0  0  0  0  0
    7.8243   -1.4279   22.8272 C   0  0  0  0  0  0  0  0  0  0  0  0
    7.8388   -1.7762   24.2746 C   0  0  0  0  0  0  0  0  0  0  0  0
    7.9753   -0.7872   25.2265 C   0  0  0  0  0  0  0  0  0  0  0  0
    7.9980   -1.1153   26.6075 C   0  0  0  0  0  0  0  0  0  0  0  0
    7.8999   -2.3431   27.0702 N   0  0  0  0  0  0  0  0  0  0  0  0
    7.7671   -3.3490   26.1595 C   0  0  0  0  0  0  0  0  0  0  0  0
    7.6472   -4.6643   26.6561 C   0  0  0  0  0  0  0  0  0  0  0  0
    7.4971   -5.6917   25.7680 C   0  0  0  0  0  0  0  0  0  0  0  0
    7.4555   -5.5183   24.4237 N   0  0  0  0  0  0  0  0  0  0  0  0
    7.5671   -4.2913   23.9449 C   0  0  0  0  0  0  0  0  0  0  0  0
    7.7331   -3.1301   24.7489 C   0  0  0  0  0  0  0  0  0  0  0  0
    7.5229   -4.1889   22.8586 H   0  0  0  0  0  0  0  0  0  0  0  0
    7.3952   -6.7257   26.1015 H   0  0  0  0  0  0  0  0  0  0  0  0
    7.6695   -4.7959   27.7315 H   0  0  0  0  0  0  0  0  0  0  0  0
    8.0908   -0.3150   27.3420 H   0  0  0  0  0  0  0  0  0  0  0  0
    8.0798    0.2423   24.9152 H   0  0  0  0  0  0  0  0  0  0  0  0
   10.0232   -3.1003   23.0707 H   0  0  0  0  0  0  0  0  0  0  0  0
   10.3338   -2.9092   21.3019 H   0  0  0  0  0  0  0  0  0  0  0  0
   11.3065   -0.6970   21.6772 H   0  0  0  0  0  0  0  0  0  0  0  0
   12.1440   -1.9446   22.6360 H   0  0  0  0  0  0  0  0  0  0  0  0
  1  2  1  0
  2  3  1  0
  3  4  1  0
  4  5  1  0
  5  6  2  0
  6  7  1  0
  7  8  2  0
  8  9  1  0
  9 10  2  0
 10 11  1  0
 11 12  2  0
 12 13  1  0
 10 14  1  0
  9 15  1  0
  8 16  1  0
  6 17  1  0
 17 18  2  0
 18 19  1  0
 19 20  2  0
 20 21  1  0
 21 22  2  0
 22 23  1  0
 23 24  2  0
 24 25  1  0
 25 26  2  0
 26 27  1  0
 27 28  2  0
 27 29  1  0
 25 30  1  0
 24 31  1  0
 21 32  1  0
 20 33  1  0
  3 34  1  0
  3 35  1  0
  2 36  1  0
  2 37  1  0
 18  4  1  0
 28 19  1  0
 12  7  1  0
 28 23  1  0
M  END
>  <cnnaffinity>  (1) 
-6.08826

>  <filename>  (1) 
FCCn1nc(-c2cccnc2)nc1-c1ccnc2ccncc12

$$$$
