
     RDKit          3D

 40 43  0  0  0  0  0  0  0  0999 V2000
   11.0872   -0.4827   23.3686 F   0  0  0  0  0  0  0  0  0  0  0  0
   11.0537   -1.2711   22.2344 C   0  0  0  0  0  0  0  0  0  0  0  0
    9.8485   -2.1929   22.2315 C   0  0  0  0  0  0  0  0  0  0  0  0
    8.5699   -1.5563   21.9500 N   0  0  0  0  0  0  0  0  0  0  0  0
    8.4200   -0.9963   20.7245 N   0  0  0  0  0  0  0  0  0  0  0  0
    7.1488   -0.6298   20.7110 C   0  0  0  0  0  0  0  0  0  0  0  0
    6.4978    0.0819   19.6178 C   0  0  0  0  0  0  0  0  0  0  0  0
    5.2842    0.7695   19.7984 C   0  0  0  0  0  0  0  0  0  0  0  0
    4.7532    1.4547   18.7095 C   0  0  0  0  0  0  0  0  0  0  0  0
    5.4407    1.4188   17.4894 C   0  0  0  0  0  0  0  0  0  0  0  0
    6.5946    0.7592   17.3070 N   0  0  0  0  0  0  0  0  0  0  0  0
    7.1129    0.1172   18.3590 C   0  0  0  0  0  0  0  0  0  0  0  0
    8.0657   -0.3851   18.1986 H   0  0  0  0  0  0  0  0  0  0  0  0
    5.0487    1.9466   16.6228 H   0  0  0  0  0  0  0  0  0  0  0  0
    3.8399    2.0332   18.7996 H   0  0  0  0  0  0  0  0  0  0  0  0
    4.7916    0.7746   20.7752 H   0  0  0  0  0  0  0  0  0  0  0  0
    6.4732   -0.9431   21.8416 N   0  0  0  0  0  0  0  0  0  0  0  0
    7.3799   -1.5180   22.6022 C   0  0  0  0  0  0  0  0  0  0  0  0
    7.1324   -1.9102   24.0368 C   0  0  0  0  0  0  0  0  0  0  0  0
    7.9475   -1.1616   24.9867 N   0  0  0  0  0  0  0  0  0  0  0  0
    9.1191   -1.6284   25.5726 C   0  0  0  0  0  0  0  0  0  0  0  0
    9.9337   -0.5895   25.9031 C   0  0  0  0  0  0  0  0  0  0  0  0
    9.2466    0.6006   25.5213 C   0  0  0  0  0  0  0  0  0  0  0  0
    9.6099    1.9538   25.5349 C   0  0  0  0  0  0  0  0  0  0  0  0
    8.7168    2.9234   25.0963 C   0  0  0  0  0  0  0  0  0  0  0  0
    7.4362    2.5400   24.6296 C   0  0  0  0  0  0  0  0  0  0  0  0
    7.0611    1.1987   24.5690 C   0  0  0  0  0  0  0  0  0  0  0  0
    7.9949    0.2299   24.9935 C   0  0  0  0  0  0  0  0  0  0  0  0
    6.0993    0.8922   24.1639 H   0  0  0  0  0  0  0  0  0  0  0  0
    6.7321    3.3002   24.2963 H   0  0  0  0  0  0  0  0  0  0  0  0
    8.9905    3.9753   25.1077 H   0  0  0  0  0  0  0  0  0  0  0  0
   10.6072    2.1637   25.8785 H   0  0  0  0  0  0  0  0  0  0  0  0
   10.9758   -0.6108   26.1935 H   0  0  0  0  0  0  0  0  0  0  0  0
    9.2412   -2.6913   25.7686 H   0  0  0  0  0  0  0  0  0  0  0  0
    6.0783   -1.7080   24.2442 H   0  0  0  0  0  0  0  0  0  0  0  0
    7.3206   -2.9787   24.1839 H   0  0  0  0  0  0  0  0  0  0  0  0
    9.7950   -2.7061   23.1904 H   0  0  0  0  0  0  0  0  0  0  0  0
   10.0208   -2.9201   21.4384 H   0  0  0  0  0  0  0  0  0  0  0  0
   11.0590   -0.6170   21.3593 H   0  0  0  0  0  0  0  0  0  0  0  0
   11.9605   -1.8923   22.2227 H   0  0  0  0  0  0  0  0  0  0  0  0
  1  2  1  0
  2  3  1  0
  3  4  1  0
  4  5  1  0
  5  6  2  0
  6  7  1  0
  7  8  2  0
  8  9  1  0
  9 10  2  0
 10 11  1  0
 11 12  2  0
 12 13  1  0
 10 14  1  0
  9 15  1  0
  8 16  1  0
  6 17  1  0
 17 18  2  0
 18 19  1  0
 19 20  1  0
 20 21  1  0
 21 22  2  0
 22 23  1  0
 23 24  2  0
 24 25  1  0
 25 26  2  0
 26 27  1  0
 27 28  2  0
 27 29  1  0
 26 30  1  0
 25 31  1  0
 24 32  1  0
 22 33  1  0
 21 34  1  0
 19 35  1  0
 19 36  1  0
  3 37  1  0
  3 38  1  0
  2 39  1  0
  2 40  1  0
 18  4  1  0
 28 20  1  0
 12  7  1  0
 28 23  1  0
M  END
>  <cnnaffinity>  (1) 
-5.81176

>  <filename>  (1) 
FCCn1nc(-c2cccnc2)nc1Cn1ccc2ccccc21

$$$$
