
     RDKit          3D

 39 42  0  0  0  0  0  0  0  0999 V2000
   12.1999   -1.8308   22.0652 F   0  0  0  0  0  0  0  0  0  0  0  0
   10.9897   -1.1532   22.1018 C   0  0  0  0  0  0  0  0  0  0  0  0
    9.8848   -2.2011   22.0762 C   0  0  0  0  0  0  0  0  0  0  0  0
    8.5690   -1.6243   21.8378 N   0  0  0  0  0  0  0  0  0  0  0  0
    8.3729   -1.0436   20.6289 N   0  0  0  0  0  0  0  0  0  0  0  0
    7.1060   -0.6634   20.6734 C   0  0  0  0  0  0  0  0  0  0  0  0
    6.4588    0.0592   19.5846 C   0  0  0  0  0  0  0  0  0  0  0  0
    5.2415    0.7401   19.7403 C   0  0  0  0  0  0  0  0  0  0  0  0
    4.7489    1.4542   18.6524 C   0  0  0  0  0  0  0  0  0  0  0  0
    5.4658    1.4378   17.4502 C   0  0  0  0  0  0  0  0  0  0  0  0
    6.6177    0.7682   17.2863 N   0  0  0  0  0  0  0  0  0  0  0  0
    7.1056    0.1111   18.3430 C   0  0  0  0  0  0  0  0  0  0  0  0
    8.0609   -0.3929   18.2002 H   0  0  0  0  0  0  0  0  0  0  0  0
    5.1058    1.9858   16.5830 H   0  0  0  0  0  0  0  0  0  0  0  0
    3.8409    2.0440   18.7222 H   0  0  0  0  0  0  0  0  0  0  0  0
    4.7097    0.7207   20.6957 H   0  0  0  0  0  0  0  0  0  0  0  0
    6.4760   -0.9816   21.8264 N   0  0  0  0  0  0  0  0  0  0  0  0
    7.4081   -1.5885   22.5323 C   0  0  0  0  0  0  0  0  0  0  0  0
    7.2122   -1.9892   23.9618 C   0  0  0  0  0  0  0  0  0  0  0  0
    8.0447   -1.1957   24.8406 N   0  0  0  0  0  0  0  0  0  0  0  0
    9.2925   -1.6545   25.1100 N   0  0  0  0  0  0  0  0  0  0  0  0
   10.0036   -0.6113   25.4879 C   0  0  0  0  0  0  0  0  0  0  0  0
    9.2620    0.5971   25.3524 C   0  0  0  0  0  0  0  0  0  0  0  0
    9.5633    1.9736   25.3911 C   0  0  0  0  0  0  0  0  0  0  0  0
    8.5736    2.8817   25.0678 C   0  0  0  0  0  0  0  0  0  0  0  0
    7.2667    2.4442   24.7075 C   0  0  0  0  0  0  0  0  0  0  0  0
    6.9554    1.0948   24.6438 C   0  0  0  0  0  0  0  0  0  0  0  0
    7.9832    0.1731   24.9446 C   0  0  0  0  0  0  0  0  0  0  0  0
    5.9771    0.7459   24.3245 H   0  0  0  0  0  0  0  0  0  0  0  0
    6.4983    3.1703   24.4532 H   0  0  0  0  0  0  0  0  0  0  0  0
    8.8097    3.9408   25.0666 H   0  0  0  0  0  0  0  0  0  0  0  0
   10.5747    2.2661   25.6363 H   0  0  0  0  0  0  0  0  0  0  0  0
   11.0508   -0.7119   25.7569 H   0  0  0  0  0  0  0  0  0  0  0  0
    6.1709   -1.7861   24.2178 H   0  0  0  0  0  0  0  0  0  0  0  0
    7.4218   -3.0426   24.1475 H   0  0  0  0  0  0  0  0  0  0  0  0
    9.8858   -2.7745   23.0040 H   0  0  0  0  0  0  0  0  0  0  0  0
   10.0947   -2.8554   21.2316 H   0  0  0  0  0  0  0  0  0  0  0  0
   10.9715   -0.5464   23.0141 H   0  0  0  0  0  0  0  0  0  0  0  0
   10.9261   -0.5008   21.2239 H   0  0  0  0  0  0  0  0  0  0  0  0
  1  2  1  0
  2  3  1  0
  3  4  1  0
  4  5  1  0
  5  6  2  0
  6  7  1  0
  7  8  2  0
  8  9  1  0
  9 10  2  0
 10 11  1  0
 11 12  2  0
 12 13  1  0
 10 14  1  0
  9 15  1  0
  8 16  1  0
  6 17  1  0
 17 18  2  0
 18 19  1  0
 19 20  1  0
 20 21  1  0
 21 22  2  0
 22 23  1  0
 23 24  2  0
 24 25  1  0
 25 26  2  0
 26 27  1  0
 27 28  2  0
 27 29  1  0
 26 30  1  0
 25 31  1  0
 24 32  1  0
 22 33  1  0
 19 34  1  0
 19 35  1  0
  3 36  1  0
  3 37  1  0
  2 38  1  0
  2 39  1  0
 18  4  1  0
 28 20  1  0
 12  7  1  0
 28 23  1  0
M  END
>  <cnnaffinity>  (1) 
-5.55041

>  <filename>  (1) 
FCCn1nc(-c2cccnc2)nc1Cn1ncc2ccccc21

$$$$
