
     RDKit          3D

 43 46  0  0  0  0  0  0  0  0999 V2000
   11.9773    0.8793   24.1836 F   0  0  0  0  0  0  0  0  0  0  0  0
   12.2965    0.8901   22.8368 C   0  0  0  0  0  0  0  0  0  0  0  0
   11.4082    1.8862   22.1119 C   0  0  0  0  0  0  0  0  0  0  0  0
    9.9887    1.5275   22.1452 N   0  0  0  0  0  0  0  0  0  0  0  0
    9.5572    0.5946   21.2564 N   0  0  0  0  0  0  0  0  0  0  0  0
    8.3596    0.2796   21.7041 C   0  0  0  0  0  0  0  0  0  0  0  0
    7.4516   -0.6767   20.9709 C   0  0  0  0  0  0  0  0  0  0  0  0
    6.6674   -0.0298   19.8297 C   0  0  0  0  0  0  0  0  0  0  0  0
    5.4613    0.6299   20.0983 C   0  0  0  0  0  0  0  0  0  0  0  0
    4.8158    1.3013   19.0624 C   0  0  0  0  0  0  0  0  0  0  0  0
    5.3965    1.3001   17.7904 C   0  0  0  0  0  0  0  0  0  0  0  0
    6.5391    0.6595   17.5012 N   0  0  0  0  0  0  0  0  0  0  0  0
    7.1471    0.0152   18.5046 C   0  0  0  0  0  0  0  0  0  0  0  0
    8.0819   -0.4847   18.2444 H   0  0  0  0  0  0  0  0  0  0  0  0
    4.9256    1.8398   16.9737 H   0  0  0  0  0  0  0  0  0  0  0  0
    3.8903    1.8363   19.2290 H   0  0  0  0  0  0  0  0  0  0  0  0
    5.0400    0.6307   21.1086 H   0  0  0  0  0  0  0  0  0  0  0  0
    8.0471   -1.5202   20.6024 H   0  0  0  0  0  0  0  0  0  0  0  0
    6.7641   -1.0782   21.7221 H   0  0  0  0  0  0  0  0  0  0  0  0
    8.0019    0.9101   22.8539 N   0  0  0  0  0  0  0  0  0  0  0  0
    9.0209    1.7225   23.0881 C   0  0  0  0  0  0  0  0  0  0  0  0
    9.0572    2.7614   24.1289 C   0  0  0  0  0  0  0  0  0  0  0  0
    8.8950    2.6027   25.4713 C   0  0  0  0  0  0  0  0  0  0  0  0
    8.9694    3.7929   26.1235 O   0  0  0  0  0  0  0  0  0  0  0  0
    9.1602    4.7463   25.1732 C   0  0  0  0  0  0  0  0  0  0  0  0
    9.2361    4.1796   23.9445 C   0  0  0  0  0  0  0  0  0  0  0  0
    9.5122    4.9583   22.6937 C   0  0  0  0  0  0  0  0  0  0  0  0
    9.8709    6.4270   22.9905 C   0  0  0  0  0  0  0  0  0  0  0  0
    9.1465    7.0310   24.2093 C   0  0  0  0  0  0  0  0  0  0  0  0
    9.3706    6.1970   25.4912 C   0  0  0  0  0  0  0  0  0  0  0  0
   10.4059    6.3273   25.8486 H   0  0  0  0  0  0  0  0  0  0  0  0
    8.7139    6.5332   26.2994 H   0  0  0  0  0  0  0  0  0  0  0  0
    9.4820    8.0640   24.3641 H   0  0  0  0  0  0  0  0  0  0  0  0
    8.0700    7.0697   23.9933 H   0  0  0  0  0  0  0  0  0  0  0  0
    9.6764    7.0360   22.1033 H   0  0  0  0  0  0  0  0  0  0  0  0
   10.9474    6.4789   23.1787 H   0  0  0  0  0  0  0  0  0  0  0  0
   10.3665    4.4859   22.2066 H   0  0  0  0  0  0  0  0  0  0  0  0
    8.6688    4.8970   21.9921 H   0  0  0  0  0  0  0  0  0  0  0  0
    8.7694    1.7367   26.1091 H   0  0  0  0  0  0  0  0  0  0  0  0
   11.5639    2.8776   22.5391 H   0  0  0  0  0  0  0  0  0  0  0  0
   11.6870    1.9254   21.0561 H   0  0  0  0  0  0  0  0  0  0  0  0
   13.3456    1.1924   22.7220 H   0  0  0  0  0  0  0  0  0  0  0  0
   12.1686   -0.1167   22.4250 H   0  0  0  0  0  0  0  0  0  0  0  0
  1  2  1  0
  2  3  1  0
  3  4  1  0
  4  5  1  0
  5  6  2  0
  6  7  1  0
  7  8  1  0
  8  9  2  0
  9 10  1  0
 10 11  2  0
 11 12  1  0
 12 13  2  0
 13 14  1  0
 11 15  1  0
 10 16  1  0
  9 17  1  0
  7 18  1  0
  7 19  1  0
  6 20  1  0
 20 21  2  0
 21 22  1  0
 22 23  2  0
 23 24  1  0
 24 25  1  0
 25 26  2  0
 26 27  1  0
 27 28  1  0
 28 29  1  0
 29 30  1  0
 30 31  1  0
 30 32  1  0
 29 33  1  0
 29 34  1  0
 28 35  1  0
 28 36  1  0
 27 37  1  0
 27 38  1  0
 23 39  1  0
  3 40  1  0
  3 41  1  0
  2 42  1  0
  2 43  1  0
 21  4  1  0
 26 22  1  0
 13  8  1  0
 30 25  1  0
M  END
>  <cnnaffinity>  (1) 
-5.80288

>  <filename>  (1) 
FCCn1nc(Cc2cccnc2)nc1-c1coc2c1CCCC2

$$$$
