
     RDKit          3D

 37 40  0  0  0  0  0  0  0  0999 V2000
   11.2177   -0.6672   23.3443 F   0  0  0  0  0  0  0  0  0  0  0  0
   11.2804   -1.4953   22.2330 C   0  0  0  0  0  0  0  0  0  0  0  0
   10.0569   -2.3827   22.1629 C   0  0  0  0  0  0  0  0  0  0  0  0
    8.8166   -1.6526   22.0233 N   0  0  0  0  0  0  0  0  0  0  0  0
    8.5425   -1.1600   20.7964 N   0  0  0  0  0  0  0  0  0  0  0  0
    7.3194   -0.6910   20.9393 C   0  0  0  0  0  0  0  0  0  0  0  0
    6.6148   -0.0112   19.8655 C   0  0  0  0  0  0  0  0  0  0  0  0
    5.4090    0.6567   20.1070 C   0  0  0  0  0  0  0  0  0  0  0  0
    4.8069    1.3189   19.0430 C   0  0  0  0  0  0  0  0  0  0  0  0
    5.4351    1.2979   17.7905 C   0  0  0  0  0  0  0  0  0  0  0  0
    6.5944    0.6640   17.5536 N   0  0  0  0  0  0  0  0  0  0  0  0
    7.1702    0.0297   18.5790 C   0  0  0  0  0  0  0  0  0  0  0  0
    8.1218   -0.4588   18.3738 H   0  0  0  0  0  0  0  0  0  0  0  0
    4.9913    1.8069   16.9369 H   0  0  0  0  0  0  0  0  0  0  0  0
    3.8761    1.8606   19.1690 H   0  0  0  0  0  0  0  0  0  0  0  0
    4.9854    0.6670   21.1157 H   0  0  0  0  0  0  0  0  0  0  0  0
    6.7845   -0.8619   22.1736 N   0  0  0  0  0  0  0  0  0  0  0  0
    7.7557   -1.4528   22.8444 C   0  0  0  0  0  0  0  0  0  0  0  0
    7.8369   -1.8218   24.2944 C   0  0  0  0  0  0  0  0  0  0  0  0
    8.6477   -0.8414   25.2400 C   0  0  0  0  0  0  0  0  0  0  0  0
    7.3277   -0.5583   25.9288 C   0  0  0  0  0  0  0  0  0  0  0  0
    6.6593    0.2442   26.8483 C   0  0  0  0  0  0  0  0  0  0  0  0
    5.2678    0.0624   26.9611 C   0  0  0  0  0  0  0  0  0  0  0  0
    4.6046   -0.8919   26.1793 C   0  0  0  0  0  0  0  0  0  0  0  0
    2.8735   -1.0387   26.2983 Cl  0  0  0  0  0  0  0  0  0  0  0  0
    5.2825   -1.7131   25.2642 C   0  0  0  0  0  0  0  0  0  0  0  0
    6.6417   -1.4859   25.1539 C   0  0  0  0  0  0  0  0  0  0  0  0
    4.7450   -2.4487   24.6791 H   0  0  0  0  0  0  0  0  0  0  0  0
    4.6858    0.6756   27.6441 H   0  0  0  0  0  0  0  0  0  0  0  0
    7.1463    1.0000   27.4597 H   0  0  0  0  0  0  0  0  0  0  0  0
    9.1264    0.0106   24.7529 H   0  0  0  0  0  0  0  0  0  0  0  0
    9.3785   -1.3760   25.8550 H   0  0  0  0  0  0  0  0  0  0  0  0
    8.1661   -2.8623   24.3903 H   0  0  0  0  0  0  0  0  0  0  0  0
   10.0108   -3.0464   23.0315 H   0  0  0  0  0  0  0  0  0  0  0  0
   10.1292   -2.9668   21.2460 H   0  0  0  0  0  0  0  0  0  0  0  0
   12.1634   -2.1368   22.3157 H   0  0  0  0  0  0  0  0  0  0  0  0
   11.3760   -0.8899   21.3257 H   0  0  0  0  0  0  0  0  0  0  0  0
  1  2  1  0
  2  3  1  0
  3  4  1  0
  4  5  1  0
  5  6  2  0
  6  7  1  0
  7  8  2  0
  8  9  1  0
  9 10  2  0
 10 11  1  0
 11 12  2  0
 12 13  1  0
 10 14  1  0
  9 15  1  0
  8 16  1  0
  6 17  1  0
 17 18  2  0
 18 19  1  0
 19 20  1  0
 20 21  1  0
 21 22  2  0
 22 23  1  0
 23 24  2  0
 24 25  1  0
 24 26  1  0
 26 27  2  0
 26 28  1  0
 23 29  1  0
 22 30  1  0
 20 31  1  0
 20 32  1  0
 19 33  1  0
  3 34  1  0
  3 35  1  0
  2 36  1  0
  2 37  1  0
 18  4  1  0
 27 19  1  0
 12  7  1  0
 27 21  1  0
M  END
>  <cnnaffinity>  (1) 
-5.8988

>  <filename>  (1) 
FCCn1nc(-c2cccnc2)nc1C1Cc2ccc(Cl)cc21

$$$$
