
     RDKit          3D

 42 45  0  0  0  0  0  0  0  0999 V2000
   10.9948   -0.8924   23.6683 F   0  0  0  0  0  0  0  0  0  0  0  0
   11.2020   -1.5170   22.4469 C   0  0  0  0  0  0  0  0  0  0  0  0
   10.0289   -2.4151   22.1319 C   0  0  0  0  0  0  0  0  0  0  0  0
    8.7889   -1.6815   22.0064 N   0  0  0  0  0  0  0  0  0  0  0  0
    8.4813   -1.1927   20.7910 N   0  0  0  0  0  0  0  0  0  0  0  0
    7.3090   -0.6237   20.9890 C   0  0  0  0  0  0  0  0  0  0  0  0
    6.5850    0.0309   19.9153 C   0  0  0  0  0  0  0  0  0  0  0  0
    5.3674    0.6894   20.1197 C   0  0  0  0  0  0  0  0  0  0  0  0
    4.7903    1.3306   19.0278 C   0  0  0  0  0  0  0  0  0  0  0  0
    5.4480    1.2922   17.7904 C   0  0  0  0  0  0  0  0  0  0  0  0
    6.6046    0.6441   17.5867 N   0  0  0  0  0  0  0  0  0  0  0  0
    7.1542    0.0273   18.6334 C   0  0  0  0  0  0  0  0  0  0  0  0
    8.0921   -0.4953   18.4550 H   0  0  0  0  0  0  0  0  0  0  0  0
    5.0309    1.7996   16.9244 H   0  0  0  0  0  0  0  0  0  0  0  0
    3.8580    1.8746   19.1206 H   0  0  0  0  0  0  0  0  0  0  0  0
    4.9081    0.7009   21.1117 H   0  0  0  0  0  0  0  0  0  0  0  0
    6.8602   -0.7009   22.2653 N   0  0  0  0  0  0  0  0  0  0  0  0
    7.8253   -1.3486   22.8906 C   0  0  0  0  0  0  0  0  0  0  0  0
    7.8043   -1.7892   24.3173 C   0  0  0  0  0  0  0  0  0  0  0  0
    7.0716   -3.1183   24.4795 C   0  0  0  0  0  0  0  0  0  0  0  0
    5.5571   -3.0558   24.2351 C   0  0  0  0  0  0  0  0  0  0  0  0
    5.0012   -4.3483   24.4831 O   0  0  0  0  0  0  0  0  0  0  0  0
    5.6551   -5.3566   23.8168 C   0  0  0  0  0  0  0  0  0  0  0  0
    5.0194   -6.5904   23.6908 C   0  0  0  0  0  0  0  0  0  0  0  0
    5.6670   -7.6227   23.0129 C   0  0  0  0  0  0  0  0  0  0  0  0
    6.9223   -7.4291   22.4280 C   0  0  0  0  0  0  0  0  0  0  0  0
    7.5829   -6.2083   22.5871 C   0  0  0  0  0  0  0  0  0  0  0  0
    6.9677   -5.1866   23.3110 C   0  0  0  0  0  0  0  0  0  0  0  0
    7.6599   -4.0224   23.5203 O   0  0  0  0  0  0  0  0  0  0  0  0
    8.5787   -6.0367   22.1902 H   0  0  0  0  0  0  0  0  0  0  0  0
    7.4032   -8.2456   21.9021 H   0  0  0  0  0  0  0  0  0  0  0  0
    5.2387   -8.6111   23.0515 H   0  0  0  0  0  0  0  0  0  0  0  0
    4.0390   -6.7312   24.1350 H   0  0  0  0  0  0  0  0  0  0  0  0
    5.0610   -2.3456   24.9052 H   0  0  0  0  0  0  0  0  0  0  0  0
    5.3703   -2.7631   23.1919 H   0  0  0  0  0  0  0  0  0  0  0  0
    7.2466   -3.5331   25.4817 H   0  0  0  0  0  0  0  0  0  0  0  0
    8.8314   -1.8828   24.6883 H   0  0  0  0  0  0  0  0  0  0  0  0
    7.3123   -1.0269   24.9296 H   0  0  0  0  0  0  0  0  0  0  0  0
   10.1710   -2.8391   21.1380 H   0  0  0  0  0  0  0  0  0  0  0  0
    9.9217   -3.2056   22.8796 H   0  0  0  0  0  0  0  0  0  0  0  0
   11.3299   -0.7501   21.6756 H   0  0  0  0  0  0  0  0  0  0  0  0
   12.1211   -2.1099   22.5000 H   0  0  0  0  0  0  0  0  0  0  0  0
  1  2  1  0
  2  3  1  0
  3  4  1  0
  4  5  1  0
  5  6  2  0
  6  7  1  0
  7  8  2  0
  8  9  1  0
  9 10  2  0
 10 11  1  0
 11 12  2  0
 12 13  1  0
 10 14  1  0
  9 15  1  0
  8 16  1  0
  6 17  1  0
 17 18  2  0
 18 19  1  0
 19 20  1  0
 20 21  1  0
 21 22  1  0
 22 23  1  0
 23 24  2  0
 24 25  1  0
 25 26  2  0
 26 27  1  0
 27 28  2  0
 28 29  1  0
 27 30  1  0
 26 31  1  0
 25 32  1  0
 24 33  1  0
 21 34  1  0
 21 35  1  0
 20 36  1  0
 19 37  1  0
 19 38  1  0
  3 39  1  0
  3 40  1  0
  2 41  1  0
  2 42  1  0
 18  4  1  0
 29 20  1  0
 12  7  1  0
 28 23  1  0
M  END
>  <cnnaffinity>  (1) 
-5.90436

>  <filename>  (1) 
FCCn1nc(-c2cccnc2)nc1CC1COc2ccccc2O1

$$$$
