
     RDKit          3D

 41 44  0  0  0  0  0  0  0  0999 V2000
   10.8463   -1.0808   23.8775 F   0  0  0  0  0  0  0  0  0  0  0  0
   11.1736   -1.6254   22.6390 C   0  0  0  0  0  0  0  0  0  0  0  0
   10.0473   -2.5138   22.1573 C   0  0  0  0  0  0  0  0  0  0  0  0
    8.8042   -1.8054   21.9687 N   0  0  0  0  0  0  0  0  0  0  0  0
    8.5266   -1.3091   20.7438 N   0  0  0  0  0  0  0  0  0  0  0  0
    7.3734   -0.7010   20.9353 C   0  0  0  0  0  0  0  0  0  0  0  0
    6.6571    0.0027   19.8918 C   0  0  0  0  0  0  0  0  0  0  0  0
    5.4432    0.6499   20.1547 C   0  0  0  0  0  0  0  0  0  0  0  0
    4.8130    1.3019   19.1010 C   0  0  0  0  0  0  0  0  0  0  0  0
    5.4187    1.2799   17.8401 C   0  0  0  0  0  0  0  0  0  0  0  0
    6.5791    0.6593   17.5797 N   0  0  0  0  0  0  0  0  0  0  0  0
    7.1888    0.0401   18.5956 C   0  0  0  0  0  0  0  0  0  0  0  0
    8.1396   -0.4392   18.3660 H   0  0  0  0  0  0  0  0  0  0  0  0
    4.9573    1.7886   16.9980 H   0  0  0  0  0  0  0  0  0  0  0  0
    3.8806    1.8336   19.2422 H   0  0  0  0  0  0  0  0  0  0  0  0
    5.0129    0.6406   21.1583 H   0  0  0  0  0  0  0  0  0  0  0  0
    6.9036   -0.7725   22.2022 N   0  0  0  0  0  0  0  0  0  0  0  0
    7.8286   -1.4642   22.8390 C   0  0  0  0  0  0  0  0  0  0  0  0
    7.8348   -1.8583   24.3026 C   0  0  0  0  0  0  0  0  0  0  0  0
    7.8551   -0.6369   25.2502 C   0  0  0  0  0  0  0  0  0  0  0  0
    6.4641   -0.0018   25.3256 C   0  0  0  0  0  0  0  0  0  0  0  0
    5.4641   -0.9344   25.7479 O   0  0  0  0  0  0  0  0  0  0  0  0
    5.5014   -2.1982   25.2463 C   0  0  0  0  0  0  0  0  0  0  0  0
    4.3541   -2.9756   25.4522 C   0  0  0  0  0  0  0  0  0  0  0  0
    4.3193   -4.2956   25.0042 C   0  0  0  0  0  0  0  0  0  0  0  0
    5.4335   -4.8275   24.3414 C   0  0  0  0  0  0  0  0  0  0  0  0
    5.3850   -6.4619   23.7572 Cl  0  0  0  0  0  0  0  0  0  0  0  0
    6.5747   -4.0569   24.1350 C   0  0  0  0  0  0  0  0  0  0  0  0
    6.6271   -2.7376   24.5999 C   0  0  0  0  0  0  0  0  0  0  0  0
    7.4165   -4.4860   23.5978 H   0  0  0  0  0  0  0  0  0  0  0  0
    3.4557   -4.9312   25.1715 H   0  0  0  0  0  0  0  0  0  0  0  0
    3.5260   -2.5000   25.9714 H   0  0  0  0  0  0  0  0  0  0  0  0
    6.1807    0.3974   24.3407 H   0  0  0  0  0  0  0  0  0  0  0  0
    6.4169    0.7852   26.0840 H   0  0  0  0  0  0  0  0  0  0  0  0
    8.5993    0.0901   24.9077 H   0  0  0  0  0  0  0  0  0  0  0  0
    8.1532   -0.9691   26.2526 H   0  0  0  0  0  0  0  0  0  0  0  0
    8.7435   -2.4474   24.4672 H   0  0  0  0  0  0  0  0  0  0  0  0
   10.2846   -2.8906   21.1634 H   0  0  0  0  0  0  0  0  0  0  0  0
    9.9206   -3.3500   22.8597 H   0  0  0  0  0  0  0  0  0  0  0  0
   11.3671   -0.8053   21.9422 H   0  0  0  0  0  0  0  0  0  0  0  0
   12.0687   -2.2440   22.7427 H   0  0  0  0  0  0  0  0  0  0  0  0
  1  2  1  0
  2  3  1  0
  3  4  1  0
  4  5  1  0
  5  6  2  0
  6  7  1  0
  7  8  2  0
  8  9  1  0
  9 10  2  0
 10 11  1  0
 11 12  2  0
 12 13  1  0
 10 14  1  0
  9 15  1  0
  8 16  1  0
  6 17  1  0
 17 18  2  0
 18 19  1  0
 19 20  1  0
 20 21  1  0
 21 22  1  0
 22 23  1  0
 23 24  2  0
 24 25  1  0
 25 26  2  0
 26 27  1  0
 26 28  1  0
 28 29  2  0
 28 30  1  0
 25 31  1  0
 24 32  1  0
 21 33  1  0
 21 34  1  0
 20 35  1  0
 20 36  1  0
 19 37  1  0
  3 38  1  0
  3 39  1  0
  2 40  1  0
  2 41  1  0
 18  4  1  0
 29 19  1  0
 12  7  1  0
 29 23  1  0
M  END
>  <cnnaffinity>  (1) 
-6.10714

>  <filename>  (1) 
FCCn1nc(-c2cccnc2)nc1C1CCOc2ccc(Cl)cc21

$$$$
