
     RDKit          3D

 39 42  0  0  0  0  0  0  0  0999 V2000
   12.3892   -2.3142   22.2743 F   0  0  0  0  0  0  0  0  0  0  0  0
   11.2360   -1.5581   22.3859 C   0  0  0  0  0  0  0  0  0  0  0  0
   10.0476   -2.4655   22.0751 C   0  0  0  0  0  0  0  0  0  0  0  0
    8.7906   -1.7394   21.9836 N   0  0  0  0  0  0  0  0  0  0  0  0
    8.4887   -1.2228   20.7712 N   0  0  0  0  0  0  0  0  0  0  0  0
    7.3346   -0.6210   20.9817 C   0  0  0  0  0  0  0  0  0  0  0  0
    6.6175    0.0490   19.9072 C   0  0  0  0  0  0  0  0  0  0  0  0
    5.3955    0.6921   20.1322 C   0  0  0  0  0  0  0  0  0  0  0  0
    4.7908    1.3280   19.0530 C   0  0  0  0  0  0  0  0  0  0  0  0
    5.4207    1.2934   17.8068 C   0  0  0  0  0  0  0  0  0  0  0  0
    6.5823    0.6599   17.5812 N   0  0  0  0  0  0  0  0  0  0  0  0
    7.1655    0.0510   18.6191 C   0  0  0  0  0  0  0  0  0  0  0  0
    8.1113   -0.4549   18.4186 H   0  0  0  0  0  0  0  0  0  0  0  0
    4.9817    1.7986   16.9475 H   0  0  0  0  0  0  0  0  0  0  0  0
    3.8540    1.8565   19.1723 H   0  0  0  0  0  0  0  0  0  0  0  0
    4.9612    0.6866   21.1324 H   0  0  0  0  0  0  0  0  0  0  0  0
    6.8835   -0.7016   22.2515 N   0  0  0  0  0  0  0  0  0  0  0  0
    7.7940   -1.4399   22.8590 C   0  0  0  0  0  0  0  0  0  0  0  0
    7.6846   -1.8780   24.2686 C   0  0  2  0  0  0  0  0  0  0  0  0
    8.8073   -2.3953   25.1445 C   0  0  0  0  0  0  0  0  0  0  0  0
    7.7401   -3.3399   24.6801 C   0  0  1  0  0  0  0  0  0  0  0  0
    6.6925   -3.8662   25.6168 C   0  0  0  0  0  0  0  0  0  0  0  0
    7.0234   -4.4007   26.8707 C   0  0  0  0  0  0  0  0  0  0  0  0
    6.0151   -4.8391   27.7285 C   0  0  0  0  0  0  0  0  0  0  0  0
    4.7111   -4.7777   27.4214 N   0  0  0  0  0  0  0  0  0  0  0  0
    4.3854   -4.3104   26.2120 C   0  0  0  0  0  0  0  0  0  0  0  0
    5.3339   -3.9036   25.2672 C   0  0  0  0  0  0  0  0  0  0  0  0
    4.8038   -3.4840   23.6699 Cl  0  0  0  0  0  0  0  0  0  0  0  0
    3.3257   -4.2559   25.9757 H   0  0  0  0  0  0  0  0  0  0  0  0
    6.2576   -5.2538   28.7022 H   0  0  0  0  0  0  0  0  0  0  0  0
    8.0631   -4.4673   27.1672 H   0  0  0  0  0  0  0  0  0  0  0  0
    8.0037   -4.0655   23.9077 H   0  0  0  0  0  0  0  0  0  0  0  0
    9.8055   -2.4785   24.7192 H   0  0  0  0  0  0  0  0  0  0  0  0
    8.7855   -2.0855   26.1919 H   0  0  0  0  0  0  0  0  0  0  0  0
    6.9337   -1.2805   24.7787 H   0  0  0  0  0  0  0  0  0  0  0  0
    9.9582   -3.2953   22.7813 H   0  0  0  0  0  0  0  0  0  0  0  0
   10.1854   -2.8761   21.0772 H   0  0  0  0  0  0  0  0  0  0  0  0
   11.1788   -1.1457   23.4030 H   0  0  0  0  0  0  0  0  0  0  0  0
   11.2811   -0.7300   21.6674 H   0  0  0  0  0  0  0  0  0  0  0  0
  1  2  1  0
  2  3  1  0
  3  4  1  0
  4  5  1  0
  5  6  2  0
  6  7  1  0
  7  8  2  0
  8  9  1  0
  9 10  2  0
 10 11  1  0
 11 12  2  0
 12 13  1  0
 10 14  1  0
  9 15  1  0
  8 16  1  0
  6 17  1  0
 17 18  2  0
 18 19  1  0
 19 20  1  0
 20 21  1  0
 21 22  1  0
 22 23  2  0
 23 24  1  0
 24 25  2  0
 25 26  1  0
 26 27  2  0
 27 28  1  0
 26 29  1  0
 24 30  1  0
 23 31  1  0
 21 32  1  6
 20 33  1  0
 20 34  1  0
 19 35  1  1
  3 36  1  0
  3 37  1  0
  2 38  1  0
  2 39  1  0
 18  4  1  0
 21 19  1  0
 27 22  1  0
 12  7  1  0
M  END
>  <cnnaffinity>  (1) 
-6.33723

>  <filename>  (1) 
FCCn1nc(-c2cccnc2)nc1[C@@H]1C[C@H]1c1ccncc1Cl

$$$$
