
     RDKit          3D

 26 27  0  0  0  0  0  0  0  0999 V2000
    4.9670    1.8357   17.0302 H   0  0  0  0  0  0  0  0  0  0  0  0
    5.4522    1.2884   17.8336 C   0  0  0  0  0  0  0  0  0  0  0  0
    6.6067    0.6766   17.5222 N   0  0  0  0  0  0  0  0  0  0  0  0
    7.2302    0.0118   18.5002 C   0  0  0  0  0  0  0  0  0  0  0  0
    8.1619   -0.4818   18.2340 H   0  0  0  0  0  0  0  0  0  0  0  0
    6.7340   -0.1008   19.8116 C   0  0  0  0  0  0  0  0  0  0  0  0
    7.4858   -0.7967   20.8080 N   0  0  0  0  0  0  0  0  0  0  0  0
    8.7293   -0.3353   21.2540 C   0  0  0  0  0  0  0  0  0  0  0  0
    9.2888    0.4127   20.7245 H   0  0  0  0  0  0  0  0  0  0  0  0
    9.0433   -1.0663   22.3357 C   0  0  0  0  0  0  0  0  0  0  0  0
   10.0328   -1.0315   23.2414 O   0  0  0  0  0  0  0  0  0  0  0  0
   11.2976   -0.5891   22.7483 C   0  0  0  0  0  0  0  0  0  0  0  0
   11.9668   -0.5041   23.6075 H   0  0  0  0  0  0  0  0  0  0  0  0
   11.2164    0.4044   22.2913 H   0  0  0  0  0  0  0  0  0  0  0  0
   11.8513   -1.5806   21.7300 C   0  0  0  0  0  0  0  0  0  0  0  0
   11.3230   -1.4598   20.7788 H   0  0  0  0  0  0  0  0  0  0  0  0
   11.7197   -2.6043   22.0897 H   0  0  0  0  0  0  0  0  0  0  0  0
   13.1962   -1.3326   21.5336 F   0  0  0  0  0  0  0  0  0  0  0  0
    8.0493   -1.9997   22.5049 N   0  0  0  0  0  0  0  0  0  0  0  0
    8.0422   -2.7254   23.1957 H   0  0  0  0  0  0  0  0  0  0  0  0
    7.0728   -1.8743   21.5644 C   0  0  0  0  0  0  0  0  0  0  0  0
    5.7303   -2.8390   21.3721 S   0  0  0  0  0  0  0  0  0  0  0  0
    5.5210    0.5243   20.1275 C   0  0  0  0  0  0  0  0  0  0  0  0
    5.1206    0.4764   21.1438 H   0  0  0  0  0  0  0  0  0  0  0  0
    4.8767    1.2349   19.1097 C   0  0  0  0  0  0  0  0  0  0  0  0
    3.9523    1.7676   19.3009 H   0  0  0  0  0  0  0  0  0  0  0  0
  1  2  1  0
  2  3  2  0
  3  4  1  0
  4  5  1  0
  4  6  2  0
  6  7  1  0
  7  8  1  0
  8  9  1  0
  8 10  2  0
 10 11  1  0
 11 12  1  0
 12 13  1  0
 12 14  1  0
 12 15  1  0
 15 16  1  0
 15 17  1  0
 15 18  1  0
 10 19  1  0
 19 20  1  0
 19 21  1  0
 21 22  2  0
  6 23  1  0
 23 24  1  0
 23 25  2  0
 25 26  1  0
 25  2  1  0
 21  7  1  0
M  END
>  <cnnaffinity>  (1) 
-4.57203

>  <filename>  (1) 
FCCOc1cn(-c2cccnc2)c(=S)[nH]1

$$$$
