
     RDKit          3D

 33 35  0  0  0  0  0  0  0  0999 V2000
    1.2395    1.9002   26.6172 I   0  0  0  0  0  0  0  0  0  0  0  0
    3.2205    2.3924   25.6707 C   0  0  0  0  0  0  0  0  0  0  0  0
    3.7448    3.6858   25.7746 C   0  0  0  0  0  0  0  0  0  0  0  0
    4.9753    4.0047   25.1900 C   0  0  0  0  0  0  0  0  0  0  0  0
    5.6811    3.0128   24.4922 C   0  0  0  0  0  0  0  0  0  0  0  0
    5.1699    1.7132   24.3724 C   0  0  0  0  0  0  0  0  0  0  0  0
    5.8451    0.7144   23.6676 N   0  0  0  0  0  0  0  0  0  0  0  0
    7.1190    0.9230   22.9704 C   0  0  0  0  0  0  0  0  0  0  0  0
    7.5512   -0.3602   22.3151 C   0  0  0  0  0  0  0  0  0  0  0  0
    8.3191   -1.3412   22.8715 C   0  0  0  0  0  0  0  0  0  0  0  0
    8.5497   -2.2439   21.8461 N   0  0  0  0  0  0  0  0  0  0  0  0
    7.9955   -1.8580   20.6628 N   0  0  0  0  0  0  0  0  0  0  0  0
    7.3701   -0.7346   20.9203 C   0  0  0  0  0  0  0  0  0  0  0  0
    6.6547    0.0081   19.8995 C   0  0  0  0  0  0  0  0  0  0  0  0
    5.4507    0.6607   20.1726 C   0  0  0  0  0  0  0  0  0  0  0  0
    4.8265    1.3097   19.1095 C   0  0  0  0  0  0  0  0  0  0  0  0
    5.4060    1.2932   17.8345 C   0  0  0  0  0  0  0  0  0  0  0  0
    6.5700    0.6681   17.5824 N   0  0  0  0  0  0  0  0  0  0  0  0
    7.1787    0.0397   18.6012 C   0  0  0  0  0  0  0  0  0  0  0  0
    8.1272   -0.4499   18.4008 H   0  0  0  0  0  0  0  0  0  0  0  0
    4.8931    1.7942   17.0190 H   0  0  0  0  0  0  0  0  0  0  0  0
    3.8876    1.8293   19.2598 H   0  0  0  0  0  0  0  0  0  0  0  0
    5.0043    0.6447   21.1698 H   0  0  0  0  0  0  0  0  0  0  0  0
    9.0897   -3.0999   21.9606 H   0  0  0  0  0  0  0  0  0  0  0  0
    8.6884   -1.3927   23.8945 H   0  0  0  0  0  0  0  0  0  0  0  0
    7.0084    1.7225   22.2301 H   0  0  0  0  0  0  0  0  0  0  0  0
    7.8821    1.2362   23.6914 H   0  0  0  0  0  0  0  0  0  0  0  0
    5.4372   -0.2204   23.6410 H   0  0  0  0  0  0  0  0  0  0  0  0
    3.9421    1.4149   24.9714 C   0  0  0  0  0  0  0  0  0  0  0  0
    3.5436    0.4111   24.8922 H   0  0  0  0  0  0  0  0  0  0  0  0
    6.6336    3.2457   24.0338 H   0  0  0  0  0  0  0  0  0  0  0  0
    5.3734    5.0149   25.2766 H   0  0  0  0  0  0  0  0  0  0  0  0
    3.1888    4.4448   26.3149 H   0  0  0  0  0  0  0  0  0  0  0  0
  1  2  1  0
  2  3  2  0
  3  4  1  0
  4  5  2  0
  5  6  1  0
  6  7  1  0
  7  8  1  0
  8  9  1  0
  9 10  2  0
 10 11  1  0
 11 12  1  0
 12 13  2  0
 13 14  1  0
 14 15  2  0
 15 16  1  0
 16 17  2  0
 17 18  1  0
 18 19  2  0
 19 20  1  0
 17 21  1  0
 16 22  1  0
 15 23  1  0
 11 24  1  0
 10 25  1  0
  8 26  1  0
  8 27  1  0
  7 28  1  0
  6 29  2  0
 29 30  1  0
  5 31  1  0
  4 32  1  0
  3 33  1  0
 29  2  1  0
 13  9  1  0
 19 14  1  0
M  END
>  <cnnaffinity>  (1) 
-4.74165

>  <filename>  (1) 
Ic1cccc(NCc2c[nH]nc2-c2cccnc2)c1

$$$$
