
     RDKit          3D

 32 34  0  0  0  0  0  0  0  0999 V2000
   10.4533   -4.3752   25.1150 I   0  0  0  0  0  0  0  0  0  0  0  0
    9.1977   -2.5226   25.3648 C   0  0  0  0  0  0  0  0  0  0  0  0
    9.1599   -1.9444   26.6336 C   0  0  0  0  0  0  0  0  0  0  0  0
    8.3442   -0.8448   26.8907 C   0  0  0  0  0  0  0  0  0  0  0  0
    7.5178   -0.3516   25.8763 C   0  0  0  0  0  0  0  0  0  0  0  0
    7.5740   -0.8954   24.5851 C   0  0  0  0  0  0  0  0  0  0  0  0
    8.4659   -1.9512   24.3079 C   0  0  0  0  0  0  0  0  0  0  0  0
    8.6704   -2.4814   22.9119 C   0  0  0  0  0  0  0  0  0  0  0  0
    9.3014   -1.4537   22.0630 N   0  0  0  0  0  0  0  0  0  0  0  0
   10.6408   -1.1506   21.9490 C   0  0  0  0  0  0  0  0  0  0  0  0
   10.8085   -0.2207   21.0447 N   0  0  0  0  0  0  0  0  0  0  0  0
    9.5731    0.0831   20.5217 N   0  0  0  0  0  0  0  0  0  0  0  0
    8.6861   -0.6621   21.1314 C   0  0  0  0  0  0  0  0  0  0  0  0
    7.3177   -0.6795   20.9277 N   0  0  0  0  0  0  0  0  0  0  0  0
    6.6789   -0.0183   19.8658 C   0  0  0  0  0  0  0  0  0  0  0  0
    5.4520    0.5814   20.1245 C   0  0  0  0  0  0  0  0  0  0  0  0
    4.8190    1.2702   19.0857 C   0  0  0  0  0  0  0  0  0  0  0  0
    5.4128    1.3184   17.8156 C   0  0  0  0  0  0  0  0  0  0  0  0
    6.5859    0.7187   17.5367 N   0  0  0  0  0  0  0  0  0  0  0  0
    7.2076    0.0735   18.5482 C   0  0  0  0  0  0  0  0  0  0  0  0
    8.1587   -0.4076   18.3396 H   0  0  0  0  0  0  0  0  0  0  0  0
    4.9077    1.8631   17.0266 H   0  0  0  0  0  0  0  0  0  0  0  0
    3.8804    1.7867   19.2524 H   0  0  0  0  0  0  0  0  0  0  0  0
    5.0290    0.5324   21.1269 H   0  0  0  0  0  0  0  0  0  0  0  0
    6.7613   -0.9416   21.7386 H   0  0  0  0  0  0  0  0  0  0  0  0
   11.4492   -1.6138   22.5078 H   0  0  0  0  0  0  0  0  0  0  0  0
    7.7078   -2.7860   22.4911 H   0  0  0  0  0  0  0  0  0  0  0  0
    9.3108   -3.3751   22.9416 H   0  0  0  0  0  0  0  0  0  0  0  0
    6.9215   -0.4978   23.8097 H   0  0  0  0  0  0  0  0  0  0  0  0
    6.8280    0.4573   26.0823 H   0  0  0  0  0  0  0  0  0  0  0  0
    8.3499   -0.3708   27.8702 H   0  0  0  0  0  0  0  0  0  0  0  0
    9.7909   -2.3457   27.4174 H   0  0  0  0  0  0  0  0  0  0  0  0
  1  2  1  0
  2  3  2  0
  3  4  1  0
  4  5  2  0
  5  6  1  0
  6  7  2  0
  7  8  1  0
  8  9  1  0
  9 10  1  0
 10 11  2  0
 11 12  1  0
 12 13  2  0
 13 14  1  0
 14 15  1  0
 15 16  2  0
 16 17  1  0
 17 18  2  0
 18 19  1  0
 19 20  2  0
 20 21  1  0
 18 22  1  0
 17 23  1  0
 16 24  1  0
 14 25  1  0
 10 26  1  0
  8 27  1  0
  8 28  1  0
  6 29  1  0
  5 30  1  0
  4 31  1  0
  3 32  1  0
  7  2  1  0
 13  9  1  0
 20 15  1  0
M  END
>  <cnnaffinity>  (1) 
-5.55618

>  <filename>  (1) 
Ic1ccccc1Cn1cnnc1Nc1cccnc1

$$$$
