
     RDKit          3D

 48 52  0  0  0  0  0  0  0  0999 V2000
    6.4474    2.7374   28.4415 N   0  0  0  0  0  0  0  0  0  0  0  0
    7.0130    2.8955   27.4447 C   0  0  0  0  0  0  0  0  0  0  0  0
    7.7145    3.1078   26.2008 C   0  0  0  0  0  0  0  0  0  0  0  0
    7.5686    2.1967   25.1444 C   0  0  0  0  0  0  0  0  0  0  0  0
    8.2316    2.4207   23.9368 C   0  0  0  0  0  0  0  0  0  0  0  0
    8.1929    1.3995   22.9393 N   0  0  0  0  0  0  0  0  0  0  0  0
    7.0340    0.8709   22.4566 N   0  0  0  0  0  0  0  0  0  0  0  0
    7.4610   -0.0183   21.5828 C   0  0  0  0  0  0  0  0  0  0  0  0
    6.5467   -0.8128   20.6917 C   0  0  0  0  0  0  0  0  0  0  0  0
    6.0870   -0.0527   19.4496 C   0  0  0  0  0  0  0  0  0  0  0  0
    5.0415    0.8763   19.5413 C   0  0  0  0  0  0  0  0  0  0  0  0
    4.6577    1.5772   18.3952 C   0  0  0  0  0  0  0  0  0  0  0  0
    5.3532    1.3512   17.2078 C   0  0  0  0  0  0  0  0  0  0  0  0
    6.3619    0.4742   17.0954 N   0  0  0  0  0  0  0  0  0  0  0  0
    6.7114   -0.1998   18.1988 C   0  0  0  0  0  0  0  0  0  0  0  0
    7.5446   -0.8956   18.0864 H   0  0  0  0  0  0  0  0  0  0  0  0
    5.0822    1.8948   16.3046 H   0  0  0  0  0  0  0  0  0  0  0  0
    3.8485    2.2998   18.4093 H   0  0  0  0  0  0  0  0  0  0  0  0
    4.5454    1.0507   20.4967 H   0  0  0  0  0  0  0  0  0  0  0  0
    7.0898   -1.7221   20.4118 H   0  0  0  0  0  0  0  0  0  0  0  0
    5.6740   -1.1163   21.2823 H   0  0  0  0  0  0  0  0  0  0  0  0
    8.8058   -0.1405   21.5026 N   0  0  0  0  0  0  0  0  0  0  0  0
    9.2487    0.7594   22.3681 C   0  0  0  0  0  0  0  0  0  0  0  0
   10.6744    1.0957   22.6185 C   0  0  0  0  0  0  0  0  0  0  0  0
   11.1782    1.0549   24.0685 C   0  0  0  0  0  0  0  0  0  0  0  0
   12.2224    2.1226   24.4491 C   0  0  0  0  0  0  0  0  0  0  0  0
   13.1555    2.5495   23.3114 C   0  0  0  0  0  0  0  0  0  0  0  0
   12.3280    3.0813   22.1327 C   0  0  0  0  0  0  0  0  0  0  0  0
   11.3133    2.0690   21.6281 C   0  0  0  0  0  0  0  0  0  0  0  0
   11.6561    0.6130   21.5772 C   0  0  0  0  0  0  0  0  0  0  0  0
   12.6321    0.3224   21.9546 H   0  0  0  0  0  0  0  0  0  0  0  0
   11.2730   -0.0306   20.7907 H   0  0  0  0  0  0  0  0  0  0  0  0
   10.6525    2.4501   20.8454 H   0  0  0  0  0  0  0  0  0  0  0  0
   11.7848    3.9769   22.4712 H   0  0  0  0  0  0  0  0  0  0  0  0
   12.9708    3.4039   21.3084 H   0  0  0  0  0  0  0  0  0  0  0  0
   13.8479    3.3272   23.6522 H   0  0  0  0  0  0  0  0  0  0  0  0
   13.7798    1.6988   23.0061 H   0  0  0  0  0  0  0  0  0  0  0  0
   12.8130    1.7116   25.2674 H   0  0  0  0  0  0  0  0  0  0  0  0
   11.7176    3.0211   24.8275 H   0  0  0  0  0  0  0  0  0  0  0  0
   10.3509    1.1213   24.7799 H   0  0  0  0  0  0  0  0  0  0  0  0
   11.6253    0.0626   24.2294 H   0  0  0  0  0  0  0  0  0  0  0  0
    8.9856    3.5948   23.7560 C   0  0  0  0  0  0  0  0  0  0  0  0
    9.1179    4.5031   24.8097 C   0  0  0  0  0  0  0  0  0  0  0  0
    8.5231    4.2505   26.0479 C   0  0  0  0  0  0  0  0  0  0  0  0
    8.6885    4.9199   26.8871 H   0  0  0  0  0  0  0  0  0  0  0  0
    9.6876    5.4171   24.6597 H   0  0  0  0  0  0  0  0  0  0  0  0
    9.4706    3.7890   22.8027 H   0  0  0  0  0  0  0  0  0  0  0  0
    6.9601    1.3049   25.2566 H   0  0  0  0  0  0  0  0  0  0  0  0
  1  2  3  0
  2  3  1  0
  3  4  2  0
  4  5  1  0
  5  6  1  0
  6  7  1  0
  7  8  2  0
  8  9  1  0
  9 10  1  0
 10 11  2  0
 11 12  1  0
 12 13  2  0
 13 14  1  0
 14 15  2  0
 15 16  1  0
 13 17  1  0
 12 18  1  0
 11 19  1  0
  9 20  1  0
  9 21  1  0
  8 22  1  0
 22 23  2  0
 23 24  1  0
 24 25  1  0
 25 26  1  0
 26 27  1  0
 27 28  1  0
 28 29  1  0
 29 30  1  0
 30 31  1  0
 30 32  1  0
 29 33  1  0
 28 34  1  0
 28 35  1  0
 27 36  1  0
 27 37  1  0
 26 38  1  0
 26 39  1  0
 25 40  1  0
 25 41  1  0
  5 42  2  0
 42 43  1  0
 43 44  2  0
 44 45  1  0
 43 46  1  0
 42 47  1  0
  4 48  1  0
 44  3  1  0
 23  6  1  0
 29 24  1  0
 15 10  1  0
 30 24  1  0
M  END
>  <cnnaffinity>  (1) 
-6.14867

>  <filename>  (1) 
N#Cc1cccc(-n2nc(Cc3cccnc3)nc2C23CCCCC2C3)c1

$$$$
