
     RDKit          3D

 37 39  0  0  0  0  0  0  0  0999 V2000
    5.0416    1.7609   16.9572 H   0  0  0  0  0  0  0  0  0  0  0  0
    5.4838    1.2497   17.8088 C   0  0  0  0  0  0  0  0  0  0  0  0
    6.6340    0.6062   17.5764 N   0  0  0  0  0  0  0  0  0  0  0  0
    7.2099   -0.0166   18.6152 C   0  0  0  0  0  0  0  0  0  0  0  0
    8.1570   -0.4995   18.3910 H   0  0  0  0  0  0  0  0  0  0  0  0
    6.6910   -0.0593   19.9241 C   0  0  0  0  0  0  0  0  0  0  0  0
    7.3941   -0.7837   21.0995 C   0  0  2  0  0  0  0  0  0  0  0  0
    6.4982   -2.0106   21.5020 C   0  0  0  0  0  0  0  0  0  0  0  0
    5.4876   -1.6270   21.6910 H   0  0  0  0  0  0  0  0  0  0  0  0
    6.3943   -2.6442   20.6159 H   0  0  0  0  0  0  0  0  0  0  0  0
    6.9154   -2.8860   22.6847 C   0  0  0  0  0  0  0  0  0  0  0  0
    6.7200   -2.4341   23.9980 C   0  0  0  0  0  0  0  0  0  0  0  0
    6.1560   -1.5171   24.1563 H   0  0  0  0  0  0  0  0  0  0  0  0
    7.2209   -3.1343   25.1025 C   0  0  0  0  0  0  0  0  0  0  0  0
    7.0412   -2.7637   26.1072 H   0  0  0  0  0  0  0  0  0  0  0  0
    7.9348   -4.3233   24.9083 C   0  0  0  0  0  0  0  0  0  0  0  0
    8.3768   -4.8493   25.7514 H   0  0  0  0  0  0  0  0  0  0  0  0
    8.0257   -4.8767   23.6327 C   0  0  0  0  0  0  0  0  0  0  0  0
    8.5032   -5.8463   23.4793 H   0  0  0  0  0  0  0  0  0  0  0  0
    7.4367   -4.2039   22.5415 C   0  0  0  0  0  0  0  0  0  0  0  0
    7.2323   -4.9208   21.3027 C   0  0  0  0  0  0  0  0  0  0  0  0
    6.9827   -5.5127   20.3394 N   0  0  0  0  0  0  0  0  0  0  0  0
    7.6957    0.2329   22.2504 C   0  0  0  0  0  0  0  0  0  0  0  0
    7.8065   -0.3005   23.2033 H   0  0  0  0  0  0  0  0  0  0  0  0
    6.8960    0.9727   22.3885 H   0  0  0  0  0  0  0  0  0  0  0  0
    8.9604    0.9023   21.8915 N   0  0  0  0  0  0  0  0  0  0  0  0
    9.5510    0.9490   22.7120 H   0  0  0  0  0  0  0  0  0  0  0  0
    9.6293    0.1204   20.8440 C   0  0  0  0  0  0  0  0  0  0  0  0
    9.5736    0.6668   19.8928 H   0  0  0  0  0  0  0  0  0  0  0  0
   10.6939   -0.0217   21.0669 H   0  0  0  0  0  0  0  0  0  0  0  0
    8.8511   -1.1940   20.7729 C   0  0  0  0  0  0  0  0  0  0  0  0
    8.9616   -1.7033   19.8151 H   0  0  0  0  0  0  0  0  0  0  0  0
    9.2064   -1.8793   21.5508 H   0  0  0  0  0  0  0  0  0  0  0  0
    5.4744    0.6180   20.1311 C   0  0  0  0  0  0  0  0  0  0  0  0
    5.0163    0.6444   21.1242 H   0  0  0  0  0  0  0  0  0  0  0  0
    4.8651    1.2808   19.0641 C   0  0  0  0  0  0  0  0  0  0  0  0
    3.9435    1.8371   19.1927 H   0  0  0  0  0  0  0  0  0  0  0  0
  1  2  1  0
  2  3  2  0
  3  4  1  0
  4  5  1  0
  4  6  2  0
  6  7  1  0
  7  8  1  1
  8  9  1  0
  8 10  1  0
  8 11  1  0
 11 12  2  0
 12 13  1  0
 12 14  1  0
 14 15  1  0
 14 16  2  0
 16 17  1  0
 16 18  1  0
 18 19  1  0
 18 20  2  0
 20 21  1  0
 21 22  3  0
  7 23  1  0
 23 24  1  0
 23 25  1  0
 23 26  1  0
 26 27  1  0
 26 28  1  0
 28 29  1  0
 28 30  1  0
 28 31  1  0
 31 32  1  0
 31 33  1  0
  6 34  1  0
 34 35  1  0
 34 36  2  0
 36 37  1  0
 36  2  1  0
 31  7  1  0
 20 11  1  0
M  END
>  <cnnaffinity>  (1) 
-4.77385

>  <filename>  (1) 
N#Cc1ccccc1C[C@]1(c2cccnc2)CCNC1

$$$$
