
     RDKit          3D

 31 33  0  0  0  0  0  0  0  0999 V2000
    4.9572    1.7955   16.9923 H   0  0  0  0  0  0  0  0  0  0  0  0
    5.4178    1.2902   17.8372 C   0  0  0  0  0  0  0  0  0  0  0  0
    6.5756    0.6636   17.5846 N   0  0  0  0  0  0  0  0  0  0  0  0
    7.1786    0.0478   18.6078 C   0  0  0  0  0  0  0  0  0  0  0  0
    8.1186   -0.4443   18.3578 H   0  0  0  0  0  0  0  0  0  0  0  0
    6.6581   -0.0085   19.9156 C   0  0  0  0  0  0  0  0  0  0  0  0
    7.4014   -0.7394   20.9844 C   0  0  0  0  0  0  0  0  0  0  0  0
    6.4069   -1.7136   22.0595 S   0  0  0  0  0  0  0  0  0  0  0  0
    7.5439   -2.3198   23.2417 C   0  0  0  0  0  0  0  0  0  0  0  0
    6.9322   -3.1287   24.3523 C   0  0  0  0  0  0  0  0  0  0  0  0
    5.8892   -2.6137   25.1505 C   0  0  0  0  0  0  0  0  0  0  0  0
    5.5191   -1.6195   24.9327 H   0  0  0  0  0  0  0  0  0  0  0  0
    5.3282   -3.3573   26.1879 C   0  0  0  0  0  0  0  0  0  0  0  0
    4.5265   -2.9378   26.7921 H   0  0  0  0  0  0  0  0  0  0  0  0
    5.8026   -4.6461   26.4565 C   0  0  0  0  0  0  0  0  0  0  0  0
    5.3567   -5.2348   27.2536 H   0  0  0  0  0  0  0  0  0  0  0  0
    6.8173   -5.1918   25.6727 C   0  0  0  0  0  0  0  0  0  0  0  0
    7.1717   -6.2030   25.8583 H   0  0  0  0  0  0  0  0  0  0  0  0
    7.3638   -4.4596   24.6027 C   0  0  0  0  0  0  0  0  0  0  0  0
    8.2023   -5.1740   23.6638 C   0  0  0  0  0  0  0  0  0  0  0  0
    8.7645   -5.7537   22.8351 N   0  0  0  0  0  0  0  0  0  0  0  0
    8.8797   -2.1398   23.1415 C   0  0  0  0  0  0  0  0  0  0  0  0
    9.5572   -2.6051   23.8503 H   0  0  0  0  0  0  0  0  0  0  0  0
    9.5539   -1.3142   22.1229 C   0  0  0  0  0  0  0  0  0  0  0  0
   10.7688   -1.1736   22.1439 O   0  0  0  0  0  0  0  0  0  0  0  0
    8.7430   -0.6618   21.0831 C   0  0  0  0  0  0  0  0  0  0  0  0
    9.3205   -0.0548   20.3887 H   0  0  0  0  0  0  0  0  0  0  0  0
    5.4406    0.6542   20.1556 C   0  0  0  0  0  0  0  0  0  0  0  0
    5.0070    0.6622   21.1582 H   0  0  0  0  0  0  0  0  0  0  0  0
    4.8125    1.3115   19.0976 C   0  0  0  0  0  0  0  0  0  0  0  0
    3.8779    1.8446   19.2373 H   0  0  0  0  0  0  0  0  0  0  0  0
  1  2  1  0
  2  3  2  0
  3  4  1  0
  4  5  1  0
  4  6  2  0
  6  7  1  0
  7  8  1  0
  8  9  1  0
  9 10  1  0
 10 11  2  0
 11 12  1  0
 11 13  1  0
 13 14  1  0
 13 15  2  0
 15 16  1  0
 15 17  1  0
 17 18  1  0
 17 19  2  0
 19 20  1  0
 20 21  3  0
  9 22  2  0
 22 23  1  0
 22 24  1  0
 24 25  2  0
 24 26  1  0
 26 27  1  0
  6 28  1  0
 28 29  1  0
 28 30  2  0
 30 31  1  0
 30  2  1  0
 26  7  2  0
 19 10  1  0
M  END
>  <cnnaffinity>  (1) 
-5.27175

>  <filename>  (1) 
N#Cc1ccccc1-c1cc(=O)cc(-c2cccnc2)s1

$$$$
