
     RDKit          3D

 32 34  0  0  0  0  0  0  0  0999 V2000
    4.9226    1.8218   16.9710 H   0  0  0  0  0  0  0  0  0  0  0  0
    5.3961    1.3187   17.8118 C   0  0  0  0  0  0  0  0  0  0  0  0
    6.5609    0.7027   17.5500 N   0  0  0  0  0  0  0  0  0  0  0  0
    7.1786    0.0767   18.5593 C   0  0  0  0  0  0  0  0  0  0  0  0
    8.1235   -0.4082   18.3193 H   0  0  0  0  0  0  0  0  0  0  0  0
    6.6583    0.0062   19.8676 C   0  0  0  0  0  0  0  0  0  0  0  0
    7.3506   -0.6949   20.9351 N   0  0  0  0  0  0  0  0  0  0  0  0
    8.6178   -0.2730   21.3090 C   0  0  0  0  0  0  0  0  0  0  0  0
    9.0044    0.5850   20.7643 H   0  0  0  0  0  0  0  0  0  0  0  0
    9.3440   -0.8827   22.2798 C   0  0  0  0  0  0  0  0  0  0  0  0
   10.7187   -0.4247   22.5873 C   0  0  0  0  0  0  0  0  0  0  0  0
   11.7996   -1.3106   22.4262 C   0  0  0  0  0  0  0  0  0  0  0  0
   11.5664   -2.3407   22.1771 H   0  0  0  0  0  0  0  0  0  0  0  0
   13.1182   -0.8980   22.6254 C   0  0  0  0  0  0  0  0  0  0  0  0
   13.9449   -1.5872   22.4441 H   0  0  0  0  0  0  0  0  0  0  0  0
   13.3761    0.3893   23.1126 C   0  0  0  0  0  0  0  0  0  0  0  0
   14.3906    0.6746   23.3876 H   0  0  0  0  0  0  0  0  0  0  0  0
   12.3256    1.2915   23.2895 C   0  0  0  0  0  0  0  0  0  0  0  0
   12.5174    2.2921   23.6729 H   0  0  0  0  0  0  0  0  0  0  0  0
   11.0046    0.9082   22.9935 C   0  0  0  0  0  0  0  0  0  0  0  0
    9.9525    1.8836   23.1579 C   0  0  0  0  0  0  0  0  0  0  0  0
    9.0951    2.6506   23.2814 N   0  0  0  0  0  0  0  0  0  0  0  0
    8.7541   -2.0338   22.9899 C   0  0  0  0  0  0  0  0  0  0  0  0
    9.2349   -2.7209   23.8624 O   0  0  0  0  0  0  0  0  0  0  0  0
    7.4712   -2.3354   22.5927 N   0  0  0  0  0  0  0  0  0  0  0  0
    7.0203   -3.0759   23.0897 H   0  0  0  0  0  0  0  0  0  0  0  0
    6.7235   -1.7717   21.6118 C   0  0  0  0  0  0  0  0  0  0  0  0
    5.6285   -2.2116   21.3546 O   0  0  0  0  0  0  0  0  0  0  0  0
    5.4411    0.6493   20.1235 C   0  0  0  0  0  0  0  0  0  0  0  0
    5.0133    0.6086   21.1233 H   0  0  0  0  0  0  0  0  0  0  0  0
    4.7996    1.3256   19.0772 C   0  0  0  0  0  0  0  0  0  0  0  0
    3.8588    1.8526   19.2275 H   0  0  0  0  0  0  0  0  0  0  0  0
  1  2  1  0
  2  3  2  0
  3  4  1  0
  4  5  1  0
  4  6  2  0
  6  7  1  0
  7  8  1  0
  8  9  1  0
  8 10  2  0
 10 11  1  0
 11 12  2  0
 12 13  1  0
 12 14  1  0
 14 15  1  0
 14 16  2  0
 16 17  1  0
 16 18  1  0
 18 19  1  0
 18 20  2  0
 20 21  1  0
 21 22  3  0
 10 23  1  0
 23 24  2  0
 23 25  1  0
 25 26  1  0
 25 27  1  0
 27 28  2  0
  6 29  1  0
 29 30  1  0
 29 31  2  0
 31 32  1  0
 31  2  1  0
 27  7  1  0
 20 11  1  0
M  END
>  <cnnaffinity>  (1) 
-5.00789

>  <filename>  (1) 
N#Cc1ccccc1-c1cn(-c2cccnc2)c(=O)[nH]c1=O

$$$$
