
     RDKit          3D

 36 39  0  0  0  0  0  0  0  0999 V2000
    9.6221    5.7704   25.1977 N   0  0  0  0  0  0  0  0  0  0  0  0
   10.4138    5.2217   24.5541 C   0  0  0  0  0  0  0  0  0  0  0  0
   11.4685    4.5456   23.8391 C   0  0  0  0  0  0  0  0  0  0  0  0
   12.3581    5.2720   23.0248 C   0  0  0  0  0  0  0  0  0  0  0  0
   13.4223    4.5937   22.4376 C   0  0  0  0  0  0  0  0  0  0  0  0
   13.6011    3.2476   22.7373 C   0  0  0  0  0  0  0  0  0  0  0  0
   12.7607    2.5422   23.4987 N   0  0  0  0  0  0  0  0  0  0  0  0
   11.6868    3.1550   23.9935 C   0  0  0  0  0  0  0  0  0  0  0  0
   10.5294    2.1049   24.8714 S   0  0  0  0  0  0  0  0  0  0  0  0
    9.3236    1.8195   23.5336 C   0  0  0  0  0  0  0  0  0  0  0  0
    8.1720    0.9694   24.0641 C   0  0  0  0  0  0  0  0  0  0  0  0
    7.0785    0.8326   22.9835 C   0  0  0  0  0  0  0  0  0  0  0  0
    7.5238   -0.2844   22.1794 N   0  0  0  0  0  0  0  0  0  0  0  0
    8.3443   -1.1884   22.7776 C   0  0  0  0  0  0  0  0  0  0  0  0
    8.7425   -2.0995   21.9363 N   0  0  0  0  0  0  0  0  0  0  0  0
    8.1725   -1.7714   20.7205 N   0  0  0  0  0  0  0  0  0  0  0  0
    7.4362   -0.6982   20.8863 C   0  0  0  0  0  0  0  0  0  0  0  0
    6.6442   -0.0010   19.8709 C   0  0  0  0  0  0  0  0  0  0  0  0
    5.4255    0.6479   20.1270 C   0  0  0  0  0  0  0  0  0  0  0  0
    4.8002    1.3099   19.0736 C   0  0  0  0  0  0  0  0  0  0  0  0
    5.4113    1.3031   17.8149 C   0  0  0  0  0  0  0  0  0  0  0  0
    6.5645    0.6668   17.5539 N   0  0  0  0  0  0  0  0  0  0  0  0
    7.1535    0.0238   18.5649 C   0  0  0  0  0  0  0  0  0  0  0  0
    8.0893   -0.4898   18.3437 H   0  0  0  0  0  0  0  0  0  0  0  0
    4.9515    1.8290   16.9815 H   0  0  0  0  0  0  0  0  0  0  0  0
    3.8651    1.8386   19.2177 H   0  0  0  0  0  0  0  0  0  0  0  0
    4.9745    0.6382   21.1210 H   0  0  0  0  0  0  0  0  0  0  0  0
    8.7073   -0.7581   24.4367 S   0  0  0  0  0  0  0  0  0  0  0  0
    6.1116    0.5909   23.4330 H   0  0  0  0  0  0  0  0  0  0  0  0
    6.9921    1.7459   22.3813 H   0  0  0  0  0  0  0  0  0  0  0  0
    7.7962    1.4046   24.9899 H   0  0  0  0  0  0  0  0  0  0  0  0
    8.9280    2.7849   23.1969 H   0  0  0  0  0  0  0  0  0  0  0  0
    9.7914    1.3127   22.6766 H   0  0  0  0  0  0  0  0  0  0  0  0
   14.4665    2.7147   22.3604 H   0  0  0  0  0  0  0  0  0  0  0  0
   14.1044    5.0960   21.7649 H   0  0  0  0  0  0  0  0  0  0  0  0
   12.2306    6.3419   22.8876 H   0  0  0  0  0  0  0  0  0  0  0  0
  1  2  3  0
  2  3  1  0
  3  4  2  0
  4  5  1  0
  5  6  2  0
  6  7  1  0
  7  8  2  0
  8  9  1  0
  9 10  1  0
 10 11  1  0
 11 12  1  0
 12 13  1  0
 13 14  1  0
 14 15  2  0
 15 16  1  0
 16 17  2  0
 17 18  1  0
 18 19  2  0
 19 20  1  0
 20 21  2  0
 21 22  1  0
 22 23  2  0
 23 24  1  0
 21 25  1  0
 20 26  1  0
 19 27  1  0
 14 28  1  0
 12 29  1  0
 12 30  1  0
 11 31  1  0
 10 32  1  0
 10 33  1  0
  6 34  1  0
  5 35  1  0
  4 36  1  0
  8  3  1  0
 28 11  1  0
 17 13  1  0
 23 18  1  0
M  END
>  <cnnaffinity>  (1) 
-6.05835

>  <filename>  (1) 
N#Cc1cccnc1SCC1Cn2c(nnc2-c2cccnc2)S1

$$$$
