
     RDKit          3D

 46 51  0  0  0  0  0  0  0  0999 V2000
    8.1207    7.8857   23.6517 N   0  0  0  0  0  0  0  0  0  0  0  0
    8.2929    6.7618   23.8675 C   0  0  0  0  0  0  0  0  0  0  0  0
    8.4614    5.3728   24.2248 C   0  0  0  0  0  0  0  0  0  0  0  0
    8.7159    4.3908   23.2482 C   0  0  0  0  0  0  0  0  0  0  0  0
    8.8182    3.0470   23.6352 C   0  0  0  0  0  0  0  0  0  0  0  0
    8.9547    1.9947   22.6605 N   0  0  0  0  0  0  0  0  0  0  0  0
    7.8775    1.1938   22.4314 N   0  0  0  0  0  0  0  0  0  0  0  0
    8.2560    0.4644   21.4059 C   0  0  0  0  0  0  0  0  0  0  0  0
    7.3324   -0.5440   20.7880 C   0  0  0  0  0  0  0  0  0  0  0  0
    6.5506    0.0120   19.6063 C   0  0  0  0  0  0  0  0  0  0  0  0
    5.3961    0.7810   19.8045 C   0  0  0  0  0  0  0  0  0  0  0  0
    4.7810    1.3727   18.6987 C   0  0  0  0  0  0  0  0  0  0  0  0
    5.3500    1.1865   17.4365 C   0  0  0  0  0  0  0  0  0  0  0  0
    6.4515    0.4525   17.2225 N   0  0  0  0  0  0  0  0  0  0  0  0
    7.0220   -0.1177   18.2896 C   0  0  0  0  0  0  0  0  0  0  0  0
    7.9178   -0.7081   18.0935 H   0  0  0  0  0  0  0  0  0  0  0  0
    4.9117    1.6496   16.5556 H   0  0  0  0  0  0  0  0  0  0  0  0
    3.8934    1.9871   18.8022 H   0  0  0  0  0  0  0  0  0  0  0  0
    5.0002    0.9294   20.8110 H   0  0  0  0  0  0  0  0  0  0  0  0
    7.9392   -1.4036   20.4884 H   0  0  0  0  0  0  0  0  0  0  0  0
    6.6488   -0.8720   21.5780 H   0  0  0  0  0  0  0  0  0  0  0  0
    9.5095    0.7206   20.9576 N   0  0  0  0  0  0  0  0  0  0  0  0
    9.9454    1.6682   21.7795 C   0  0  0  0  0  0  0  0  0  0  0  0
   11.3735    2.0637   21.7866 C   0  0  0  0  0  0  0  0  0  0  0  0
   12.2840    1.7684   23.0025 C   0  0  0  0  0  0  0  0  0  0  0  0
   12.1825    0.9489   24.2327 C   0  0  0  0  0  0  0  0  0  0  0  0
   13.3337    0.7514   23.2384 C   0  0  0  0  0  0  0  0  0  0  0  0
   13.3092   -0.1240   22.5891 H   0  0  0  0  0  0  0  0  0  0  0  0
   14.3224    1.1091   23.5175 H   0  0  0  0  0  0  0  0  0  0  0  0
   11.3885    0.2012   24.2810 H   0  0  0  0  0  0  0  0  0  0  0  0
   12.4223    1.4682   25.1579 H   0  0  0  0  0  0  0  0  0  0  0  0
   12.1271    3.1640   22.5480 C   0  0  0  0  0  0  0  0  0  0  0  0
   13.1058    4.2401   22.2327 C   0  0  0  0  0  0  0  0  0  0  0  0
   11.8737    4.5199   23.0944 C   0  0  0  0  0  0  0  0  0  0  0  0
   11.9821    4.6662   24.1683 H   0  0  0  0  0  0  0  0  0  0  0  0
   11.0526    5.0649   22.6409 H   0  0  0  0  0  0  0  0  0  0  0  0
   13.1525    4.6477   21.2229 H   0  0  0  0  0  0  0  0  0  0  0  0
   14.0647    4.1372   22.7417 H   0  0  0  0  0  0  0  0  0  0  0  0
   11.8162    1.8103   20.8217 H   0  0  0  0  0  0  0  0  0  0  0  0
    8.6533    2.6873   24.9775 C   0  0  0  0  0  0  0  0  0  0  0  0
    8.4044    3.6673   25.9406 C   0  0  0  0  0  0  0  0  0  0  0  0
    8.3047    5.0118   25.5718 C   0  0  0  0  0  0  0  0  0  0  0  0
    8.0916    5.7759   26.3138 H   0  0  0  0  0  0  0  0  0  0  0  0
    8.2583    3.3732   26.9762 H   0  0  0  0  0  0  0  0  0  0  0  0
    8.7123    1.6355   25.2489 H   0  0  0  0  0  0  0  0  0  0  0  0
    8.8165    4.6728   22.2045 H   0  0  0  0  0  0  0  0  0  0  0  0
  1  2  3  0
  2  3  1  0
  3  4  2  0
  4  5  1  0
  5  6  1  0
  6  7  1  0
  7  8  2  0
  8  9  1  0
  9 10  1  0
 10 11  2  0
 11 12  1  0
 12 13  2  0
 13 14  1  0
 14 15  2  0
 15 16  1  0
 13 17  1  0
 12 18  1  0
 11 19  1  0
  9 20  1  0
  9 21  1  0
  8 22  1  0
 22 23  2  0
 23 24  1  0
 24 25  1  0
 25 26  1  0
 26 27  1  0
 27 28  1  0
 27 29  1  0
 26 30  1  0
 26 31  1  0
 25 32  1  0
 32 33  1  0
 33 34  1  0
 34 35  1  0
 34 36  1  0
 33 37  1  0
 33 38  1  0
 24 39  1  0
  5 40  2  0
 40 41  1  0
 41 42  2  0
 42 43  1  0
 41 44  1  0
 40 45  1  0
  4 46  1  0
 42  3  1  0
 23  6  1  0
 32 24  1  0
 15 10  1  0
 27 25  1  0
 34 32  1  0
M  END
>  <cnnaffinity>  (1) 
-6.0823

>  <filename>  (1) 
N#Cc1cccc(-n2nc(Cc3cccnc3)nc2C2C3(CC3)C23CC3)c1

$$$$
