
     RDKit          3D

 44 48  0  0  0  0  0  0  0  0999 V2000
   13.4504    6.3958   22.1348 N   0  0  0  0  0  0  0  0  0  0  0  0
   13.0367    5.3314   22.3254 C   0  0  0  0  0  0  0  0  0  0  0  0
   12.6771    3.9496   22.5152 C   0  0  0  0  0  0  0  0  0  0  0  0
   11.3489    3.5278   22.3924 C   0  0  0  0  0  0  0  0  0  0  0  0
   11.0622    2.1601   22.4573 C   0  0  0  0  0  0  0  0  0  0  0  0
    9.7260    1.6836   22.3128 N   0  0  0  0  0  0  0  0  0  0  0  0
    9.4736    0.6265   21.4966 N   0  0  0  0  0  0  0  0  0  0  0  0
    8.1809    0.4459   21.6345 C   0  0  0  0  0  0  0  0  0  0  0  0
    7.4478   -0.6351   20.8932 C   0  0  0  0  0  0  0  0  0  0  0  0
    6.6278   -0.0841   19.7318 C   0  0  0  0  0  0  0  0  0  0  0  0
    5.4108    0.5651   19.9852 C   0  0  0  0  0  0  0  0  0  0  0  0
    4.7931    1.2711   18.9523 C   0  0  0  0  0  0  0  0  0  0  0  0
    5.3962    1.2784   17.6923 C   0  0  0  0  0  0  0  0  0  0  0  0
    6.5232    0.6079   17.4088 N   0  0  0  0  0  0  0  0  0  0  0  0
    7.1103   -0.0573   18.4116 C   0  0  0  0  0  0  0  0  0  0  0  0
    8.0269   -0.5934   18.1585 H   0  0  0  0  0  0  0  0  0  0  0  0
    4.9604    1.8484   16.8741 H   0  0  0  0  0  0  0  0  0  0  0  0
    3.8835    1.8359   19.1156 H   0  0  0  0  0  0  0  0  0  0  0  0
    4.9811    0.5341   20.9894 H   0  0  0  0  0  0  0  0  0  0  0  0
    8.1808   -1.3832   20.5686 H   0  0  0  0  0  0  0  0  0  0  0  0
    6.7926   -1.1167   21.6246 H   0  0  0  0  0  0  0  0  0  0  0  0
    7.5754    1.3045   22.4864 N   0  0  0  0  0  0  0  0  0  0  0  0
    8.5598    2.0749   22.9143 C   0  0  0  0  0  0  0  0  0  0  0  0
    8.4188    3.1076   23.9282 C   0  0  0  0  0  0  0  0  0  0  0  0
    9.3693    3.2592   24.9379 C   0  0  0  0  0  0  0  0  0  0  0  0
    9.2930    4.1795   25.9156 N   0  0  0  0  0  0  0  0  0  0  0  0
    8.2388    4.9932   25.9553 C   0  0  0  0  0  0  0  0  0  0  0  0
    7.2019    4.9025   25.0046 C   0  0  0  0  0  0  0  0  0  0  0  0
    7.2779    3.9406   23.9732 C   0  0  0  0  0  0  0  0  0  0  0  0
    6.0899    4.0926   23.1895 C   0  0  0  0  0  0  0  0  0  0  0  0
    5.3604    5.1040   23.7413 C   0  0  0  0  0  0  0  0  0  0  0  0
    6.0202    5.5933   24.8472 N   0  0  0  0  0  0  0  0  0  0  0  0
    5.7178    6.3845   25.3988 H   0  0  0  0  0  0  0  0  0  0  0  0
    4.4245    5.5460   23.4294 H   0  0  0  0  0  0  0  0  0  0  0  0
    5.8437    3.4805   22.3353 H   0  0  0  0  0  0  0  0  0  0  0  0
    8.2097    5.7285   26.7572 H   0  0  0  0  0  0  0  0  0  0  0  0
   10.2458    2.6139   24.9656 H   0  0  0  0  0  0  0  0  0  0  0  0
   12.0828    1.2241   22.6773 C   0  0  0  0  0  0  0  0  0  0  0  0
   13.4004    1.6570   22.8283 C   0  0  0  0  0  0  0  0  0  0  0  0
   13.6979    3.0200   22.7446 C   0  0  0  0  0  0  0  0  0  0  0  0
   14.7117    3.3885   22.7865 H   0  0  0  0  0  0  0  0  0  0  0  0
   14.1944    0.9288   22.9641 H   0  0  0  0  0  0  0  0  0  0  0  0
   11.8110    0.1721   22.7238 H   0  0  0  0  0  0  0  0  0  0  0  0
   10.5561    4.2545   22.2626 H   0  0  0  0  0  0  0  0  0  0  0  0
  1  2  3  0
  2  3  1  0
  3  4  2  0
  4  5  1  0
  5  6  1  0
  6  7  1  0
  7  8  2  0
  8  9  1  0
  9 10  1  0
 10 11  2  0
 11 12  1  0
 12 13  2  0
 13 14  1  0
 14 15  2  0
 15 16  1  0
 13 17  1  0
 12 18  1  0
 11 19  1  0
  9 20  1  0
  9 21  1  0
  8 22  1  0
 22 23  2  0
 23 24  1  0
 24 25  2  0
 25 26  1  0
 26 27  2  0
 27 28  1  0
 28 29  2  0
 29 30  1  0
 30 31  2  0
 31 32  1  0
 32 33  1  0
 31 34  1  0
 30 35  1  0
 27 36  1  0
 25 37  1  0
  5 38  2  0
 38 39  1  0
 39 40  2  0
 40 41  1  0
 39 42  1  0
 38 43  1  0
  4 44  1  0
 40  3  1  0
 23  6  1  0
 29 24  1  0
 15 10  1  0
 32 28  1  0
M  END
>  <cnnaffinity>  (1) 
-5.94815

>  <filename>  (1) 
N#Cc1cccc(-n2nc(Cc3cccnc3)nc2-c2cncc3[nH]ccc23)c1

$$$$
