
     RDKit          3D

 33 35  0  0  0  0  0  0  0  0999 V2000
   10.0560   -0.2375   22.5258 H   0  0  0  0  0  0  0  0  0  0  0  0
    9.1688   -0.7371   22.1713 C   0  0  0  0  0  0  0  0  0  0  0  0
    8.4462   -1.5389   22.9754 C   0  0  0  0  0  0  0  0  0  0  0  0
    8.6337   -1.5656   24.4499 C   0  0  0  0  0  0  0  0  0  0  0  0
    8.7108   -0.3211   25.1098 C   0  0  0  0  0  0  0  0  0  0  0  0
    8.4757    0.5688   24.5281 H   0  0  0  0  0  0  0  0  0  0  0  0
    9.0178   -0.2399   26.4650 C   0  0  0  0  0  0  0  0  0  0  0  0
    9.1165    0.7328   26.9427 H   0  0  0  0  0  0  0  0  0  0  0  0
    9.2071   -1.4117   27.2057 C   0  0  0  0  0  0  0  0  0  0  0  0
    9.4711   -1.3306   28.2573 H   0  0  0  0  0  0  0  0  0  0  0  0
    9.0918   -2.6618   26.5893 C   0  0  0  0  0  0  0  0  0  0  0  0
    9.2163   -3.5758   27.1664 H   0  0  0  0  0  0  0  0  0  0  0  0
    8.8021   -2.7514   25.2139 C   0  0  0  0  0  0  0  0  0  0  0  0
    8.7219   -4.0581   24.5927 C   0  0  0  0  0  0  0  0  0  0  0  0
    8.6493   -5.0806   24.0505 N   0  0  0  0  0  0  0  0  0  0  0  0
    7.4365   -2.3021   22.3952 N   0  0  0  0  0  0  0  0  0  0  0  0
    6.8148   -2.8748   22.9413 H   0  0  0  0  0  0  0  0  0  0  0  0
    6.7144   -1.8368   21.3085 C   0  0  0  0  0  0  0  0  0  0  0  0
    5.6137   -2.3030   21.1114 O   0  0  0  0  0  0  0  0  0  0  0  0
    7.3569   -0.8713   20.5330 N   0  0  0  0  0  0  0  0  0  0  0  0
    6.6366   -0.1044   19.5604 C   0  0  0  0  0  0  0  0  0  0  0  0
    7.1504    0.1163   18.2603 C   0  0  0  0  0  0  0  0  0  0  0  0
    8.1002   -0.3365   17.9761 H   0  0  0  0  0  0  0  0  0  0  0  0
    6.5392    0.8510   17.3237 N   0  0  0  0  0  0  0  0  0  0  0  0
    5.3805    1.4418   17.6602 C   0  0  0  0  0  0  0  0  0  0  0  0
    4.9043    2.0427   16.8869 H   0  0  0  0  0  0  0  0  0  0  0  0
    4.7939    1.3064   18.9239 C   0  0  0  0  0  0  0  0  0  0  0  0
    3.8653    1.8243   19.1399 H   0  0  0  0  0  0  0  0  0  0  0  0
    5.4239    0.5163   19.8944 C   0  0  0  0  0  0  0  0  0  0  0  0
    5.0048    0.3911   20.8936 H   0  0  0  0  0  0  0  0  0  0  0  0
    8.7874   -0.5556   20.7423 C   0  0  0  0  0  0  0  0  0  0  0  0
    8.9584    0.5004   20.4700 H   0  0  0  0  0  0  0  0  0  0  0  0
    9.4252   -1.1667   20.0684 H   0  0  0  0  0  0  0  0  0  0  0  0
  1  2  1  0
  2  3  2  0
  3  4  1  0
  4  5  2  0
  5  6  1  0
  5  7  1  0
  7  8  1  0
  7  9  2  0
  9 10  1  0
  9 11  1  0
 11 12  1  0
 11 13  2  0
 13 14  1  0
 14 15  3  0
  3 16  1  0
 16 17  1  0
 16 18  1  0
 18 19  2  0
 18 20  1  0
 20 21  1  0
 21 22  2  0
 22 23  1  0
 22 24  1  0
 24 25  2  0
 25 26  1  0
 25 27  1  0
 27 28  1  0
 27 29  2  0
 29 30  1  0
 20 31  1  0
 31 32  1  0
 31 33  1  0
 31  2  1  0
 13  4  1  0
 29 21  1  0
M  END
>  <cnnaffinity>  (1) 
-5.13424

>  <filename>  (1) 
N#Cc1ccccc1C1=CCN(c2cccnc2)C(=O)N1

$$$$
