
     RDKit          3D

 24 25  0  0  0  0  0  0  0  0999 V2000
    9.8529   -0.7474   26.3497 H   0  0  0  0  0  0  0  0  0  0  0  0
    9.4798   -0.8051   25.3966 N   0  0  0  0  0  0  0  0  0  0  0  0
    9.7089   -2.0162   25.0680 N   0  0  0  0  0  4  0  0  0  0  0  0
    9.4502   -2.6128   23.9697 N   0  0  0  0  0  0  0  0  0  0  0  0
    8.7240   -1.9817   22.9378 C   0  0  0  0  0  0  0  0  0  0  0  0
    8.1883   -2.7042   21.9259 C   0  0  0  0  0  0  0  0  0  0  0  0
    8.3174   -3.7721   21.8996 H   0  0  0  0  0  0  0  0  0  0  0  0
    7.3229   -2.0826   20.9559 C   0  0  0  0  0  0  0  0  0  0  0  0
    6.5924   -2.6690   20.1818 O   0  0  0  0  0  0  0  0  0  0  0  0
    7.3776   -0.6351   20.9486 N   0  0  0  0  0  0  0  0  0  0  0  0
    6.6818    0.0656   19.8891 C   0  0  0  0  0  0  0  0  0  0  0  0
    7.1768    0.0832   18.5707 C   0  0  0  0  0  0  0  0  0  0  0  0
    8.1131   -0.4266   18.3519 H   0  0  0  0  0  0  0  0  0  0  0  0
    6.5489    0.6867   17.5561 N   0  0  0  0  0  0  0  0  0  0  0  0
    5.3852    1.3014   17.8246 C   0  0  0  0  0  0  0  0  0  0  0  0
    4.9129    1.8029   16.9821 H   0  0  0  0  0  0  0  0  0  0  0  0
    4.7973    1.3137   19.0935 C   0  0  0  0  0  0  0  0  0  0  0  0
    3.8632    1.8405   19.2435 H   0  0  0  0  0  0  0  0  0  0  0  0
    5.4558    0.6741   20.1511 C   0  0  0  0  0  0  0  0  0  0  0  0
    5.0440    0.6384   21.1596 H   0  0  0  0  0  0  0  0  0  0  0  0
    7.8755    0.0923   22.0334 C   0  0  0  0  0  0  0  0  0  0  0  0
    7.7864    1.2872   22.1717 O   0  0  0  0  0  0  0  0  0  0  0  0
    8.5171   -0.6451   22.9894 N   0  0  0  0  0  0  0  0  0  0  0  0
    8.8407   -0.0826   23.7566 H   0  0  0  0  0  0  0  0  0  0  0  0
  1  2  1  0
  2  3  2  0
  3  4  2  0
  4  5  1  0
  5  6  2  0
  6  7  1  0
  6  8  1  0
  8  9  2  0
  8 10  1  0
 10 11  1  0
 11 12  2  0
 12 13  1  0
 12 14  1  0
 14 15  2  0
 15 16  1  0
 15 17  1  0
 17 18  1  0
 17 19  2  0
 19 20  1  0
 10 21  1  0
 21 22  2  0
 21 23  1  0
 23 24  1  0
 23  5  1  0
 19 11  1  0
M  CHG  1   3   1
M  END
>  <cnnaffinity>  (1) 
-4.41211

>  <filename>  (1) 
N=[N+]=Nc1cc(=O)n(-c2cccnc2)c(=O)[nH]1

$$$$
