
     RDKit          3D

 25 27  0  0  0  0  0  0  0  0999 V2000
    5.6841   -0.0174   26.4144 H   0  0  0  0  0  0  0  0  0  0  0  0
    6.5262   -0.5736   26.5869 N   0  0  0  0  0  0  0  0  0  0  0  0
    7.0876   -0.7247   25.4666 N   0  0  0  0  0  4  0  0  0  0  0  0
    8.1484   -1.3958   25.2887 N   0  0  0  0  0  0  0  0  0  0  0  0
    8.6415   -1.5061   24.0509 N   0  0  0  0  0  0  0  0  0  0  0  0
    9.8677   -2.1161   23.7757 C   0  0  0  0  0  0  0  0  0  0  0  0
   10.4203   -2.5058   24.6106 H   0  0  0  0  0  0  0  0  0  0  0  0
   10.0999   -2.0747   22.4453 C   0  0  0  0  0  0  0  0  0  0  0  0
   10.9122   -2.4054   21.8179 H   0  0  0  0  0  0  0  0  0  0  0  0
    8.9965   -1.4414   21.8867 N   0  0  0  0  0  0  0  0  0  0  0  0
    8.6302   -1.1342   20.6325 N   0  0  0  0  0  0  0  0  0  0  0  0
    7.4278   -0.5569   20.8041 C   0  0  0  0  0  0  0  0  0  0  0  0
    6.6714   -0.0057   19.6715 C   0  0  0  0  0  0  0  0  0  0  0  0
    7.2181   -0.0400   18.3753 C   0  0  0  0  0  0  0  0  0  0  0  0
    8.1447   -0.5792   18.1945 H   0  0  0  0  0  0  0  0  0  0  0  0
    6.6677    0.5698   17.3248 N   0  0  0  0  0  0  0  0  0  0  0  0
    5.5232    1.2380   17.5288 C   0  0  0  0  0  0  0  0  0  0  0  0
    5.1147    1.7589   16.6663 H   0  0  0  0  0  0  0  0  0  0  0  0
    4.8641    1.2828   18.7616 C   0  0  0  0  0  0  0  0  0  0  0  0
    3.9341    1.8323   18.8573 H   0  0  0  0  0  0  0  0  0  0  0  0
    5.4384    0.6413   19.8535 C   0  0  0  0  0  0  0  0  0  0  0  0
    4.9377    0.6523   20.8246 H   0  0  0  0  0  0  0  0  0  0  0  0
    7.0356   -0.5067   22.1604 C   0  0  0  0  0  0  0  0  0  0  0  0
    6.1223   -0.1197   22.5728 H   0  0  0  0  0  0  0  0  0  0  0  0
    8.0978   -1.0913   22.8266 C   0  0  0  0  0  0  0  0  0  0  0  0
  1  2  1  0
  2  3  2  0
  3  4  2  0
  4  5  1  0
  5  6  1  0
  6  7  1  0
  6  8  2  0
  8  9  1  0
  8 10  1  0
 10 11  1  0
 11 12  2  0
 12 13  1  0
 13 14  2  0
 14 15  1  0
 14 16  1  0
 16 17  2  0
 17 18  1  0
 17 19  1  0
 19 20  1  0
 19 21  2  0
 21 22  1  0
 12 23  1  0
 23 24  1  0
 23 25  2  0
 25  5  1  0
 25 10  1  0
 21 13  1  0
M  CHG  1   3   1
M  END
>  <cnnaffinity>  (1) 
-5.03871

>  <filename>  (1) 
N=[N+]=Nn1ccn2nc(-c3cccnc3)cc12

$$$$
