
     RDKit          3D

 21 22  0  0  0  0  0  0  0  0999 V2000
    4.5776   -3.9403   24.1289 H   0  0  0  0  0  0  0  0  0  0  0  0
    4.5456   -3.5612   23.1801 N   0  0  0  0  0  0  0  0  0  0  0  0
    5.6530   -3.0151   22.9841 N   0  0  0  0  0  4  0  0  0  0  0  0
    5.8639   -2.2896   21.9238 N   0  0  0  0  0  0  0  0  0  0  0  0
    7.1151   -1.7435   21.8513 C   0  0  0  0  0  0  0  0  0  0  0  0
    8.2729   -1.9097   22.5974 C   0  0  0  0  0  0  0  0  0  0  0  0
    8.4224   -2.5493   23.4601 H   0  0  0  0  0  0  0  0  0  0  0  0
    9.2856   -1.1530   22.0977 N   0  0  0  0  0  0  0  0  0  0  0  0
    8.7820   -0.5103   21.0736 C   0  0  0  0  0  0  0  0  0  0  0  0
    9.2845    0.2155   20.4453 H   0  0  0  0  0  0  0  0  0  0  0  0
    7.4700   -0.8191   20.8525 N   0  0  0  0  0  0  0  0  0  0  0  0
    6.6897   -0.1806   19.8388 C   0  0  0  0  0  0  0  0  0  0  0  0
    7.1692   -0.0848   18.5119 C   0  0  0  0  0  0  0  0  0  0  0  0
    8.0921   -0.5870   18.2073 H   0  0  0  0  0  0  0  0  0  0  0  0
    6.5522    0.6111   17.5574 N   0  0  0  0  0  0  0  0  0  0  0  0
    5.4269    1.2694   17.8801 C   0  0  0  0  0  0  0  0  0  0  0  0
    4.9678    1.8585   17.0852 H   0  0  0  0  0  0  0  0  0  0  0  0
    4.8595    1.2142   19.1535 C   0  0  0  0  0  0  0  0  0  0  0  0
    3.9546    1.7728   19.3627 H   0  0  0  0  0  0  0  0  0  0  0  0
    5.4882    0.4667   20.1549 C   0  0  0  0  0  0  0  0  0  0  0  0
    5.0744    0.4058   21.1605 H   0  0  0  0  0  0  0  0  0  0  0  0
  1  2  1  0
  2  3  2  0
  3  4  2  0
  4  5  1  0
  5  6  2  0
  6  7  1  0
  6  8  1  0
  8  9  2  0
  9 10  1  0
  9 11  1  0
 11 12  1  0
 12 13  2  0
 13 14  1  0
 13 15  1  0
 15 16  2  0
 16 17  1  0
 16 18  1  0
 18 19  1  0
 18 20  2  0
 20 21  1  0
 11  5  1  0
 20 12  1  0
M  CHG  1   3   1
M  END
>  <cnnaffinity>  (1) 
-4.12739

>  <filename>  (1) 
N=[N+]=Nc1cncn1-c1cccnc1

$$$$
