
     RDKit          3D

 22 23  0  0  0  0  0  0  0  0999 V2000
    3.5331   -2.5971   23.7556 H   0  0  0  0  0  0  0  0  0  0  0  0
    4.2091   -3.1937   24.2535 N   0  0  0  0  0  0  0  0  0  0  0  0
    5.3411   -2.8447   23.9983 N   0  0  0  0  0  4  0  0  0  0  0  0
    6.5276   -2.6734   23.9693 N   0  0  0  0  0  0  0  0  0  0  0  0
    7.1834   -1.9678   22.9393 C   0  0  0  0  0  0  0  0  0  0  0  0
    6.5420   -1.3289   21.9517 N   0  0  0  0  0  0  0  0  0  0  0  0
    7.3247   -0.7338   21.0077 C   0  0  0  0  0  0  0  0  0  0  0  0
    6.6234   -0.0039   19.9191 C   0  0  0  0  0  0  0  0  0  0  0  0
    7.1551    0.0386   18.6206 C   0  0  0  0  0  0  0  0  0  0  0  0
    8.1011   -0.4529   18.3850 H   0  0  0  0  0  0  0  0  0  0  0  0
    6.5636    0.6584   17.5982 N   0  0  0  0  0  0  0  0  0  0  0  0
    5.4073    1.2937   17.8407 C   0  0  0  0  0  0  0  0  0  0  0  0
    4.9535    1.7964   16.9898 H   0  0  0  0  0  0  0  0  0  0  0  0
    4.7967    1.3235   19.0980 C   0  0  0  0  0  0  0  0  0  0  0  0
    3.8659    1.8628   19.2318 H   0  0  0  0  0  0  0  0  0  0  0  0
    5.4090    0.6602   20.1557 C   0  0  0  0  0  0  0  0  0  0  0  0
    4.9713    0.6362   21.1547 H   0  0  0  0  0  0  0  0  0  0  0  0
    8.7341   -0.8088   21.1061 C   0  0  0  0  0  0  0  0  0  0  0  0
    9.3925   -0.3345   20.3911 H   0  0  0  0  0  0  0  0  0  0  0  0
    9.3675   -1.4596   22.1274 N   0  0  0  0  0  0  0  0  0  0  0  0
    8.5926   -2.0311   23.0434 C   0  0  0  0  0  0  0  0  0  0  0  0
    9.0368   -2.5713   23.8816 H   0  0  0  0  0  0  0  0  0  0  0  0
  1  2  1  0
  2  3  2  0
  3  4  2  0
  4  5  1  0
  5  6  2  0
  6  7  1  0
  7  8  1  0
  8  9  2  0
  9 10  1  0
  9 11  1  0
 11 12  2  0
 12 13  1  0
 12 14  1  0
 14 15  1  0
 14 16  2  0
 16 17  1  0
  7 18  2  0
 18 19  1  0
 18 20  1  0
 20 21  2  0
 21 22  1  0
 21  5  1  0
 16  8  1  0
M  CHG  1   3   1
M  END
>  <cnnaffinity>  (1) 
-4.37485

>  <filename>  (1) 
N=[N+]=Nc1cncc(-c2cccnc2)n1

$$$$
