
     RDKit          3D

 24 25  0  0  0  0  0  0  0  0999 V2000
   10.1177    1.6150   21.3126 H   0  0  0  0  0  0  0  0  0  0  0  0
    9.6563    0.7623   20.9708 N   0  0  0  0  0  0  0  0  0  0  0  0
    8.5860    0.5992   21.6411 C   0  0  0  0  0  0  0  0  0  0  0  0
    7.5604   -0.8077   21.2094 S   0  0  0  0  0  0  0  0  0  0  0  0
    6.6359   -0.0189   19.8885 C   0  0  0  0  0  0  0  0  0  0  0  0
    7.1650    0.0486   18.5852 C   0  0  0  0  0  0  0  0  0  0  0  0
    8.1220   -0.4282   18.3748 H   0  0  0  0  0  0  0  0  0  0  0  0
    6.5603    0.6809   17.5723 N   0  0  0  0  0  0  0  0  0  0  0  0
    5.3959    1.2955   17.8360 C   0  0  0  0  0  0  0  0  0  0  0  0
    4.9107    1.7831   16.9941 H   0  0  0  0  0  0  0  0  0  0  0  0
    4.7998    1.3128   19.1006 C   0  0  0  0  0  0  0  0  0  0  0  0
    3.8701    1.8477   19.2596 H   0  0  0  0  0  0  0  0  0  0  0  0
    5.4319    0.6417   20.1501 C   0  0  0  0  0  0  0  0  0  0  0  0
    5.0073    0.6315   21.1566 H   0  0  0  0  0  0  0  0  0  0  0  0
    7.9684    1.5289   22.7145 C   0  0  0  0  0  0  0  0  0  0  0  0
    8.5588    2.6291   22.9935 N   0  0  0  0  0  0  0  0  0  0  0  0
    7.8031    3.2975   24.0474 C   0  0  0  0  0  0  0  0  0  0  0  0
    8.4577    3.4501   24.9105 H   0  0  0  0  0  0  0  0  0  0  0  0
    7.4868    4.2842   23.6962 H   0  0  0  0  0  0  0  0  0  0  0  0
    6.5998    2.3832   24.3827 C   0  0  0  0  0  0  0  0  0  0  0  0
    6.6319    2.0374   25.4256 H   0  0  0  0  0  0  0  0  0  0  0  0
    5.6423    2.8882   24.1975 H   0  0  0  0  0  0  0  0  0  0  0  0
    6.8144    1.2950   23.4413 N   0  0  0  0  0  0  0  0  0  0  0  0
    6.2495    0.4634   23.4004 H   0  0  0  0  0  0  0  0  0  0  0  0
  1  2  1  0
  2  3  2  3
  3  4  1  0
  4  5  1  0
  5  6  2  0
  6  7  1  0
  6  8  1  0
  8  9  2  0
  9 10  1  0
  9 11  1  0
 11 12  1  0
 11 13  2  0
 13 14  1  0
  3 15  1  0
 15 16  2  0
 16 17  1  0
 17 18  1  0
 17 19  1  0
 17 20  1  0
 20 21  1  0
 20 22  1  0
 20 23  1  0
 23 24  1  0
 13  5  1  0
 23 15  1  0
M  END
>  <cnnaffinity>  (1) 
-3.92071

>  <filename>  (1) 
N=C(Sc1cccnc1)C1=NCCN1

$$$$
