
     RDKit          3D

 27 28  0  0  0  0  0  0  0  0999 V2000
    8.7668   -1.9456   21.4402 H   0  0  0  0  0  0  0  0  0  0  0  0
    8.3452   -1.5347   20.6138 N   0  0  0  0  0  0  0  0  0  0  0  0
    7.4226   -0.7417   20.9464 C   0  0  0  0  0  0  0  0  0  0  0  0
    7.0669   -0.3821   22.6782 S   0  0  0  0  0  0  0  0  0  0  0  0
    8.2093    0.9917   22.7853 C   0  0  0  0  0  0  0  0  0  0  0  0
    9.4621    0.6863   23.0811 N   0  0  0  0  0  0  0  0  0  0  0  0
   10.3609    1.6884   23.1746 C   0  0  0  0  0  0  0  0  0  0  0  0
   11.8251    1.3462   23.5465 C   0  0  0  0  0  0  0  0  0  0  0  0
   12.2056    2.0222   24.6528 F   0  0  0  0  0  0  0  0  0  0  0  0
   12.0428    0.0509   23.7727 F   0  0  0  0  0  0  0  0  0  0  0  0
   12.6705    1.7380   22.5679 F   0  0  0  0  0  0  0  0  0  0  0  0
   10.0249    3.0277   22.9282 C   0  0  0  0  0  0  0  0  0  0  0  0
   10.7767    3.8080   22.9845 H   0  0  0  0  0  0  0  0  0  0  0  0
    8.7047    3.3388   22.5915 C   0  0  0  0  0  0  0  0  0  0  0  0
    8.4073    4.3681   22.3824 H   0  0  0  0  0  0  0  0  0  0  0  0
    7.7774    2.3012   22.5265 C   0  0  0  0  0  0  0  0  0  0  0  0
    6.7411    2.4775   22.2695 H   0  0  0  0  0  0  0  0  0  0  0  0
    6.6588    0.0021   19.9276 C   0  0  0  0  0  0  0  0  0  0  0  0
    7.1787    0.0491   18.6223 C   0  0  0  0  0  0  0  0  0  0  0  0
    8.1203   -0.4322   18.3843 H   0  0  0  0  0  0  0  0  0  0  0  0
    6.5744    0.6680   17.6046 N   0  0  0  0  0  0  0  0  0  0  0  0
    5.4107    1.2850   17.8522 C   0  0  0  0  0  0  0  0  0  0  0  0
    4.9309    1.7727   17.0044 H   0  0  0  0  0  0  0  0  0  0  0  0
    4.8125    1.3062   19.1145 C   0  0  0  0  0  0  0  0  0  0  0  0
    3.8804    1.8366   19.2602 H   0  0  0  0  0  0  0  0  0  0  0  0
    5.4410    0.6516   20.1711 C   0  0  0  0  0  0  0  0  0  0  0  0
    4.9871    0.6355   21.1627 H   0  0  0  0  0  0  0  0  0  0  0  0
  1  2  1  0
  2  3  2  3
  3  4  1  0
  4  5  1  0
  5  6  2  0
  6  7  1  0
  7  8  1  0
  8  9  1  0
  8 10  1  0
  8 11  1  0
  7 12  2  0
 12 13  1  0
 12 14  1  0
 14 15  1  0
 14 16  2  0
 16 17  1  0
  3 18  1  0
 18 19  2  0
 19 20  1  0
 19 21  1  0
 21 22  2  0
 22 23  1  0
 22 24  1  0
 24 25  1  0
 24 26  2  0
 26 27  1  0
 16  5  1  0
 26 18  1  0
M  END
>  <cnnaffinity>  (1) 
-5.23617

>  <filename>  (1) 
N=C(Sc1cccc(C(F)(F)F)n1)c1cccnc1

$$$$
