
     RDKit          3D

 30 31  0  0  0  0  0  0  0  0999 V2000
    9.0533    0.1167   20.5020 H   0  0  0  0  0  0  0  0  0  0  0  0
    8.6370   -0.4797   21.2053 N   0  0  0  0  0  0  0  0  0  0  0  0
    7.3867   -0.6060   21.0003 C   0  0  0  0  0  0  0  0  0  0  0  0
    6.6191    0.0323   19.9165 C   0  0  0  0  0  0  0  0  0  0  0  0
    7.1721    0.0009   18.6367 C   0  0  0  0  0  0  0  0  0  0  0  0
    8.0855   -0.5661   18.4532 H   0  0  0  0  0  0  0  0  0  0  0  0
    6.6194    0.5926   17.5753 N   0  0  0  0  0  0  0  0  0  0  0  0
    5.4684    1.2527   17.7732 C   0  0  0  0  0  0  0  0  0  0  0  0
    5.0507    1.7402   16.8960 H   0  0  0  0  0  0  0  0  0  0  0  0
    4.8116    1.3167   19.0095 C   0  0  0  0  0  0  0  0  0  0  0  0
    3.8729    1.8567   19.0881 H   0  0  0  0  0  0  0  0  0  0  0  0
    5.3868    0.6839   20.1084 C   0  0  0  0  0  0  0  0  0  0  0  0
    4.9012    0.7073   21.0892 H   0  0  0  0  0  0  0  0  0  0  0  0
    6.6317   -1.4041   21.8122 N   0  0  0  0  0  0  0  0  0  0  0  0
    5.7771   -1.7772   21.4492 H   0  0  0  0  0  0  0  0  0  0  0  0
    6.9645   -1.9520   23.0302 C   0  0  0  0  0  0  0  0  0  0  0  0
    6.1572   -3.3095   23.5122 S   0  0  0  0  0  0  0  0  0  0  0  0
    7.9190   -1.2553   23.6632 N   0  0  0  0  0  0  0  0  0  0  0  0
    8.5107   -0.7714   22.9902 H   0  0  0  0  0  0  0  0  0  0  0  0
    8.2103   -1.0989   25.0290 C   0  0  0  0  0  0  0  0  0  0  0  0
    9.4883   -0.6198   25.3586 C   0  0  0  0  0  0  0  0  0  0  0  0
   10.2114   -0.4099   24.5744 H   0  0  0  0  0  0  0  0  0  0  0  0
    9.8237   -0.3891   26.6928 C   0  0  0  0  0  0  0  0  0  0  0  0
   10.8153   -0.0249   26.9450 H   0  0  0  0  0  0  0  0  0  0  0  0
    8.8866   -0.6095   27.7046 C   0  0  0  0  0  0  0  0  0  0  0  0
    9.1549   -0.4138   28.7379 H   0  0  0  0  0  0  0  0  0  0  0  0
    7.6060   -1.0607   27.3681 C   0  0  0  0  0  0  0  0  0  0  0  0
    6.8443   -1.2102   28.1261 H   0  0  0  0  0  0  0  0  0  0  0  0
    7.2645   -1.3187   26.0367 C   0  0  0  0  0  0  0  0  0  0  0  0
    6.2771   -1.6843   25.7774 H   0  0  0  0  0  0  0  0  0  0  0  0
  1  2  1  0
  2  3  2  3
  3  4  1  0
  4  5  2  0
  5  6  1  0
  5  7  1  0
  7  8  2  0
  8  9  1  0
  8 10  1  0
 10 11  1  0
 10 12  2  0
 12 13  1  0
  3 14  1  0
 14 15  1  0
 14 16  1  0
 16 17  2  0
 16 18  1  0
 18 19  1  0
 18 20  1  0
 20 21  2  0
 21 22  1  0
 21 23  1  0
 23 24  1  0
 23 25  2  0
 25 26  1  0
 25 27  1  0
 27 28  1  0
 27 29  2  0
 29 30  1  0
 12  4  1  0
 29 20  1  0
M  END
>  <cnnaffinity>  (1) 
-4.84831

>  <filename>  (1) 
N=C(NC(=S)Nc1ccccc1)c1cccnc1

$$$$
