
     RDKit          3D

 33 34  0  0  0  0  0  0  0  0999 V2000
    9.3077   -1.4816   21.1525 H   0  0  0  0  0  0  0  0  0  0  0  0
    8.8287   -0.9710   20.4191 N   0  0  0  0  0  0  0  0  0  0  0  0
    7.6297   -0.6809   20.7208 C   0  0  0  0  0  0  0  0  0  0  0  0
    6.8758   -1.0119   22.3791 S   0  0  0  0  0  0  0  0  0  0  0  0
    5.8409   -2.4413   22.3108 N   0  0  0  0  0  0  0  0  0  0  0  0
    4.8852   -2.0859   22.2861 H   0  0  0  0  0  0  0  0  0  0  0  0
    5.9527   -3.4157   23.4195 C   0  0  0  0  0  0  0  0  0  0  0  0
    5.3187   -4.2780   23.1414 H   0  0  0  0  0  0  0  0  0  0  0  0
    5.4433   -2.9072   24.7918 C   0  0  0  0  0  0  0  0  0  0  0  0
    6.0218   -2.0125   25.0668 H   0  0  0  0  0  0  0  0  0  0  0  0
    4.3964   -2.5849   24.7082 H   0  0  0  0  0  0  0  0  0  0  0  0
    5.6010   -3.9797   25.8873 C   0  0  0  0  0  0  0  0  0  0  0  0
    5.3071   -3.5663   26.8625 H   0  0  0  0  0  0  0  0  0  0  0  0
    4.9156   -4.8176   25.6801 H   0  0  0  0  0  0  0  0  0  0  0  0
    7.0514   -4.4988   25.9544 C   0  0  0  0  0  0  0  0  0  0  0  0
    7.1417   -5.2939   26.7052 H   0  0  0  0  0  0  0  0  0  0  0  0
    7.7016   -3.6750   26.2919 H   0  0  0  0  0  0  0  0  0  0  0  0
    7.5562   -4.9964   24.5859 C   0  0  0  0  0  0  0  0  0  0  0  0
    8.6088   -5.3013   24.6533 H   0  0  0  0  0  0  0  0  0  0  0  0
    6.9855   -5.8868   24.2778 H   0  0  0  0  0  0  0  0  0  0  0  0
    7.3983   -3.9037   23.5213 C   0  0  0  0  0  0  0  0  0  0  0  0
    7.7143   -4.2347   22.5281 H   0  0  0  0  0  0  0  0  0  0  0  0
    8.0331   -3.0435   23.7860 H   0  0  0  0  0  0  0  0  0  0  0  0
    6.7857    0.0551   19.7520 C   0  0  0  0  0  0  0  0  0  0  0  0
    7.2419    0.1122   18.4240 C   0  0  0  0  0  0  0  0  0  0  0  0
    8.1724   -0.3695   18.1601 H   0  0  0  0  0  0  0  0  0  0  0  0
    6.5867    0.7226   17.4338 N   0  0  0  0  0  0  0  0  0  0  0  0
    5.4299    1.3189   17.7414 C   0  0  0  0  0  0  0  0  0  0  0  0
    4.9242    1.8188   16.9164 H   0  0  0  0  0  0  0  0  0  0  0  0
    4.8770    1.3106   19.0239 C   0  0  0  0  0  0  0  0  0  0  0  0
    3.9257    1.7968   19.1969 H   0  0  0  0  0  0  0  0  0  0  0  0
    5.5699    0.6813   20.0594 C   0  0  0  0  0  0  0  0  0  0  0  0
    5.1745    0.7029   21.0770 H   0  0  0  0  0  0  0  0  0  0  0  0
  1  2  1  0
  2  3  2  3
  3  4  1  0
  4  5  1  0
  5  6  1  0
  5  7  1  0
  7  8  1  0
  7  9  1  0
  9 10  1  0
  9 11  1  0
  9 12  1  0
 12 13  1  0
 12 14  1  0
 12 15  1  0
 15 16  1  0
 15 17  1  0
 15 18  1  0
 18 19  1  0
 18 20  1  0
 18 21  1  0
 21 22  1  0
 21 23  1  0
  3 24  1  0
 24 25  2  0
 25 26  1  0
 25 27  1  0
 27 28  2  0
 28 29  1  0
 28 30  1  0
 30 31  1  0
 30 32  2  0
 32 33  1  0
 21  7  1  0
 32 24  1  0
M  END
>  <cnnaffinity>  (1) 
-4.53213

>  <filename>  (1) 
N=C(SNC1CCCCC1)c1cccnc1

$$$$
