
     RDKit          3D

 30 31  0  0  0  0  0  0  0  0999 V2000
    9.3608   -1.2379   21.2451 H   0  0  0  0  0  0  0  0  0  0  0  0
    8.8410   -0.7776   20.5070 N   0  0  0  0  0  0  0  0  0  0  0  0
    7.6130   -0.5888   20.7735 C   0  0  0  0  0  0  0  0  0  0  0  0
    6.8364   -1.0290   22.3963 S   0  0  0  0  0  0  0  0  0  0  0  0
    5.8820   -2.4786   22.1919 N   0  0  0  0  0  0  0  0  0  0  0  0
    4.9407   -2.3111   22.5540 H   0  0  0  0  0  0  0  0  0  0  0  0
    6.4410   -3.6953   22.7862 C   0  0  0  0  0  0  0  0  0  0  0  0
    7.5210   -3.6865   22.5833 H   0  0  0  0  0  0  0  0  0  0  0  0
    6.1993   -3.8451   24.3003 C   0  0  0  0  0  0  0  0  0  0  0  0
    6.9040   -3.2321   24.8708 H   0  0  0  0  0  0  0  0  0  0  0  0
    5.1855   -3.4877   24.5394 H   0  0  0  0  0  0  0  0  0  0  0  0
    6.3020   -5.3604   24.6017 C   0  0  0  0  0  0  0  0  0  0  0  0
    7.2559   -5.6115   25.0827 H   0  0  0  0  0  0  0  0  0  0  0  0
    5.5044   -5.6664   25.2910 H   0  0  0  0  0  0  0  0  0  0  0  0
    6.1852   -6.0803   23.2283 C   0  0  0  0  0  0  0  0  0  0  0  0
    5.4315   -6.8780   23.2424 H   0  0  0  0  0  0  0  0  0  0  0  0
    7.1453   -6.5506   22.9734 H   0  0  0  0  0  0  0  0  0  0  0  0
    5.8388   -4.9776   22.2034 C   0  0  0  0  0  0  0  0  0  0  0  0
    6.2391   -5.1796   21.2036 H   0  0  0  0  0  0  0  0  0  0  0  0
    4.7495   -4.8603   22.1108 H   0  0  0  0  0  0  0  0  0  0  0  0
    6.7613    0.0987   19.7723 C   0  0  0  0  0  0  0  0  0  0  0  0
    7.2368    0.1371   18.4441 C   0  0  0  0  0  0  0  0  0  0  0  0
    8.1716   -0.3509   18.2044 H   0  0  0  0  0  0  0  0  0  0  0  0
    6.5949    0.7281   17.4376 N   0  0  0  0  0  0  0  0  0  0  0  0
    5.4299    1.3252   17.7236 C   0  0  0  0  0  0  0  0  0  0  0  0
    4.9361    1.8111   16.8877 H   0  0  0  0  0  0  0  0  0  0  0  0
    4.8580    1.3322   19.0025 C   0  0  0  0  0  0  0  0  0  0  0  0
    3.9012    1.8238   19.1512 H   0  0  0  0  0  0  0  0  0  0  0  0
    5.5371    0.7219   20.0542 C   0  0  0  0  0  0  0  0  0  0  0  0
    5.1298    0.7491   21.0703 H   0  0  0  0  0  0  0  0  0  0  0  0
  1  2  1  0
  2  3  2  3
  3  4  1  0
  4  5  1  0
  5  6  1  0
  5  7  1  0
  7  8  1  0
  7  9  1  0
  9 10  1  0
  9 11  1  0
  9 12  1  0
 12 13  1  0
 12 14  1  0
 12 15  1  0
 15 16  1  0
 15 17  1  0
 15 18  1  0
 18 19  1  0
 18 20  1  0
  3 21  1  0
 21 22  2  0
 22 23  1  0
 22 24  1  0
 24 25  2  0
 25 26  1  0
 25 27  1  0
 27 28  1  0
 27 29  2  0
 29 30  1  0
 18  7  1  0
 29 21  1  0
M  END
>  <cnnaffinity>  (1) 
-4.29759

>  <filename>  (1) 
N=C(SNC1CCCC1)c1cccnc1

$$$$
