
     RDKit          3D

 26 27  0  0  0  0  0  0  0  0999 V2000
    7.0806   -3.9188   19.7708 H   0  0  0  0  0  0  0  0  0  0  0  0
    6.9058   -2.9857   20.3786 N   0  0  0  0  0  0  0  0  0  0  0  0
    6.9058   -2.9855   20.3786 C   0  0  0  0  0  0  0  0  0  0  0  0
    7.8023   -0.4441   21.0181 S   0  0  0  0  0  0  0  0  0  0  0  0
    6.8433    0.3100   19.8626 C   0  0  0  0  0  0  0  0  0  0  0  0
    7.2522    0.3286   18.4777 C   0  0  0  0  0  0  0  0  0  0  0  0
    8.1935   -0.1676   18.2484 H   0  0  0  0  0  0  0  0  0  0  0  0
    6.5458    0.8447   17.4760 N   0  0  0  0  0  0  0  0  0  0  0  0
    5.3571    1.3880   17.7716 C   0  0  0  0  0  0  0  0  0  0  0  0
    4.7959    1.7815   16.9204 H   0  0  0  0  0  0  0  0  0  0  0  0
    4.8175    1.4115   19.0644 C   0  0  0  0  0  0  0  0  0  0  0  0
    3.8220    1.8044   19.2252 H   0  0  0  0  0  0  0  0  0  0  0  0
    5.5586    0.8755   20.1125 C   0  0  0  0  0  0  0  0  0  0  0  0
    5.1799    0.8411   21.1324 H   0  0  0  0  0  0  0  0  0  0  0  0
    6.0371   -3.6929   21.4743 C   0  0  2  0  0  0  0  0  0  0  0  0
    5.1374   -4.0692   20.9717 H   0  0  0  0  0  0  0  0  0  0  0  0
    5.5655   -2.7355   22.5549 C   0  0  0  0  0  0  0  0  0  0  0  0
    4.5139   -2.9877   22.8861 H   0  0  0  0  0  0  0  0  0  0  0  0
    5.5540   -1.6961   22.1799 H   0  0  0  0  0  0  0  0  0  0  0  0
    6.5045   -2.8127   23.6176 O   0  0  0  0  0  0  0  0  0  0  0  0
    6.9666   -4.1545   23.6959 C   0  0  0  0  0  0  0  0  0  0  0  0
    8.0632   -4.1905   23.7811 H   0  0  0  0  0  0  0  0  0  0  0  0
    6.5429   -4.6144   24.5982 H   0  0  0  0  0  0  0  0  0  0  0  0
    6.5191   -4.8516   22.3895 C   0  0  0  0  0  0  0  0  0  0  0  0
    5.6051   -5.4220   22.5967 H   0  0  0  0  0  0  0  0  0  0  0  0
    7.1907   -5.6151   22.0095 H   0  0  0  0  0  0  0  0  0  0  0  0
  1  2  1  0
  2  3  2  3
  3  4  1  0
  4  5  1  0
  5  6  2  0
  6  7  1  0
  6  8  1  0
  8  9  2  0
  9 10  1  0
  9 11  1  0
 11 12  1  0
 11 13  2  0
 13 14  1  0
  3 15  1  0
 15 16  1  6
 15 17  1  0
 17 18  1  0
 17 19  1  0
 17 20  1  0
 20 21  1  0
 21 22  1  0
 21 23  1  0
 21 24  1  0
 24 25  1  0
 24 26  1  0
 13  5  1  0
 24 15  1  0
M  END
>  <cnnaffinity>  (1) 
-3.39721

>  <filename>  (1) 
N=C(Sc1cccnc1)[C@H]1CCOC1

$$$$
