
     RDKit          3D

 26 27  0  0  0  0  0  0  0  0999 V2000
    8.8348   -1.7727   21.5210 H   0  0  0  0  0  0  0  0  0  0  0  0
    8.4325   -1.3812   20.6703 N   0  0  0  0  0  0  0  0  0  0  0  0
    7.4218   -0.6883   20.9680 C   0  0  0  0  0  0  0  0  0  0  0  0
    6.9833   -0.4411   22.6868 S   0  0  0  0  0  0  0  0  0  0  0  0
    8.0578    0.9625   22.7913 C   0  0  0  0  0  0  0  0  0  0  0  0
    7.5025    2.1440   22.5361 N   0  0  0  0  0  0  0  0  0  0  0  0
    8.2943    3.2088   22.7049 C   0  0  0  0  0  0  0  0  0  0  0  0
    7.8493    4.1845   22.5202 H   0  0  0  0  0  0  0  0  0  0  0  0
    9.6253    3.1040   23.1033 C   0  0  0  0  0  0  0  0  0  0  0  0
   10.2502    3.9809   23.2098 H   0  0  0  0  0  0  0  0  0  0  0  0
   10.1097    1.8088   23.3127 C   0  0  0  0  0  0  0  0  0  0  0  0
   11.5872    1.5854   23.7615 C   0  0  0  0  0  0  0  0  0  0  0  0
   12.4505    2.0566   22.8373 F   0  0  0  0  0  0  0  0  0  0  0  0
   11.9117    0.3095   23.9831 F   0  0  0  0  0  0  0  0  0  0  0  0
   11.8604    2.2548   24.9004 F   0  0  0  0  0  0  0  0  0  0  0  0
    9.3194    0.7335   23.1070 N   0  0  0  0  0  0  0  0  0  0  0  0
    6.6601    0.0390   19.9388 C   0  0  0  0  0  0  0  0  0  0  0  0
    7.1840    0.0470   18.6335 C   0  0  0  0  0  0  0  0  0  0  0  0
    8.1252   -0.4524   18.4241 H   0  0  0  0  0  0  0  0  0  0  0  0
    6.5831    0.6477   17.6045 N   0  0  0  0  0  0  0  0  0  0  0  0
    5.4240    1.2766   17.8502 C   0  0  0  0  0  0  0  0  0  0  0  0
    4.9714    1.7802   16.9995 H   0  0  0  0  0  0  0  0  0  0  0  0
    4.8066    1.3116   19.1052 C   0  0  0  0  0  0  0  0  0  0  0  0
    3.8653    1.8404   19.2376 H   0  0  0  0  0  0  0  0  0  0  0  0
    5.4382    0.6846   20.1778 C   0  0  0  0  0  0  0  0  0  0  0  0
    4.9944    0.6982   21.1751 H   0  0  0  0  0  0  0  0  0  0  0  0
  1  2  1  0
  2  3  2  3
  3  4  1  0
  4  5  1  0
  5  6  2  0
  6  7  1  0
  7  8  1  0
  7  9  2  0
  9 10  1  0
  9 11  1  0
 11 12  1  0
 12 13  1  0
 12 14  1  0
 12 15  1  0
 11 16  2  0
  3 17  1  0
 17 18  2  0
 18 19  1  0
 18 20  1  0
 20 21  2  0
 21 22  1  0
 21 23  1  0
 23 24  1  0
 23 25  2  0
 25 26  1  0
 16  5  1  0
 25 17  1  0
M  END
>  <cnnaffinity>  (1) 
-5.20289

>  <filename>  (1) 
N=C(Sc1nccc(C(F)(F)F)n1)c1cccnc1

$$$$
