
     RDKit          3D

 26 27  0  0  0  0  0  0  0  0999 V2000
    7.8635   -2.1309   19.8145 H   0  0  0  0  0  0  0  0  0  0  0  0
    8.0097   -1.8260   20.7783 N   0  0  0  0  0  0  0  0  0  0  0  0
    7.4297   -0.7097   20.9603 C   0  0  0  0  0  0  0  0  0  0  0  0
    7.4683   -0.0617   22.3622 C   0  0  0  0  0  0  0  0  0  0  0  0
    7.6956    1.2644   22.3803 N   0  0  0  0  0  0  0  0  0  0  0  0
    7.8168    1.8803   23.5525 C   0  0  0  0  0  0  0  0  0  0  0  0
    8.0021    2.9494   23.5049 H   0  0  0  0  0  0  0  0  0  0  0  0
    7.7141    1.2206   24.7769 C   0  0  0  0  0  0  0  0  0  0  0  0
    7.8314    1.7717   25.7015 H   0  0  0  0  0  0  0  0  0  0  0  0
    7.4462   -0.1404   24.7848 C   0  0  0  0  0  0  0  0  0  0  0  0
    7.3572   -0.6891   25.7261 H   0  0  0  0  0  0  0  0  0  0  0  0
    7.2900   -0.7991   23.5568 C   0  0  0  0  0  0  0  0  0  0  0  0
    6.9611   -2.2825   23.5434 C   0  0  0  0  0  0  0  0  0  0  0  0
    6.0233   -2.5878   22.6299 F   0  0  0  0  0  0  0  0  0  0  0  0
    6.4936   -2.6977   24.7390 F   0  0  0  0  0  0  0  0  0  0  0  0
    8.0374   -3.0350   23.2750 F   0  0  0  0  0  0  0  0  0  0  0  0
    6.6479   -0.0272   19.8818 C   0  0  0  0  0  0  0  0  0  0  0  0
    7.1627    0.0336   18.5776 C   0  0  0  0  0  0  0  0  0  0  0  0
    8.1289   -0.4094   18.3401 H   0  0  0  0  0  0  0  0  0  0  0  0
    6.5665    0.6770   17.5678 N   0  0  0  0  0  0  0  0  0  0  0  0
    5.4016    1.2898   17.8318 C   0  0  0  0  0  0  0  0  0  0  0  0
    4.9244    1.7867   16.9893 H   0  0  0  0  0  0  0  0  0  0  0  0
    4.7989    1.2993   19.0943 C   0  0  0  0  0  0  0  0  0  0  0  0
    3.8727    1.8447   19.2465 H   0  0  0  0  0  0  0  0  0  0  0  0
    5.4286    0.6306   20.1425 C   0  0  0  0  0  0  0  0  0  0  0  0
    5.0073    0.6448   21.1547 H   0  0  0  0  0  0  0  0  0  0  0  0
  1  2  1  0
  2  3  2  3
  3  4  1  0
  4  5  2  0
  5  6  1  0
  6  7  1  0
  6  8  2  0
  8  9  1  0
  8 10  1  0
 10 11  1  0
 10 12  2  0
 12 13  1  0
 13 14  1  0
 13 15  1  0
 13 16  1  0
  3 17  1  0
 17 18  2  0
 18 19  1  0
 18 20  1  0
 20 21  2  0
 21 22  1  0
 21 23  1  0
 23 24  1  0
 23 25  2  0
 25 26  1  0
 12  4  1  0
 25 17  1  0
M  END
>  <cnnaffinity>  (1) 
-4.82534

>  <filename>  (1) 
N=C(c1cccnc1)c1ncccc1C(F)(F)F

$$$$
