
     RDKit          3D

 31 33  0  0  0  0  0  0  0  0999 V2000
    5.4565   -3.2482   21.6346 H   0  0  0  0  0  0  0  0  0  0  0  0
    5.6567   -2.4185   21.0867 N   0  0  0  0  0  0  0  0  0  0  0  0
    6.7769   -1.9564   21.4693 C   0  0  0  0  0  0  0  0  0  0  0  0
    7.8695   -2.6200   22.7147 S   0  0  0  0  0  0  0  0  0  0  0  0
    9.0278   -1.3578   22.4297 C   0  0  0  0  0  0  0  0  0  0  0  0
    9.9488   -1.3165   22.9981 H   0  0  0  0  0  0  0  0  0  0  0  0
    8.6204   -0.5026   21.4783 C   0  0  0  0  0  0  0  0  0  0  0  0
    9.2675    0.7939   21.0963 C   0  0  1  0  0  0  0  0  0  0  0  0
    9.5015    0.7517   20.0246 H   0  0  0  0  0  0  0  0  0  0  0  0
    8.3302    2.0010   21.3491 C   0  0  0  0  0  0  0  0  0  0  0  0
    7.5985    1.7241   22.1235 H   0  0  0  0  0  0  0  0  0  0  0  0
    7.7649    2.2339   20.4387 H   0  0  0  0  0  0  0  0  0  0  0  0
    9.1933    3.0824   21.8026 N   0  0  0  0  0  0  0  0  0  0  0  0
    8.9966    3.9743   21.3582 H   0  0  0  0  0  0  0  0  0  0  0  0
   10.5936    2.6883   21.6695 C   0  0  0  0  0  0  0  0  0  0  0  0
   11.0236    2.9019   20.6743 H   0  0  0  0  0  0  0  0  0  0  0  0
   11.1997    3.2063   22.4222 H   0  0  0  0  0  0  0  0  0  0  0  0
   10.5426    1.1845   21.8667 C   0  0  0  0  0  0  0  0  0  0  0  0
   10.4438    0.9674   22.9360 H   0  0  0  0  0  0  0  0  0  0  0  0
   11.4442    0.6790   21.5125 H   0  0  0  0  0  0  0  0  0  0  0  0
    7.3654   -0.8233   20.9093 N   0  0  0  0  0  0  0  0  0  0  0  0
    6.6826   -0.0769   19.8650 C   0  0  0  0  0  0  0  0  0  0  0  0
    7.1884    0.0183   18.5462 C   0  0  0  0  0  0  0  0  0  0  0  0
    8.1262   -0.4765   18.2943 H   0  0  0  0  0  0  0  0  0  0  0  0
    6.5787    0.6745   17.5446 N   0  0  0  0  0  0  0  0  0  0  0  0
    5.4258    1.3036   17.8270 C   0  0  0  0  0  0  0  0  0  0  0  0
    4.9473    1.8369   17.0062 H   0  0  0  0  0  0  0  0  0  0  0  0
    4.8445    1.2893   19.0984 C   0  0  0  0  0  0  0  0  0  0  0  0
    3.9156    1.8236   19.2629 H   0  0  0  0  0  0  0  0  0  0  0  0
    5.4728    0.5834   20.1343 C   0  0  0  0  0  0  0  0  0  0  0  0
    5.0476    0.5341   21.1369 H   0  0  0  0  0  0  0  0  0  0  0  0
  1  2  1  0
  2  3  2  3
  3  4  1  0
  4  5  1  0
  5  6  1  0
  5  7  2  0
  7  8  1  0
  8  9  1  6
  8 10  1  0
 10 11  1  0
 10 12  1  0
 10 13  1  0
 13 14  1  0
 13 15  1  0
 15 16  1  0
 15 17  1  0
 15 18  1  0
 18 19  1  0
 18 20  1  0
  7 21  1  0
 21 22  1  0
 22 23  2  0
 23 24  1  0
 23 25  1  0
 25 26  2  0
 26 27  1  0
 26 28  1  0
 28 29  1  0
 28 30  2  0
 30 31  1  0
 21  3  1  0
 30 22  1  0
 18  8  1  0
M  END
>  <cnnaffinity>  (1) 
-5.14741

>  <filename>  (1) 
N=c1scc([C@@H]2CCNC2)n1-c1cccnc1

$$$$
