
     RDKit          3D

 33 35  0  0  0  0  0  0  0  0999 V2000
    9.1722   -1.4605   24.7390 H   0  0  0  0  0  0  0  0  0  0  0  0
    8.6941   -0.6892   24.2876 N   0  0  0  0  0  0  0  0  0  0  0  0
    8.3472   -0.9936   23.1052 C   0  0  0  0  0  0  0  0  0  0  0  0
    8.5452   -2.5505   22.2767 S   0  0  0  0  0  0  0  0  0  0  0  0
    7.6693   -1.9712   20.8977 C   0  0  0  0  0  0  0  0  0  0  0  0
    7.3040   -2.6513   20.1505 H   0  0  0  0  0  0  0  0  0  0  0  0
    7.3712   -0.6715   20.9848 C   0  0  0  0  0  0  0  0  0  0  0  0
    6.6644    0.0813   19.9282 C   0  0  0  0  0  0  0  0  0  0  0  0
    7.1665    0.0772   18.6125 C   0  0  0  0  0  0  0  0  0  0  0  0
    8.1130   -0.4149   18.3784 H   0  0  0  0  0  0  0  0  0  0  0  0
    6.5621    0.6760   17.5793 N   0  0  0  0  0  0  0  0  0  0  0  0
    5.3995    1.2997   17.8278 C   0  0  0  0  0  0  0  0  0  0  0  0
    4.9343    1.7961   16.9828 H   0  0  0  0  0  0  0  0  0  0  0  0
    4.7883    1.3360   19.0871 C   0  0  0  0  0  0  0  0  0  0  0  0
    3.8400    1.8460   19.2147 H   0  0  0  0  0  0  0  0  0  0  0  0
    5.4343    0.7226   20.1572 C   0  0  0  0  0  0  0  0  0  0  0  0
    5.0092    0.7074   21.1637 H   0  0  0  0  0  0  0  0  0  0  0  0
    7.7146   -0.1007   22.2243 N   0  0  0  0  0  0  0  0  0  0  0  0
    7.3377    1.2236   22.5622 C   0  0  0  0  0  0  0  0  0  0  0  0
    7.4634    1.9475   21.7526 H   0  0  0  0  0  0  0  0  0  0  0  0
    6.8293    1.5486   23.7530 C   0  0  0  0  0  0  0  0  0  0  0  0
    6.7480    0.7804   24.5144 H   0  0  0  0  0  0  0  0  0  0  0  0
    6.4180    2.9064   24.1346 C   0  0  0  0  0  0  0  0  0  0  0  0
    6.3138    3.2195   25.5036 C   0  0  0  0  0  0  0  0  0  0  0  0
    6.5229    2.4417   26.2352 H   0  0  0  0  0  0  0  0  0  0  0  0
    5.9877    4.5122   25.9186 C   0  0  0  0  0  0  0  0  0  0  0  0
    5.9338    4.7442   26.9796 H   0  0  0  0  0  0  0  0  0  0  0  0
    5.7409    5.5080   24.9638 C   0  0  0  0  0  0  0  0  0  0  0  0
    5.4855    6.5156   25.2804 H   0  0  0  0  0  0  0  0  0  0  0  0
    5.8262    5.2064   23.5998 C   0  0  0  0  0  0  0  0  0  0  0  0
    5.6412    5.9748   22.8524 H   0  0  0  0  0  0  0  0  0  0  0  0
    6.1651    3.9154   23.1872 C   0  0  0  0  0  0  0  0  0  0  0  0
    6.2348    3.6871   22.1271 H   0  0  0  0  0  0  0  0  0  0  0  0
  1  2  1  0
  2  3  2  3
  3  4  1  0
  4  5  1  0
  5  6  1  0
  5  7  2  0
  7  8  1  0
  8  9  2  0
  9 10  1  0
  9 11  1  0
 11 12  2  0
 12 13  1  0
 12 14  1  0
 14 15  1  0
 14 16  2  0
 16 17  1  0
  7 18  1  0
 18 19  1  0
 19 20  1  0
 19 21  2  3
 21 22  1  0
 21 23  1  0
 23 24  2  0
 24 25  1  0
 24 26  1  0
 26 27  1  0
 26 28  2  0
 28 29  1  0
 28 30  1  0
 30 31  1  0
 30 32  2  0
 32 33  1  0
 18  3  1  0
 32 23  1  0
 16  8  1  0
M  END
>  <cnnaffinity>  (1) 
-4.9682

>  <filename>  (1) 
N=c1scc(-c2cccnc2)n1C=Cc1ccccc1

$$$$
