
     RDKit          3D

 34 36  0  0  0  0  0  0  0  0999 V2000
    8.8603    0.0856   24.4626 H   0  0  0  0  0  0  0  0  0  0  0  0
    9.0679   -0.8750   24.1734 N   0  0  0  0  0  0  0  0  0  0  0  0
    8.5309   -1.0615   23.0412 C   0  0  0  0  0  0  0  0  0  0  0  0
    8.5553   -2.6416   22.2440 S   0  0  0  0  0  0  0  0  0  0  0  0
    7.6091   -2.0369   20.9287 C   0  0  0  0  0  0  0  0  0  0  0  0
    7.2018   -2.6792   20.1641 H   0  0  0  0  0  0  0  0  0  0  0  0
    7.3396   -0.7287   21.0168 C   0  0  0  0  0  0  0  0  0  0  0  0
    6.6412    0.0440   19.9612 C   0  0  0  0  0  0  0  0  0  0  0  0
    7.1768    0.0809   18.6586 C   0  0  0  0  0  0  0  0  0  0  0  0
    8.1359   -0.3926   18.4535 H   0  0  0  0  0  0  0  0  0  0  0  0
    6.5971    0.6931   17.6175 N   0  0  0  0  0  0  0  0  0  0  0  0
    5.4212    1.2995   17.8399 C   0  0  0  0  0  0  0  0  0  0  0  0
    4.9572    1.7718   16.9771 H   0  0  0  0  0  0  0  0  0  0  0  0
    4.7959    1.3357   19.0899 C   0  0  0  0  0  0  0  0  0  0  0  0
    3.8594    1.8681   19.2172 H   0  0  0  0  0  0  0  0  0  0  0  0
    5.4218    0.7111   20.1721 C   0  0  0  0  0  0  0  0  0  0  0  0
    4.9814    0.7561   21.1698 H   0  0  0  0  0  0  0  0  0  0  0  0
    7.8016   -0.1601   22.2143 N   0  0  0  0  0  0  0  0  0  0  0  0
    7.3663    1.2019   22.6729 N   0  0  0  0  0  0  0  0  0  0  0  0
    6.9128    1.6837   21.8894 H   0  0  0  0  0  0  0  0  0  0  0  0
    6.0907    1.6252   23.8076 S   0  0  0  0  0  0  0  0  0  0  0  0
    5.5163    0.4585   24.4382 O   0  0  0  0  0  0  0  0  0  0  0  0
    5.2932    2.5349   22.9963 O   0  0  0  0  0  0  0  0  0  0  0  0
    7.0492    2.4827   25.0377 C   0  0  0  0  0  0  0  0  0  0  0  0
    8.0435    3.3931   24.6433 C   0  0  0  0  0  0  0  0  0  0  0  0
    8.3870    3.4754   23.6115 H   0  0  0  0  0  0  0  0  0  0  0  0
    8.6219    4.2068   25.6129 C   0  0  0  0  0  0  0  0  0  0  0  0
    9.3600    4.9505   25.3326 H   0  0  0  0  0  0  0  0  0  0  0  0
    8.2534    4.0940   26.9522 C   0  0  0  0  0  0  0  0  0  0  0  0
    8.6744    4.8005   27.6525 H   0  0  0  0  0  0  0  0  0  0  0  0
    7.3376    3.1155   27.3540 C   0  0  0  0  0  0  0  0  0  0  0  0
    7.0795    2.9973   28.4036 H   0  0  0  0  0  0  0  0  0  0  0  0
    6.7443    2.2887   26.3998 C   0  0  0  0  0  0  0  0  0  0  0  0
    6.0609    1.5003   26.7191 H   0  0  0  0  0  0  0  0  0  0  0  0
  1  2  1  0
  2  3  2  3
  3  4  1  0
  4  5  1  0
  5  6  1  0
  5  7  2  0
  7  8  1  0
  8  9  2  0
  9 10  1  0
  9 11  1  0
 11 12  2  0
 12 13  1  0
 12 14  1  0
 14 15  1  0
 14 16  2  0
 16 17  1  0
  7 18  1  0
 18 19  1  0
 19 20  1  0
 19 21  1  0
 21 22  2  0
 21 23  2  0
 21 24  1  0
 24 25  2  0
 25 26  1  0
 25 27  1  0
 27 28  1  0
 27 29  2  0
 29 30  1  0
 29 31  1  0
 31 32  1  0
 31 33  2  0
 33 34  1  0
 18  3  1  0
 33 24  1  0
 16  8  1  0
M  END
>  <cnnaffinity>  (1) 
-4.93556

>  <filename>  (1) 
N=c1scc(-c2cccnc2)n1NS(=O)(=O)c1ccccc1

$$$$
