
     RDKit          3D

 26 27  0  0  0  0  0  0  0  0999 V2000
    5.0285    1.8332   16.9154 H   0  0  0  0  0  0  0  0  0  0  0  0
    5.4645    1.3661   17.7938 C   0  0  0  0  0  0  0  0  0  0  0  0
    6.6654    0.7944   17.6204 N   0  0  0  0  0  0  0  0  0  0  0  0
    7.2128    0.1941   18.6840 C   0  0  0  0  0  0  0  0  0  0  0  0
    8.1999   -0.2374   18.5112 H   0  0  0  0  0  0  0  0  0  0  0  0
    6.6034    0.0922   19.9396 C   0  0  0  0  0  0  0  0  0  0  0  0
    7.2183   -0.7363   21.0586 C   0  0  1  0  0  0  0  0  0  0  0  0
    7.0564   -0.1856   21.9915 H   0  0  0  0  0  0  0  0  0  0  0  0
    6.5604   -2.1076   21.2339 C   0  0  0  0  0  0  0  0  0  0  0  0
    6.2401   -2.8969   20.1157 C   0  0  0  0  0  0  0  0  0  0  0  0
    6.3966   -2.4989   19.1143 H   0  0  0  0  0  0  0  0  0  0  0  0
    5.7615   -4.1913   20.2560 C   0  0  0  0  0  0  0  0  0  0  0  0
    5.5473   -4.7940   19.3775 H   0  0  0  0  0  0  0  0  0  0  0  0
    5.5350   -4.7208   21.5214 C   0  0  0  0  0  0  0  0  0  0  0  0
    5.1691   -5.7344   21.6414 H   0  0  0  0  0  0  0  0  0  0  0  0
    5.7650   -3.9365   22.6536 C   0  0  0  0  0  0  0  0  0  0  0  0
    5.3024   -4.5606   24.2027 Cl  0  0  0  0  0  0  0  0  0  0  0  0
    6.3345   -2.6561   22.5161 C   0  0  0  0  0  0  0  0  0  0  0  0
    6.7333   -1.7512   23.9420 Cl  0  0  0  0  0  0  0  0  0  0  0  0
    8.6558   -0.9436   20.9013 N   0  0  0  0  0  0  0  0  0  0  0  0
    8.8047   -1.5682   20.1118 H   0  0  0  0  0  0  0  0  0  0  0  0
    9.0992   -0.0579   20.6849 H   0  0  0  0  0  0  0  0  0  0  0  0
    5.3692    0.7500   20.1187 C   0  0  0  0  0  0  0  0  0  0  0  0
    4.8958    0.7887   21.1064 H   0  0  0  0  0  0  0  0  0  0  0  0
    4.7838    1.3792   19.0184 C   0  0  0  0  0  0  0  0  0  0  0  0
    3.8285    1.8921   19.0917 H   0  0  0  0  0  0  0  0  0  0  0  0
  1  2  1  0
  2  3  2  0
  3  4  1  0
  4  5  1  0
  4  6  2  0
  6  7  1  0
  7  8  1  1
  7  9  1  0
  9 10  2  0
 10 11  1  0
 10 12  1  0
 12 13  1  0
 12 14  2  0
 14 15  1  0
 14 16  1  0
 16 17  1  0
 16 18  2  0
 18 19  1  0
  7 20  1  0
 20 21  1  0
 20 22  1  0
  6 23  1  0
 23 24  1  0
 23 25  2  0
 25 26  1  0
 25  2  1  0
 18  9  1  0
M  END
>  <cnnaffinity>  (1) 
-4.60478

>  <filename>  (1) 
N[C@@H](c1cccnc1)c1cccc(Cl)c1Cl

$$$$
