
     RDKit          3D

 31 32  0  0  0  0  0  0  0  0999 V2000
   10.4666    0.5333   25.8452 H   0  0  0  0  0  0  0  0  0  0  0  0
    9.6691    0.0004   25.3329 C   0  0  0  0  0  0  0  0  0  0  0  0
    9.9225   -0.3869   24.0803 N   0  0  0  0  0  0  0  0  0  0  0  0
    8.9724   -1.0982   23.4726 C   0  0  0  0  0  0  0  0  0  0  0  0
    9.3081   -1.7539   22.1423 C   0  0  2  0  0  0  0  0  0  0  0  0
   10.3841   -1.6505   22.0074 H   0  0  0  0  0  0  0  0  0  0  0  0
    8.7502   -0.6222   21.2276 C   0  0  0  0  0  0  0  0  0  0  0  0
    9.5000    0.1935   20.7248 O   0  0  0  0  0  0  0  0  0  0  0  0
    7.3815   -0.6036   21.0218 N   0  0  0  0  0  0  0  0  0  0  0  0
    6.8234   -0.9085   21.8105 H   0  0  0  0  0  0  0  0  0  0  0  0
    6.7075    0.0234   19.9422 C   0  0  0  0  0  0  0  0  0  0  0  0
    7.2028    0.0516   18.6128 C   0  0  0  0  0  0  0  0  0  0  0  0
    8.1508   -0.4314   18.3793 H   0  0  0  0  0  0  0  0  0  0  0  0
    6.5692    0.6525   17.5960 N   0  0  0  0  0  0  0  0  0  0  0  0
    5.4085    1.2761   17.8597 C   0  0  0  0  0  0  0  0  0  0  0  0
    4.9432    1.7886   17.0199 H   0  0  0  0  0  0  0  0  0  0  0  0
    4.8183    1.2820   19.1264 C   0  0  0  0  0  0  0  0  0  0  0  0
    3.8820    1.8070   19.2737 H   0  0  0  0  0  0  0  0  0  0  0  0
    5.4675    0.6298   20.1811 C   0  0  0  0  0  0  0  0  0  0  0  0
    5.0398    0.6201   21.1821 H   0  0  0  0  0  0  0  0  0  0  0  0
    8.9959   -3.2135   21.8547 N   0  0  0  0  0  0  0  0  0  0  0  0
    9.6093   -3.8149   22.4139 H   0  0  0  0  0  0  0  0  0  0  0  0
    8.0391   -3.4707   22.1081 H   0  0  0  0  0  0  0  0  0  0  0  0
    7.7207   -1.2358   23.9306 N   0  0  0  0  0  0  0  0  0  0  0  0
    7.5008   -0.9542   25.2248 C   0  0  0  0  0  0  0  0  0  0  0  0
    6.1538   -1.3809   25.8866 C   0  0  0  0  0  0  0  0  0  0  0  0
    5.3970   -2.1612   25.1112 F   0  0  0  0  0  0  0  0  0  0  0  0
    5.4238   -0.2989   26.2282 F   0  0  0  0  0  0  0  0  0  0  0  0
    6.3864   -2.0571   27.0355 F   0  0  0  0  0  0  0  0  0  0  0  0
    8.4712   -0.2874   25.9848 C   0  0  0  0  0  0  0  0  0  0  0  0
    8.3272   -0.0157   27.0224 H   0  0  0  0  0  0  0  0  0  0  0  0
  1  2  1  0
  2  3  2  0
  3  4  1  0
  4  5  1  0
  5  6  1  1
  5  7  1  0
  7  8  2  0
  7  9  1  0
  9 10  1  0
  9 11  1  0
 11 12  2  0
 12 13  1  0
 12 14  1  0
 14 15  2  0
 15 16  1  0
 15 17  1  0
 17 18  1  0
 17 19  2  0
 19 20  1  0
  5 21  1  0
 21 22  1  0
 21 23  1  0
  4 24  2  0
 24 25  1  0
 25 26  1  0
 26 27  1  0
 26 28  1  0
 26 29  1  0
 25 30  2  0
 30 31  1  0
 30  2  1  0
 19 11  1  0
M  END
>  <cnnaffinity>  (1) 
-5.25695

>  <filename>  (1) 
N[C@@H](C(=O)Nc1cccnc1)c1nccc(C(F)(F)F)n1

$$$$
