
     RDKit          3D

 28 28  0  0  0  0  0  0  0  0999 V2000
    5.8733   -2.7667   19.7728 H   0  0  0  0  0  0  0  0  0  0  0  0
    5.3146   -3.2701   20.3999 O   0  0  0  0  0  0  0  0  0  0  0  0
    5.5732   -2.8165   21.6792 N   0  0  0  0  0  0  0  0  0  0  0  0
    5.0097   -2.0462   22.0184 H   0  0  0  0  0  0  0  0  0  0  0  0
    6.5877   -3.2512   22.4842 C   0  0  0  0  0  0  0  0  0  0  0  0
    7.3476   -4.1718   22.2283 O   0  0  0  0  0  0  0  0  0  0  0  0
    6.7737   -2.3296   23.6794 C   0  0  0  0  0  0  0  0  0  0  0  0
    5.8247   -1.9065   24.0122 H   0  0  0  0  0  0  0  0  0  0  0  0
    7.1798   -2.9138   24.5107 H   0  0  0  0  0  0  0  0  0  0  0  0
    7.8449   -1.2463   23.3439 C   0  0  2  0  0  0  0  0  0  0  0  0
    7.9876   -0.6275   24.2405 H   0  0  0  0  0  0  0  0  0  0  0  0
    7.2838   -0.1697   22.3024 C   0  0  0  0  0  0  0  0  0  0  0  0
    6.7063    0.8238   22.7045 O   0  0  0  0  0  0  0  0  0  0  0  0
    7.4170   -0.4783   20.9601 N   0  0  0  0  0  0  0  0  0  0  0  0
    7.9538   -1.3092   20.7749 H   0  0  0  0  0  0  0  0  0  0  0  0
    6.6857    0.0847   19.8792 C   0  0  0  0  0  0  0  0  0  0  0  0
    7.1654    0.0535   18.5431 C   0  0  0  0  0  0  0  0  0  0  0  0
    8.0928   -0.4582   18.2996 H   0  0  0  0  0  0  0  0  0  0  0  0
    6.5469    0.6389   17.5069 N   0  0  0  0  0  0  0  0  0  0  0  0
    5.3934    1.2761   17.7598 C   0  0  0  0  0  0  0  0  0  0  0  0
    4.9206    1.7829   16.9202 H   0  0  0  0  0  0  0  0  0  0  0  0
    4.8052    1.3046   19.0294 C   0  0  0  0  0  0  0  0  0  0  0  0
    3.8618    1.8181   19.1708 H   0  0  0  0  0  0  0  0  0  0  0  0
    5.4505    0.6982   20.1128 C   0  0  0  0  0  0  0  0  0  0  0  0
    5.0298    0.7048   21.1187 H   0  0  0  0  0  0  0  0  0  0  0  0
    9.0362   -2.0484   23.1155 N   0  0  0  0  0  0  0  0  0  0  0  0
    9.9345   -1.6047   22.9902 H   0  0  0  0  0  0  0  0  0  0  0  0
    8.8879   -2.8831   22.5585 H   0  0  0  0  0  0  0  0  0  0  0  0
  1  2  1  0
  2  3  1  0
  3  4  1  0
  3  5  1  0
  5  6  2  0
  5  7  1  0
  7  8  1  0
  7  9  1  0
  7 10  1  0
 10 11  1  1
 10 12  1  0
 12 13  2  0
 12 14  1  0
 14 15  1  0
 14 16  1  0
 16 17  2  0
 17 18  1  0
 17 19  1  0
 19 20  2  0
 20 21  1  0
 20 22  1  0
 22 23  1  0
 22 24  2  0
 24 25  1  0
 10 26  1  0
 26 27  1  0
 26 28  1  0
 24 16  1  0
M  END
>  <cnnaffinity>  (1) 
-3.69891

>  <filename>  (1) 
N[C@H](CC(=O)NO)C(=O)Nc1cccnc1

$$$$
