
     RDKit          3D

 32 33  0  0  0  0  0  0  0  0999 V2000
    4.9944    1.7854   16.9678 H   0  0  0  0  0  0  0  0  0  0  0  0
    5.4271    1.2998   17.8386 C   0  0  0  0  0  0  0  0  0  0  0  0
    6.5994    0.6799   17.6456 N   0  0  0  0  0  0  0  0  0  0  0  0
    7.1664    0.1018   18.7148 C   0  0  0  0  0  0  0  0  0  0  0  0
    8.1062   -0.4170   18.5058 H   0  0  0  0  0  0  0  0  0  0  0  0
    6.6066    0.0979   20.0028 C   0  0  0  0  0  0  0  0  0  0  0  0
    7.3433   -0.5833   21.1382 C   0  0  2  0  0  0  0  0  0  0  0  0
    6.7535   -0.4824   22.0658 H   0  0  0  0  0  0  0  0  0  0  0  0
    8.6696    0.0039   21.3460 N   0  0  0  0  0  0  0  0  0  0  0  0
    9.1765   -0.1357   20.4770 H   0  0  0  0  0  0  0  0  0  0  0  0
    8.5916    1.0130   21.4432 H   0  0  0  0  0  0  0  0  0  0  0  0
    7.5633   -2.0606   20.7971 C   0  0  0  0  0  0  0  0  0  0  0  0
    6.6551   -2.4801   20.3523 H   0  0  0  0  0  0  0  0  0  0  0  0
    8.3240   -2.0267   20.0178 H   0  0  0  0  0  0  0  0  0  0  0  0
    8.0972   -2.9938   21.8992 C   0  0  0  0  0  0  0  0  0  0  0  0
    9.1058   -2.6798   22.1951 H   0  0  0  0  0  0  0  0  0  0  0  0
    8.2235   -3.9874   21.4554 H   0  0  0  0  0  0  0  0  0  0  0  0
    7.2058   -3.0638   23.1116 C   0  0  0  0  0  0  0  0  0  0  0  0
    7.4445   -2.2330   24.2140 C   0  0  0  0  0  0  0  0  0  0  0  0
    8.3127   -1.5745   24.1978 H   0  0  0  0  0  0  0  0  0  0  0  0
    6.5863   -2.2369   25.3095 C   0  0  0  0  0  0  0  0  0  0  0  0
    6.7747   -1.5942   26.1613 H   0  0  0  0  0  0  0  0  0  0  0  0
    5.4586   -3.0664   25.3168 C   0  0  0  0  0  0  0  0  0  0  0  0
    4.4102   -3.0172   26.6905 Cl  0  0  0  0  0  0  0  0  0  0  0  0
    5.1923   -3.8836   24.2078 C   0  0  0  0  0  0  0  0  0  0  0  0
    3.7866   -4.8921   24.1394 Cl  0  0  0  0  0  0  0  0  0  0  0  0
    6.0649   -3.8814   23.1172 C   0  0  0  0  0  0  0  0  0  0  0  0
    5.8430   -4.5302   22.2752 H   0  0  0  0  0  0  0  0  0  0  0  0
    5.3630    0.7219   20.1698 C   0  0  0  0  0  0  0  0  0  0  0  0
    4.8753    0.7231   21.1478 H   0  0  0  0  0  0  0  0  0  0  0  0
    4.7654    1.3412   19.0700 C   0  0  0  0  0  0  0  0  0  0  0  0
    3.8171    1.8599   19.1620 H   0  0  0  0  0  0  0  0  0  0  0  0
  1  2  1  0
  2  3  2  0
  3  4  1  0
  4  5  1  0
  4  6  2  0
  6  7  1  0
  7  8  1  1
  7  9  1  0
  9 10  1  0
  9 11  1  0
  7 12  1  0
 12 13  1  0
 12 14  1  0
 12 15  1  0
 15 16  1  0
 15 17  1  0
 15 18  1  0
 18 19  2  0
 19 20  1  0
 19 21  1  0
 21 22  1  0
 21 23  2  0
 23 24  1  0
 23 25  1  0
 25 26  1  0
 25 27  2  0
 27 28  1  0
  6 29  1  0
 29 30  1  0
 29 31  2  0
 31 32  1  0
 31  2  1  0
 27 18  1  0
M  END
>  <cnnaffinity>  (1) 
-5.10996

>  <filename>  (1) 
N[C@H](CCc1ccc(Cl)c(Cl)c1)c1cccnc1

$$$$
