
     RDKit          3D

 31 32  0  0  0  0  0  0  0  0999 V2000
   11.7318   -2.8681   22.1206 H   0  0  0  0  0  0  0  0  0  0  0  0
   10.9513   -2.3348   22.6597 C   0  0  0  0  0  0  0  0  0  0  0  0
   10.3363   -1.3567   21.9946 N   0  0  0  0  0  0  0  0  0  0  0  0
    9.3545   -0.6508   22.5967 C   0  0  0  0  0  0  0  0  0  0  0  0
    8.5802    0.2466   21.5839 C   0  0  2  0  0  0  0  0  0  0  0  0
    9.3243    0.3981   20.7829 H   0  0  0  0  0  0  0  0  0  0  0  0
    8.0066    1.5190   22.0524 N   0  0  0  0  0  0  0  0  0  0  0  0
    7.5914    1.9973   21.2542 H   0  0  0  0  0  0  0  0  0  0  0  0
    8.7157    2.1496   22.4128 H   0  0  0  0  0  0  0  0  0  0  0  0
    7.4244   -0.6258   20.9986 C   0  0  0  0  0  0  0  0  0  0  0  0
    6.7389   -0.8415   21.8223 H   0  0  0  0  0  0  0  0  0  0  0  0
    7.8434   -1.5817   20.6556 H   0  0  0  0  0  0  0  0  0  0  0  0
    6.6521    0.0141   19.8653 C   0  0  0  0  0  0  0  0  0  0  0  0
    7.1495    0.0518   18.5500 C   0  0  0  0  0  0  0  0  0  0  0  0
    8.0870   -0.4513   18.3078 H   0  0  0  0  0  0  0  0  0  0  0  0
    6.5517    0.6773   17.5255 N   0  0  0  0  0  0  0  0  0  0  0  0
    5.3987    1.3116   17.7836 C   0  0  0  0  0  0  0  0  0  0  0  0
    4.9380    1.8360   16.9466 H   0  0  0  0  0  0  0  0  0  0  0  0
    4.7958    1.3212   19.0439 C   0  0  0  0  0  0  0  0  0  0  0  0
    3.8647    1.8525   19.1929 H   0  0  0  0  0  0  0  0  0  0  0  0
    5.4297    0.6622   20.1010 C   0  0  0  0  0  0  0  0  0  0  0  0
    5.0038    0.6695   21.1073 H   0  0  0  0  0  0  0  0  0  0  0  0
    9.0247   -0.8910   23.9475 C   0  0  0  0  0  0  0  0  0  0  0  0
    7.9757   -0.0669   24.6467 C   0  0  0  0  0  0  0  0  0  0  0  0
    7.7261   -0.5052   25.8967 F   0  0  0  0  0  0  0  0  0  0  0  0
    6.7944   -0.1012   24.0022 F   0  0  0  0  0  0  0  0  0  0  0  0
    8.3439    1.2242   24.7615 F   0  0  0  0  0  0  0  0  0  0  0  0
    9.6585   -1.9401   24.6402 C   0  0  0  0  0  0  0  0  0  0  0  0
    9.4245   -2.1687   25.6838 H   0  0  0  0  0  0  0  0  0  0  0  0
   10.6114   -2.6942   23.9664 C   0  0  0  0  0  0  0  0  0  0  0  0
   11.1260   -3.5194   24.4422 H   0  0  0  0  0  0  0  0  0  0  0  0
  1  2  1  0
  2  3  2  0
  3  4  1  0
  4  5  1  0
  5  6  1  6
  5  7  1  0
  7  8  1  0
  7  9  1  0
  5 10  1  0
 10 11  1  0
 10 12  1  0
 10 13  1  0
 13 14  2  0
 14 15  1  0
 14 16  1  0
 16 17  2  0
 17 18  1  0
 17 19  1  0
 19 20  1  0
 19 21  2  0
 21 22  1  0
  4 23  2  0
 23 24  1  0
 24 25  1  0
 24 26  1  0
 24 27  1  0
 23 28  1  0
 28 29  1  0
 28 30  2  0
 30 31  1  0
 30  2  1  0
 21 13  1  0
M  END
>  <cnnaffinity>  (1) 
-5.03062

>  <filename>  (1) 
N[C@H](Cc1cccnc1)c1ncccc1C(F)(F)F

$$$$
