
     RDKit          3D

 31 31  0  0  0  0  0  0  0  0999 V2000
    4.2014   -5.0870   23.8642 H   0  0  0  0  0  0  0  0  0  0  0  0
    3.8557   -4.1765   23.8954 O   0  0  0  0  0  0  0  0  0  0  0  0
    4.9770   -3.3295   23.9901 N   0  0  0  0  0  0  0  0  0  0  0  0
    4.7882   -2.4970   23.4339 H   0  0  0  0  0  0  0  0  0  0  0  0
    5.3801   -2.9203   25.2877 C   0  0  0  0  0  0  0  0  0  0  0  0
    5.3435   -3.6498   26.2453 O   0  0  0  0  0  0  0  0  0  0  0  0
    5.9745   -1.5162   25.3214 C   0  0  0  0  0  0  0  0  0  0  0  0
    5.3300   -0.7966   24.8027 H   0  0  0  0  0  0  0  0  0  0  0  0
    5.9762   -1.2420   26.3847 H   0  0  0  0  0  0  0  0  0  0  0  0
    7.4274   -1.3717   24.8054 C   0  0  0  0  0  0  0  0  0  0  0  0
    8.0737   -2.0958   25.3281 H   0  0  0  0  0  0  0  0  0  0  0  0
    7.7442   -0.3576   25.0800 H   0  0  0  0  0  0  0  0  0  0  0  0
    7.7373   -1.4948   23.3016 C   0  0  2  0  0  0  0  0  0  0  0  0
    8.7899   -1.1814   23.2049 H   0  0  0  0  0  0  0  0  0  0  0  0
    7.0383   -0.3595   22.4373 C   0  0  0  0  0  0  0  0  0  0  0  0
    6.5436    0.6419   22.9224 O   0  0  0  0  0  0  0  0  0  0  0  0
    7.1822   -0.5844   21.0896 N   0  0  0  0  0  0  0  0  0  0  0  0
    7.4929   -1.5341   20.9205 H   0  0  0  0  0  0  0  0  0  0  0  0
    6.6129    0.1238   20.0004 C   0  0  0  0  0  0  0  0  0  0  0  0
    7.1973    0.0528   18.7124 C   0  0  0  0  0  0  0  0  0  0  0  0
    8.1366   -0.4866   18.5810 H   0  0  0  0  0  0  0  0  0  0  0  0
    6.6666    0.6109   17.6152 N   0  0  0  0  0  0  0  0  0  0  0  0
    5.5146    1.2910   17.7648 C   0  0  0  0  0  0  0  0  0  0  0  0
    5.0939    1.7274   16.8607 H   0  0  0  0  0  0  0  0  0  0  0  0
    4.8722    1.4424   18.9981 C   0  0  0  0  0  0  0  0  0  0  0  0
    3.9551    2.0201   19.0610 H   0  0  0  0  0  0  0  0  0  0  0  0
    5.4325    0.8576   20.1437 C   0  0  0  0  0  0  0  0  0  0  0  0
    4.9811    0.9485   21.1277 H   0  0  0  0  0  0  0  0  0  0  0  0
    7.7037   -2.8848   22.7615 N   0  0  0  0  0  0  0  0  0  0  0  0
    6.9311   -3.4117   23.1692 H   0  0  0  0  0  0  0  0  0  0  0  0
    8.5800   -3.3516   22.9971 H   0  0  0  0  0  0  0  0  0  0  0  0
  1  2  1  0
  2  3  1  0
  3  4  1  0
  3  5  1  0
  5  6  2  0
  5  7  1  0
  7  8  1  0
  7  9  1  0
  7 10  1  0
 10 11  1  0
 10 12  1  0
 10 13  1  0
 13 14  1  1
 13 15  1  0
 15 16  2  0
 15 17  1  0
 17 18  1  0
 17 19  1  0
 19 20  2  0
 20 21  1  0
 20 22  1  0
 22 23  2  0
 23 24  1  0
 23 25  1  0
 25 26  1  0
 25 27  2  0
 27 28  1  0
 13 29  1  0
 29 30  1  0
 29 31  1  0
 27 19  1  0
M  END
>  <cnnaffinity>  (1) 
-4.22468

>  <filename>  (1) 
N[C@H](CCC(=O)NO)C(=O)Nc1cccnc1

$$$$
