
     RDKit          3D

 23 23  0  0  0  0  0  0  0  0999 V2000
    4.9377    1.7964   16.9863 H   0  0  0  0  0  0  0  0  0  0  0  0
    5.4030    1.2857   17.8308 C   0  0  0  0  0  0  0  0  0  0  0  0
    6.5544    0.6490   17.5793 N   0  0  0  0  0  0  0  0  0  0  0  0
    7.1708    0.0408   18.6063 C   0  0  0  0  0  0  0  0  0  0  0  0
    8.1172   -0.4206   18.3263 H   0  0  0  0  0  0  0  0  0  0  0  0
    6.6736    0.0090   19.9262 C   0  0  0  0  0  0  0  0  0  0  0  0
    7.3569   -0.6978   21.0994 C   0  0  2  0  0  0  0  0  0  0  0  0
    6.5989   -1.2225   21.7065 H   0  0  0  0  0  0  0  0  0  0  0  0
    7.9808    0.3088   22.1225 C   0  0  0  0  0  0  0  0  0  0  0  0
    7.6376    0.4310   23.2797 O   0  0  0  0  0  0  0  0  0  0  0  0
    9.0922    1.1217   21.5020 C   0  0  0  0  0  0  0  0  0  0  0  0
    9.4800    0.9369   20.3719 O   0  0  0  0  0  0  0  0  0  0  0  0
    9.6806    2.2016   22.4453 C   0  0  0  0  0  0  0  0  0  0  0  0
   10.2611    1.5709   23.4734 F   0  0  0  0  0  0  0  0  0  0  0  0
   10.5823    2.9711   21.8464 F   0  0  0  0  0  0  0  0  0  0  0  0
    8.7057    2.9818   22.9214 F   0  0  0  0  0  0  0  0  0  0  0  0
    8.3431   -1.6759   20.6418 N   0  0  0  0  0  0  0  0  0  0  0  0
    9.1069   -1.2317   20.1387 H   0  0  0  0  0  0  0  0  0  0  0  0
    7.8786   -2.2856   19.9704 H   0  0  0  0  0  0  0  0  0  0  0  0
    5.4556    0.6682   20.1536 C   0  0  0  0  0  0  0  0  0  0  0  0
    5.0244    0.6598   21.1557 H   0  0  0  0  0  0  0  0  0  0  0  0
    4.8116    1.3165   19.0975 C   0  0  0  0  0  0  0  0  0  0  0  0
    3.8766    1.8463   19.2364 H   0  0  0  0  0  0  0  0  0  0  0  0
  1  2  1  0
  2  3  2  0
  3  4  1  0
  4  5  1  0
  4  6  2  0
  6  7  1  0
  7  8  1  1
  7  9  1  0
  9 10  2  0
  9 11  1  0
 11 12  2  0
 11 13  1  0
 13 14  1  0
 13 15  1  0
 13 16  1  0
  7 17  1  0
 17 18  1  0
 17 19  1  0
  6 20  1  0
 20 21  1  0
 20 22  2  0
 22 23  1  0
 22  2  1  0
M  END
>  <cnnaffinity>  (1) 
-4.22128

>  <filename>  (1) 
N[C@@H](C(=O)C(=O)C(F)(F)F)c1cccnc1

$$$$
