
     RDKit          3D

 29 30  0  0  0  0  0  0  0  0999 V2000
    5.0070    1.8021   16.9232 H   0  0  0  0  0  0  0  0  0  0  0  0
    5.4210    1.3291   17.8143 C   0  0  0  0  0  0  0  0  0  0  0  0
    6.5975    0.7041   17.6624 N   0  0  0  0  0  0  0  0  0  0  0  0
    7.1254    0.1296   18.7473 C   0  0  0  0  0  0  0  0  0  0  0  0
    8.0664   -0.3965   18.5869 H   0  0  0  0  0  0  0  0  0  0  0  0
    6.5500    0.1412   20.0204 C   0  0  0  0  0  0  0  0  0  0  0  0
    7.3324   -0.4943   21.1458 C   0  0  2  0  0  0  0  0  0  0  0  0
    6.7692   -0.3696   22.0794 H   0  0  0  0  0  0  0  0  0  0  0  0
    8.6458    0.1401   21.2989 N   0  0  0  0  0  0  0  0  0  0  0  0
    9.1503    0.0655   20.4189 H   0  0  0  0  0  0  0  0  0  0  0  0
    8.4987    1.1380   21.4163 H   0  0  0  0  0  0  0  0  0  0  0  0
    7.5538   -1.9979   20.8925 C   0  0  0  0  0  0  0  0  0  0  0  0
    6.6696   -2.4499   20.4316 H   0  0  0  0  0  0  0  0  0  0  0  0
    8.3710   -2.0336   20.1668 H   0  0  0  0  0  0  0  0  0  0  0  0
    8.0039   -2.7882   22.1031 C   0  0  0  0  0  0  0  0  0  0  0  0
    9.3796   -2.8669   22.3663 C   0  0  0  0  0  0  0  0  0  0  0  0
   10.0692   -2.3760   21.6831 H   0  0  0  0  0  0  0  0  0  0  0  0
    9.8717   -3.5550   23.4717 C   0  0  0  0  0  0  0  0  0  0  0  0
   10.9432   -3.6021   23.6289 H   0  0  0  0  0  0  0  0  0  0  0  0
    8.9927   -4.1769   24.3571 C   0  0  0  0  0  0  0  0  0  0  0  0
    9.3730   -4.7089   25.2269 H   0  0  0  0  0  0  0  0  0  0  0  0
    7.6170   -4.1151   24.1222 C   0  0  0  0  0  0  0  0  0  0  0  0
    6.5785   -4.9069   25.2657 Cl  0  0  0  0  0  0  0  0  0  0  0  0
    7.1165   -3.4294   22.9953 C   0  0  0  0  0  0  0  0  0  0  0  0
    5.4035   -3.4215   22.7021 Cl  0  0  0  0  0  0  0  0  0  0  0  0
    5.2985    0.7629   20.1571 C   0  0  0  0  0  0  0  0  0  0  0  0
    4.7817    0.7783   21.1203 H   0  0  0  0  0  0  0  0  0  0  0  0
    4.7327    1.3685   19.0311 C   0  0  0  0  0  0  0  0  0  0  0  0
    3.7774    1.8784   19.0828 H   0  0  0  0  0  0  0  0  0  0  0  0
  1  2  1  0
  2  3  2  0
  3  4  1  0
  4  5  1  0
  4  6  2  0
  6  7  1  0
  7  8  1  1
  7  9  1  0
  9 10  1  0
  9 11  1  0
  7 12  1  0
 12 13  1  0
 12 14  1  0
 12 15  1  0
 15 16  2  0
 16 17  1  0
 16 18  1  0
 18 19  1  0
 18 20  2  0
 20 21  1  0
 20 22  1  0
 22 23  1  0
 22 24  2  0
 24 25  1  0
  6 26  1  0
 26 27  1  0
 26 28  2  0
 28 29  1  0
 28  2  1  0
 24 15  1  0
M  END
>  <cnnaffinity>  (1) 
-5.01105

>  <filename>  (1) 
N[C@H](Cc1cccc(Cl)c1Cl)c1cccnc1

$$$$
