
     RDKit          3D

 38 40  0  0  0  0  0  0  0  0999 V2000
    5.0386    1.7408   16.9955 H   0  0  0  0  0  0  0  0  0  0  0  0
    5.4667    1.2534   17.8686 C   0  0  0  0  0  0  0  0  0  0  0  0
    6.6289    0.6145   17.6699 N   0  0  0  0  0  0  0  0  0  0  0  0
    7.1848    0.0161   18.7255 C   0  0  0  0  0  0  0  0  0  0  0  0
    8.1166   -0.5207   18.5618 H   0  0  0  0  0  0  0  0  0  0  0  0
    6.6396    0.0463   20.0103 C   0  0  0  0  0  0  0  0  0  0  0  0
    7.4541   -0.6463   21.0504 C   0  0  0  0  0  0  0  0  0  0  0  0
    8.1739   -1.5969   20.7797 O   0  0  0  0  0  0  0  0  0  0  0  0
    7.3858   -0.1299   22.3097 N   0  0  0  0  0  0  0  0  0  0  0  0
    7.9968   -0.6631   23.5221 C   0  0  0  0  0  0  0  0  0  0  0  0
    9.0623   -0.8788   23.4141 H   0  0  0  0  0  0  0  0  0  0  0  0
    7.4868   -1.5499   23.9148 H   0  0  0  0  0  0  0  0  0  0  0  0
    7.6642    0.6587   24.2574 C   0  0  0  0  0  0  0  0  0  0  0  0
    8.5694    1.2137   24.5434 H   0  0  0  0  0  0  0  0  0  0  0  0
    6.7632    0.5219   25.3776 N   0  0  0  0  0  0  0  0  0  0  0  0
    6.1357   -0.2901   25.3595 H   0  0  0  0  0  0  0  0  0  0  0  0
    6.1070    1.6023   25.9315 C   0  0  0  0  0  0  0  0  0  0  0  0
    6.6023    2.9120   25.8227 C   0  0  0  0  0  0  0  0  0  0  0  0
    7.5270    3.0876   25.2832 H   0  0  0  0  0  0  0  0  0  0  0  0
    5.9046    3.9859   26.3725 C   0  0  0  0  0  0  0  0  0  0  0  0
    6.2983    4.9966   26.2729 H   0  0  0  0  0  0  0  0  0  0  0  0
    4.7057    3.7620   27.0594 C   0  0  0  0  0  0  0  0  0  0  0  0
    4.1686    4.5912   27.5096 H   0  0  0  0  0  0  0  0  0  0  0  0
    4.2120    2.4638   27.1856 C   0  0  0  0  0  0  0  0  0  0  0  0
    3.2690    2.2947   27.7045 H   0  0  0  0  0  0  0  0  0  0  0  0
    4.8989    1.3648   26.6303 C   0  0  0  0  0  0  0  0  0  0  0  0
    4.3652   -0.0176   26.7011 C   0  0  0  0  0  0  0  0  0  0  0  0
    4.6203   -0.9332   25.9254 O   0  0  0  0  0  0  0  0  0  0  0  0
    3.4963   -0.2841   27.7239 N   0  0  0  0  0  0  0  0  0  0  0  0
    3.7580    0.1565   28.5887 H   0  0  0  0  0  0  0  0  0  0  0  0
    3.3793   -1.2882   27.7552 H   0  0  0  0  0  0  0  0  0  0  0  0
    7.0549    1.1652   22.9155 C   0  0  0  0  0  0  0  0  0  0  0  0
    7.5673    2.0305   22.4832 H   0  0  0  0  0  0  0  0  0  0  0  0
    5.9787    1.3726   22.9877 H   0  0  0  0  0  0  0  0  0  0  0  0
    5.4111    0.6969   20.2085 C   0  0  0  0  0  0  0  0  0  0  0  0
    4.9246    0.7231   21.1868 H   0  0  0  0  0  0  0  0  0  0  0  0
    4.8177    1.3106   19.1083 C   0  0  0  0  0  0  0  0  0  0  0  0
    3.8794    1.8447   19.2022 H   0  0  0  0  0  0  0  0  0  0  0  0
  1  2  1  0
  2  3  2  0
  3  4  1  0
  4  5  1  0
  4  6  2  0
  6  7  1  0
  7  8  2  0
  7  9  1  0
  9 10  1  0
 10 11  1  0
 10 12  1  0
 10 13  1  0
 13 14  1  0
 13 15  1  0
 15 16  1  0
 15 17  1  0
 17 18  2  0
 18 19  1  0
 18 20  1  0
 20 21  1  0
 20 22  2  0
 22 23  1  0
 22 24  1  0
 24 25  1  0
 24 26  2  0
 26 27  1  0
 27 28  2  0
 27 29  1  0
 29 30  1  0
 29 31  1  0
 13 32  1  0
 32 33  1  0
 32 34  1  0
  6 35  1  0
 35 36  1  0
 35 37  2  0
 37 38  1  0
 37  2  1  0
 32  9  1  0
 26 17  1  0
M  END
>  <cnnaffinity>  (1) 
-4.86945

>  <filename>  (1) 
NC(=O)c1ccccc1NC1CN(C(=O)c2cccnc2)C1

$$$$
