
     RDKit          3D

 36 38  0  0  0  0  0  0  0  0999 V2000
    4.9247    1.9335   16.7250 H   0  0  0  0  0  0  0  0  0  0  0  0
    5.4060    1.3974   17.5408 C   0  0  0  0  0  0  0  0  0  0  0  0
    6.5340    0.7413   17.2283 N   0  0  0  0  0  0  0  0  0  0  0  0
    7.1796    0.1070   18.2172 C   0  0  0  0  0  0  0  0  0  0  0  0
    8.0986   -0.4068   17.9481 H   0  0  0  0  0  0  0  0  0  0  0  0
    6.7403    0.0999   19.5515 C   0  0  0  0  0  0  0  0  0  0  0  0
    7.4958   -0.5314   20.5959 N   0  0  0  0  0  0  0  0  0  0  0  0
    6.7838   -1.4569   21.3060 N   0  0  0  0  0  0  0  0  0  0  0  0
    7.3570   -1.9866   22.3377 C   0  0  0  0  0  0  0  0  0  0  0  0
    6.7697   -2.7291   22.8666 H   0  0  0  0  0  0  0  0  0  0  0  0
    8.7002   -1.6444   22.7917 C   0  0  0  0  0  0  0  0  0  0  0  0
    9.3041   -2.2517   23.8826 N   0  0  0  0  0  0  0  0  0  0  0  0
    9.7551   -1.6239   24.5454 H   0  0  0  0  0  0  0  0  0  0  0  0
    8.8314   -3.4235   24.4818 C   0  0  0  0  0  0  0  0  0  0  0  0
    8.7259   -4.5866   23.7187 C   0  0  0  0  0  0  0  0  0  0  0  0
    8.9445   -4.4887   22.6612 H   0  0  0  0  0  0  0  0  0  0  0  0
    8.3329   -5.7875   24.3091 C   0  0  0  0  0  0  0  0  0  0  0  0
    8.2870   -6.6857   23.7002 H   0  0  0  0  0  0  0  0  0  0  0  0
    8.0165   -5.8142   25.6754 C   0  0  0  0  0  0  0  0  0  0  0  0
    7.7138   -6.7469   26.1423 H   0  0  0  0  0  0  0  0  0  0  0  0
    8.0577   -4.6368   26.4254 C   0  0  0  0  0  0  0  0  0  0  0  0
    7.7883   -4.6642   27.4813 H   0  0  0  0  0  0  0  0  0  0  0  0
    8.4344   -3.4189   25.8266 C   0  0  0  0  0  0  0  0  0  0  0  0
    8.3465   -2.1059   26.5230 C   0  0  0  0  0  0  0  0  0  0  0  0
    9.1394   -1.1844   26.3772 O   0  0  0  0  0  0  0  0  0  0  0  0
    7.3106   -1.9456   27.3892 N   0  0  0  0  0  0  0  0  0  0  0  0
    7.2401   -0.9771   27.6573 H   0  0  0  0  0  0  0  0  0  0  0  0
    6.4673   -2.4647   27.2099 H   0  0  0  0  0  0  0  0  0  0  0  0
    9.3832   -0.6884   22.1127 C   0  0  0  0  0  0  0  0  0  0  0  0
   10.3680   -0.3545   22.4093 H   0  0  0  0  0  0  0  0  0  0  0  0
    8.8344   -0.0734   20.9333 C   0  0  0  0  0  0  0  0  0  0  0  0
    9.3879    0.7720   20.2570 O   0  0  0  0  0  0  0  0  0  0  0  0
    5.5250    0.7277   19.8513 C   0  0  0  0  0  0  0  0  0  0  0  0
    5.1255    0.6722   20.8631 H   0  0  0  0  0  0  0  0  0  0  0  0
    4.8607    1.4132   18.8309 C   0  0  0  0  0  0  0  0  0  0  0  0
    3.9407    1.9571   19.0209 H   0  0  0  0  0  0  0  0  0  0  0  0
  1  2  1  0
  2  3  2  0
  3  4  1  0
  4  5  1  0
  4  6  2  0
  6  7  1  0
  7  8  1  0
  8  9  2  0
  9 10  1  0
  9 11  1  0
 11 12  1  0
 12 13  1  0
 12 14  1  0
 14 15  2  0
 15 16  1  0
 15 17  1  0
 17 18  1  0
 17 19  2  0
 19 20  1  0
 19 21  1  0
 21 22  1  0
 21 23  2  0
 23 24  1  0
 24 25  2  0
 24 26  1  0
 26 27  1  0
 26 28  1  0
 11 29  2  0
 29 30  1  0
 29 31  1  0
 31 32  2  0
  6 33  1  0
 33 34  1  0
 33 35  2  0
 35 36  1  0
 35  2  1  0
 31  7  1  0
 23 14  1  0
M  END
>  <cnnaffinity>  (1) 
-5.32353

>  <filename>  (1) 
NC(=O)c1ccccc1Nc1cnn(-c2cccnc2)c(=O)c1

$$$$
