
     RDKit          3D

 31 33  0  0  0  0  0  0  0  0999 V2000
    4.9770    1.7710   16.9799 H   0  0  0  0  0  0  0  0  0  0  0  0
    5.4496    1.2908   17.8334 C   0  0  0  0  0  0  0  0  0  0  0  0
    6.6121    0.6678   17.5921 N   0  0  0  0  0  0  0  0  0  0  0  0
    7.2160    0.0685   18.6226 C   0  0  0  0  0  0  0  0  0  0  0  0
    8.1454   -0.4493   18.3909 H   0  0  0  0  0  0  0  0  0  0  0  0
    6.6926    0.0489   19.9158 C   0  0  0  0  0  0  0  0  0  0  0  0
    7.3813   -0.7225   20.9644 C   0  0  0  0  0  0  0  0  0  0  0  0
    6.7179   -1.1279   21.9727 N   0  0  0  0  0  0  0  0  0  0  0  0
    7.1965   -1.8952   23.0420 C   0  0  0  0  0  0  0  0  0  0  0  0
    8.1812   -1.3352   23.8507 C   0  0  0  0  0  0  0  0  0  0  0  0
    8.5747   -0.3674   23.5525 H   0  0  0  0  0  0  0  0  0  0  0  0
    8.6156   -1.9496   25.0504 C   0  0  0  0  0  0  0  0  0  0  0  0
    9.3807   -1.4593   25.6472 H   0  0  0  0  0  0  0  0  0  0  0  0
    8.0702   -3.1428   25.4648 C   0  0  0  0  0  0  0  0  0  0  0  0
    8.4045   -3.6212   26.3876 H   0  0  0  0  0  0  0  0  0  0  0  0
    7.0394   -3.7620   24.6946 C   0  0  0  0  0  0  0  0  0  0  0  0
    6.4311   -4.9841   25.1142 C   0  0  0  0  0  0  0  0  0  0  0  0
    6.7706   -5.4651   26.0329 H   0  0  0  0  0  0  0  0  0  0  0  0
    5.4251   -5.5304   24.3589 C   0  0  0  0  0  0  0  0  0  0  0  0
    4.9279   -6.4557   24.6337 H   0  0  0  0  0  0  0  0  0  0  0  0
    5.0276   -4.8602   23.1719 C   0  0  0  0  0  0  0  0  0  0  0  0
    4.2244   -5.2709   22.5635 H   0  0  0  0  0  0  0  0  0  0  0  0
    5.5661   -3.7462   22.7286 N   0  0  0  0  0  0  0  0  0  0  0  0
    6.5615   -3.1527   23.4692 C   0  0  0  0  0  0  0  0  0  0  0  0
    8.7075   -0.9886   20.7149 N   0  0  0  0  0  0  0  0  0  0  0  0
    9.1615   -1.3818   21.5231 H   0  0  0  0  0  0  0  0  0  0  0  0
    9.1900   -0.1925   20.3410 H   0  0  0  0  0  0  0  0  0  0  0  0
    5.4594    0.6822   20.1542 C   0  0  0  0  0  0  0  0  0  0  0  0
    5.0203    0.6305   21.1528 H   0  0  0  0  0  0  0  0  0  0  0  0
    4.8349    1.3216   19.0920 C   0  0  0  0  0  0  0  0  0  0  0  0
    3.8860    1.8300   19.2223 H   0  0  0  0  0  0  0  0  0  0  0  0
  1  2  1  0
  2  3  2  0
  3  4  1  0
  4  5  1  0
  4  6  2  0
  6  7  1  0
  7  8  2  3
  8  9  1  0
  9 10  2  0
 10 11  1  0
 10 12  1  0
 12 13  1  0
 12 14  2  0
 14 15  1  0
 14 16  1  0
 16 17  2  0
 17 18  1  0
 17 19  1  0
 19 20  1  0
 19 21  2  0
 21 22  1  0
 21 23  1  0
 23 24  2  0
  7 25  1  0
 25 26  1  0
 25 27  1  0
  6 28  1  0
 28 29  1  0
 28 30  2  0
 30 31  1  0
 30  2  1  0
 24  9  1  0
 24 16  1  0
M  END
>  <cnnaffinity>  (1) 
-5.17324

>  <filename>  (1) 
NC(=Nc1cccc2cccnc12)c1cccnc1

$$$$
