
     RDKit          3D

 40 42  0  0  0  0  0  0  0  0999 V2000
    4.8844    1.7895   16.9527 H   0  0  0  0  0  0  0  0  0  0  0  0
    5.3853    1.3062   17.7878 C   0  0  0  0  0  0  0  0  0  0  0  0
    6.5420    0.6828   17.5087 N   0  0  0  0  0  0  0  0  0  0  0  0
    7.1792    0.0824   18.5269 C   0  0  0  0  0  0  0  0  0  0  0  0
    8.1092   -0.4278   18.2841 H   0  0  0  0  0  0  0  0  0  0  0  0
    6.7222    0.0788   19.8665 C   0  0  0  0  0  0  0  0  0  0  0  0
    7.4475   -0.5825   20.8951 N   0  0  0  0  0  0  0  0  0  0  0  0
    7.3017   -2.0325   21.0070 C   0  0  0  0  0  0  0  0  0  0  0  0
    8.2980   -2.4879   21.1237 H   0  0  0  0  0  0  0  0  0  0  0  0
    6.8469   -2.4294   20.0908 H   0  0  0  0  0  0  0  0  0  0  0  0
    6.4330   -2.4340   22.2095 C   0  0  0  0  0  0  0  0  0  0  0  0
    5.3875   -2.1633   22.0078 H   0  0  0  0  0  0  0  0  0  0  0  0
    6.4826   -3.5159   22.3522 H   0  0  0  0  0  0  0  0  0  0  0  0
    6.8888   -1.8461   23.4208 O   0  0  0  0  0  0  0  0  0  0  0  0
    6.9934   -0.4281   23.3549 C   0  0  0  0  0  0  0  0  0  0  0  0
    7.4559   -0.1068   24.2914 H   0  0  0  0  0  0  0  0  0  0  0  0
    6.0080    0.0581   23.2942 H   0  0  0  0  0  0  0  0  0  0  0  0
    7.8869    0.0224   22.1510 C   0  0  2  0  0  0  0  0  0  0  0  0
    8.8780   -0.4131   22.3619 H   0  0  0  0  0  0  0  0  0  0  0  0
    8.0040    1.4381   21.9655 N   0  0  0  0  0  0  0  0  0  0  0  0
    7.3076    1.8274   21.3559 H   0  0  0  0  0  0  0  0  0  0  0  0
    8.4818    2.2764   22.9416 C   0  0  0  0  0  0  0  0  0  0  0  0
    9.5127    1.8394   23.7880 C   0  0  0  0  0  0  0  0  0  0  0  0
    9.9200    0.8392   23.6679 H   0  0  0  0  0  0  0  0  0  0  0  0
   10.0205    2.6701   24.7773 C   0  0  0  0  0  0  0  0  0  0  0  0
   10.8073    2.2826   25.4225 H   0  0  0  0  0  0  0  0  0  0  0  0
    9.5137    3.9704   24.9151 C   0  0  0  0  0  0  0  0  0  0  0  0
    9.9076    4.6332   25.6765 H   0  0  0  0  0  0  0  0  0  0  0  0
    8.5022    4.4176   24.0659 C   0  0  0  0  0  0  0  0  0  0  0  0
    8.1067    5.4264   24.1846 H   0  0  0  0  0  0  0  0  0  0  0  0
    7.9565    3.5790   23.0700 C   0  0  0  0  0  0  0  0  0  0  0  0
    6.8069    3.9867   22.2140 C   0  0  0  0  0  0  0  0  0  0  0  0
    5.9820    3.2236   21.7339 O   0  0  0  0  0  0  0  0  0  0  0  0
    6.6700    5.3333   21.9728 N   0  0  0  0  0  0  0  0  0  0  0  0
    6.0352    5.4582   21.1967 H   0  0  0  0  0  0  0  0  0  0  0  0
    7.5520    5.8016   21.8654 H   0  0  0  0  0  0  0  0  0  0  0  0
    5.5075    0.7274   20.1245 C   0  0  0  0  0  0  0  0  0  0  0  0
    5.1297    0.7679   21.1468 H   0  0  0  0  0  0  0  0  0  0  0  0
    4.8228    1.3412   19.0689 C   0  0  0  0  0  0  0  0  0  0  0  0
    3.8785    1.8512   19.2334 H   0  0  0  0  0  0  0  0  0  0  0  0
  1  2  1  0
  2  3  2  0
  3  4  1  0
  4  5  1  0
  4  6  2  0
  6  7  1  0
  7  8  1  0
  8  9  1  0
  8 10  1  0
  8 11  1  0
 11 12  1  0
 11 13  1  0
 11 14  1  0
 14 15  1  0
 15 16  1  0
 15 17  1  0
 15 18  1  0
 18 19  1  1
 18 20  1  0
 20 21  1  0
 20 22  1  0
 22 23  2  0
 23 24  1  0
 23 25  1  0
 25 26  1  0
 25 27  2  0
 27 28  1  0
 27 29  1  0
 29 30  1  0
 29 31  2  0
 31 32  1  0
 32 33  2  0
 32 34  1  0
 34 35  1  0
 34 36  1  0
  6 37  1  0
 37 38  1  0
 37 39  2  0
 39 40  1  0
 39  2  1  0
 18  7  1  0
 31 22  1  0
M  END
>  <cnnaffinity>  (1) 
-4.86828

>  <filename>  (1) 
NC(=O)c1ccccc1N[C@H]1COCCN1c1cccnc1

$$$$
