
     RDKit          3D

 48 52  0  0  0  0  0  0  0  0999 V2000
    9.6526    7.2082   25.4298 N   0  0  0  0  0  0  0  0  0  0  0  0
    9.9098    6.1794   24.5576 C   0  0  0  0  0  0  0  0  0  0  0  0
   10.5739    6.4046   23.5633 O   0  0  0  0  0  0  0  0  0  0  0  0
    9.3547    4.8188   24.9039 C   0  0  0  0  0  0  0  0  0  0  0  0
    8.9920    4.4365   26.2091 C   0  0  0  0  0  0  0  0  0  0  0  0
    8.4729    3.1610   26.4548 C   0  0  0  0  0  0  0  0  0  0  0  0
    8.3317    2.2359   25.4195 C   0  0  0  0  0  0  0  0  0  0  0  0
    8.7536    2.5887   24.1311 C   0  0  0  0  0  0  0  0  0  0  0  0
    8.7518    1.6169   23.0916 N   0  0  0  0  0  0  0  0  0  0  0  0
    7.6586    0.8778   22.7765 N   0  0  0  0  0  0  0  0  0  0  0  0
    8.0472    0.2294   21.7000 C   0  0  0  0  0  0  0  0  0  0  0  0
    7.1195   -0.7063   20.9700 C   0  0  0  0  0  0  0  0  0  0  0  0
    6.4384   -0.0525   19.7772 C   0  0  0  0  0  0  0  0  0  0  0  0
    5.2730    0.7018   19.9523 C   0  0  0  0  0  0  0  0  0  0  0  0
    4.7510    1.3975   18.8609 C   0  0  0  0  0  0  0  0  0  0  0  0
    5.4113    1.3085   17.6314 C   0  0  0  0  0  0  0  0  0  0  0  0
    6.5140    0.5696   17.4314 N   0  0  0  0  0  0  0  0  0  0  0  0
    6.9994   -0.0930   18.4885 C   0  0  0  0  0  0  0  0  0  0  0  0
    7.8959   -0.6896   18.3143 H   0  0  0  0  0  0  0  0  0  0  0  0
    5.0298    1.8379   16.7616 H   0  0  0  0  0  0  0  0  0  0  0  0
    3.8603    2.0092   18.9558 H   0  0  0  0  0  0  0  0  0  0  0  0
    4.7945    0.7466   20.9337 H   0  0  0  0  0  0  0  0  0  0  0  0
    7.7016   -1.5761   20.6511 H   0  0  0  0  0  0  0  0  0  0  0  0
    6.3668   -1.0550   21.6891 H   0  0  0  0  0  0  0  0  0  0  0  0
    9.3280    0.4689   21.3110 N   0  0  0  0  0  0  0  0  0  0  0  0
    9.7680    1.3116   22.2386 C   0  0  0  0  0  0  0  0  0  0  0  0
   11.1953    1.6124   22.5823 C   0  0  0  0  0  0  0  0  0  0  0  0
   11.6051    0.8721   23.8473 C   0  0  0  0  0  0  0  0  0  0  0  0
   11.6213    1.6389   25.1303 C   0  0  0  0  0  0  0  0  0  0  0  0
   12.8920    1.0242   24.5966 C   0  0  0  0  0  0  0  0  0  0  0  0
   13.3030    0.1494   25.0956 H   0  0  0  0  0  0  0  0  0  0  0  0
   13.6513    1.7144   24.2357 H   0  0  0  0  0  0  0  0  0  0  0  0
   11.0897    1.2432   25.9996 H   0  0  0  0  0  0  0  0  0  0  0  0
   11.5456    2.7148   24.9851 H   0  0  0  0  0  0  0  0  0  0  0  0
   11.2071   -0.1406   23.8716 H   0  0  0  0  0  0  0  0  0  0  0  0
   11.8584    2.9355   22.2469 C   0  0  0  0  0  0  0  0  0  0  0  0
   12.1720    1.7119   21.4584 C   0  0  0  0  0  0  0  0  0  0  0  0
   11.7943    1.6320   20.4492 H   0  0  0  0  0  0  0  0  0  0  0  0
   13.1369    1.2574   21.6521 H   0  0  0  0  0  0  0  0  0  0  0  0
   12.6400    3.3010   22.9056 H   0  0  0  0  0  0  0  0  0  0  0  0
   11.2821    3.7409   21.8045 H   0  0  0  0  0  0  0  0  0  0  0  0
    9.2191    3.8803   23.8669 C   0  0  0  0  0  0  0  0  0  0  0  0
    9.4766    4.1459   22.8443 H   0  0  0  0  0  0  0  0  0  0  0  0
    7.9314    1.2425   25.5978 H   0  0  0  0  0  0  0  0  0  0  0  0
    8.1797    2.8880   27.4658 H   0  0  0  0  0  0  0  0  0  0  0  0
    9.1085    5.1284   27.0396 H   0  0  0  0  0  0  0  0  0  0  0  0
    9.9042    8.0666   24.9658 H   0  0  0  0  0  0  0  0  0  0  0  0
    8.7529    7.1929   25.8850 H   0  0  0  0  0  0  0  0  0  0  0  0
  1  2  1  0
  2  3  2  0
  2  4  1  0
  4  5  2  0
  5  6  1  0
  6  7  2  0
  7  8  1  0
  8  9  1  0
  9 10  1  0
 10 11  2  0
 11 12  1  0
 12 13  1  0
 13 14  2  0
 14 15  1  0
 15 16  2  0
 16 17  1  0
 17 18  2  0
 18 19  1  0
 16 20  1  0
 15 21  1  0
 14 22  1  0
 12 23  1  0
 12 24  1  0
 11 25  1  0
 25 26  2  0
 26 27  1  0
 27 28  1  0
 28 29  1  0
 29 30  1  0
 30 31  1  0
 30 32  1  0
 29 33  1  0
 29 34  1  0
 28 35  1  0
 27 36  1  0
 36 37  1  0
 37 38  1  0
 37 39  1  0
 36 40  1  0
 36 41  1  0
  8 42  2  0
 42 43  1  0
  7 44  1  0
  6 45  1  0
  5 46  1  0
  1 47  1  0
  1 48  1  0
 42  4  1  0
 26  9  1  0
 37 27  1  0
 18 13  1  0
 30 28  1  0
M  END
>  <cnnaffinity>  (1) 
-5.63203

>  <filename>  (1) 
NC(=O)c1cccc(-n2nc(Cc3cccnc3)nc2C2(C3CC3)CC2)c1

$$$$
