
     RDKit          3D

 44 47  0  0  0  0  0  0  0  0999 V2000
   10.3792    7.2527   25.5459 N   0  0  0  0  0  0  0  0  0  0  0  0
    9.9267    6.4082   24.5615 C   0  0  0  0  0  0  0  0  0  0  0  0
   10.0243    6.7683   23.4021 O   0  0  0  0  0  0  0  0  0  0  0  0
    9.2985    5.0979   24.9701 C   0  0  0  0  0  0  0  0  0  0  0  0
    8.9557    4.7527   26.2875 C   0  0  0  0  0  0  0  0  0  0  0  0
    8.4346    3.4865   26.5596 C   0  0  0  0  0  0  0  0  0  0  0  0
    8.2415    2.5496   25.5375 C   0  0  0  0  0  0  0  0  0  0  0  0
    8.5974    2.8793   24.2213 C   0  0  0  0  0  0  0  0  0  0  0  0
    8.5977    1.8932   23.1754 N   0  0  0  0  0  0  0  0  0  0  0  0
    7.5444    1.0783   22.8781 N   0  0  0  0  0  0  0  0  0  0  0  0
    8.0031    0.3657   21.8625 C   0  0  0  0  0  0  0  0  0  0  0  0
    7.2168   -0.6390   21.0656 C   0  0  0  0  0  0  0  0  0  0  0  0
    6.5161   -0.0329   19.8502 C   0  0  0  0  0  0  0  0  0  0  0  0
    5.3278    0.6825   20.0311 C   0  0  0  0  0  0  0  0  0  0  0  0
    4.7652    1.3550   18.9449 C   0  0  0  0  0  0  0  0  0  0  0  0
    5.4100    1.2884   17.7076 C   0  0  0  0  0  0  0  0  0  0  0  0
    6.5291    0.5779   17.4982 N   0  0  0  0  0  0  0  0  0  0  0  0
    7.0549   -0.0660   18.5493 C   0  0  0  0  0  0  0  0  0  0  0  0
    7.9599   -0.6385   18.3418 H   0  0  0  0  0  0  0  0  0  0  0  0
    5.0136    1.8285   16.8491 H   0  0  0  0  0  0  0  0  0  0  0  0
    3.8589    1.9401   19.0485 H   0  0  0  0  0  0  0  0  0  0  0  0
    4.8691    0.7165   21.0202 H   0  0  0  0  0  0  0  0  0  0  0  0
    6.4922   -1.1172   21.7316 H   0  0  0  0  0  0  0  0  0  0  0  0
    7.9304   -1.4050   20.7435 H   0  0  0  0  0  0  0  0  0  0  0  0
    9.2857    0.6285   21.5172 N   0  0  0  0  0  0  0  0  0  0  0  0
    9.6332    1.5846   22.3505 C   0  0  0  0  0  0  0  0  0  0  0  0
   10.9492    2.2558   22.3276 C   0  0  0  0  0  0  0  0  0  0  0  0
   12.0750    1.5761   21.5231 C   0  0  0  0  0  0  0  0  0  0  0  0
   12.9614    1.5105   22.7852 C   0  0  0  0  0  0  0  0  0  0  0  0
   11.8312    2.1633   23.5759 C   0  0  0  0  0  0  0  0  0  0  0  0
   11.3177    1.4165   24.5803 F   0  0  0  0  0  0  0  0  0  0  0  0
   12.1264    3.3810   24.1009 F   0  0  0  0  0  0  0  0  0  0  0  0
   13.2053    0.5066   23.1419 H   0  0  0  0  0  0  0  0  0  0  0  0
   13.8818    2.1034   22.7754 H   0  0  0  0  0  0  0  0  0  0  0  0
   12.4535    2.1938   20.7047 H   0  0  0  0  0  0  0  0  0  0  0  0
   11.7897    0.6008   21.1237 H   0  0  0  0  0  0  0  0  0  0  0  0
   10.8220    3.2999   22.0411 H   0  0  0  0  0  0  0  0  0  0  0  0
    9.0635    4.1687   23.9407 C   0  0  0  0  0  0  0  0  0  0  0  0
    9.2383    4.4722   22.9117 H   0  0  0  0  0  0  0  0  0  0  0  0
    7.8382    1.5676   25.7653 H   0  0  0  0  0  0  0  0  0  0  0  0
    8.1959    3.2250   27.5875 H   0  0  0  0  0  0  0  0  0  0  0  0
    9.0739    5.4703   27.0981 H   0  0  0  0  0  0  0  0  0  0  0  0
   10.8384    8.0198   25.0780 H   0  0  0  0  0  0  0  0  0  0  0  0
   10.8741    6.8444   26.3218 H   0  0  0  0  0  0  0  0  0  0  0  0
  1  2  1  0
  2  3  2  0
  2  4  1  0
  4  5  2  0
  5  6  1  0
  6  7  2  0
  7  8  1  0
  8  9  1  0
  9 10  1  0
 10 11  2  0
 11 12  1  0
 12 13  1  0
 13 14  2  0
 14 15  1  0
 15 16  2  0
 16 17  1  0
 17 18  2  0
 18 19  1  0
 16 20  1  0
 15 21  1  0
 14 22  1  0
 12 23  1  0
 12 24  1  0
 11 25  1  0
 25 26  2  0
 26 27  1  0
 27 28  1  0
 28 29  1  0
 29 30  1  0
 30 31  1  0
 30 32  1  0
 29 33  1  0
 29 34  1  0
 28 35  1  0
 28 36  1  0
 27 37  1  0
  8 38  2  0
 38 39  1  0
  7 40  1  0
  6 41  1  0
  5 42  1  0
  1 43  1  0
  1 44  1  0
 38  4  1  0
 26  9  1  0
 30 27  1  0
 18 13  1  0
M  END
>  <cnnaffinity>  (1) 
-6.28378

>  <filename>  (1) 
NC(=O)c1cccc(-n2nc(Cc3cccnc3)nc2C2CCC2(F)F)c1

$$$$
