
     RDKit          3D

 38 40  0  0  0  0  0  0  0  0999 V2000
    4.9508    1.8188   16.9622 H   0  0  0  0  0  0  0  0  0  0  0  0
    5.4306    1.3102   17.7957 C   0  0  0  0  0  0  0  0  0  0  0  0
    6.5943    0.7006   17.5215 N   0  0  0  0  0  0  0  0  0  0  0  0
    7.2104    0.0722   18.5303 C   0  0  0  0  0  0  0  0  0  0  0  0
    8.1552   -0.4147   18.2802 H   0  0  0  0  0  0  0  0  0  0  0  0
    6.7129    0.0099   19.8500 C   0  0  0  0  0  0  0  0  0  0  0  0
    7.4561   -0.6963   20.9895 C   0  0  2  0  0  0  0  0  0  0  0  0
    8.2498   -1.3183   20.5632 H   0  0  0  0  0  0  0  0  0  0  0  0
    6.5818   -1.6614   21.8051 C   0  0  0  0  0  0  0  0  0  0  0  0
    5.9027   -2.5735   21.3893 O   0  0  0  0  0  0  0  0  0  0  0  0
    6.6763   -1.3340   23.1212 N   0  0  0  0  0  0  0  0  0  0  0  0
    6.2501   -1.9774   23.7665 H   0  0  0  0  0  0  0  0  0  0  0  0
    7.7315   -0.4057   23.4367 C   0  0  0  0  0  0  0  0  0  0  0  0
    7.4287    0.3457   24.1768 H   0  0  0  0  0  0  0  0  0  0  0  0
    8.6310   -0.9046   23.8344 H   0  0  0  0  0  0  0  0  0  0  0  0
    8.0455    0.2481   22.0604 C   0  0  1  0  0  0  0  0  0  0  0  0
    7.4960    1.2009   22.0034 H   0  0  0  0  0  0  0  0  0  0  0  0
    9.4530    0.4950   21.8531 N   0  0  0  0  0  0  0  0  0  0  0  0
   10.0316   -0.3269   21.6475 H   0  0  0  0  0  0  0  0  0  0  0  0
   10.1486    1.3603   22.6773 C   0  0  0  0  0  0  0  0  0  0  0  0
    9.4956    2.4061   23.3538 C   0  0  0  0  0  0  0  0  0  0  0  0
    8.4186    2.5130   23.2760 H   0  0  0  0  0  0  0  0  0  0  0  0
   10.2128    3.3145   24.1181 C   0  0  0  0  0  0  0  0  0  0  0  0
    9.7001    4.1342   24.6220 H   0  0  0  0  0  0  0  0  0  0  0  0
   11.5991    3.1866   24.2233 C   0  0  0  0  0  0  0  0  0  0  0  0
   12.1493    3.9475   24.7603 H   0  0  0  0  0  0  0  0  0  0  0  0
   12.2554    2.1167   23.6169 C   0  0  0  0  0  0  0  0  0  0  0  0
   13.3222    1.9692   23.7867 H   0  0  0  0  0  0  0  0  0  0  0  0
   11.5489    1.1918   22.8156 C   0  0  0  0  0  0  0  0  0  0  0  0
   12.2030    0.0200   22.1844 C   0  0  0  0  0  0  0  0  0  0  0  0
   11.6325   -0.9635   21.7160 O   0  0  0  0  0  0  0  0  0  0  0  0
   13.5756    0.0127   22.1447 N   0  0  0  0  0  0  0  0  0  0  0  0
   13.9635    0.9044   21.8743 H   0  0  0  0  0  0  0  0  0  0  0  0
   13.8221   -0.7608   21.5425 H   0  0  0  0  0  0  0  0  0  0  0  0
    5.4929    0.6519   20.1064 C   0  0  0  0  0  0  0  0  0  0  0  0
    5.0599    0.6280   21.1097 H   0  0  0  0  0  0  0  0  0  0  0  0
    4.8418    1.3120   19.0629 C   0  0  0  0  0  0  0  0  0  0  0  0
    3.9031    1.8302   19.2189 H   0  0  0  0  0  0  0  0  0  0  0  0
  1  2  1  0
  2  3  2  0
  3  4  1  0
  4  5  1  0
  4  6  2  0
  6  7  1  0
  7  8  1  6
  7  9  1  0
  9 10  2  0
  9 11  1  0
 11 12  1  0
 11 13  1  0
 13 14  1  0
 13 15  1  0
 13 16  1  0
 16 17  1  1
 16 18  1  0
 18 19  1  0
 18 20  1  0
 20 21  2  0
 21 22  1  0
 21 23  1  0
 23 24  1  0
 23 25  2  0
 25 26  1  0
 25 27  1  0
 27 28  1  0
 27 29  2  0
 29 30  1  0
 30 31  2  0
 30 32  1  0
 32 33  1  0
 32 34  1  0
  6 35  1  0
 35 36  1  0
 35 37  2  0
 37 38  1  0
 37  2  1  0
 16  7  1  0
 29 20  1  0
M  END
>  <cnnaffinity>  (1) 
-5.26569

>  <filename>  (1) 
NC(=O)c1ccccc1N[C@@H]1CNC(=O)[C@H]1c1cccnc1

$$$$
