
     RDKit          3D

 48 50  0  0  0  0  0  0  0  0999 V2000
    5.2994    5.5826   23.8119 N   0  0  0  0  0  0  0  0  0  0  0  0
    5.2879    4.5231   22.9116 C   0  0  0  0  0  0  0  0  0  0  0  0
    6.1935    4.4217   22.1189 O   0  0  0  0  0  0  0  0  0  0  0  0
    4.0692    3.6335   22.9453 C   0  0  0  0  0  0  0  0  0  0  0  0
    3.3444    3.4303   21.7547 C   0  0  0  0  0  0  0  0  0  0  0  0
    2.0650    2.8698   21.7848 C   0  0  0  0  0  0  0  0  0  0  0  0
    1.4996    2.4869   23.0074 C   0  0  0  0  0  0  0  0  0  0  0  0
    2.2567    2.5922   24.1798 C   0  0  0  0  0  0  0  0  0  0  0  0
    3.5499    3.1378   24.1588 C   0  0  0  0  0  0  0  0  0  0  0  0
    4.3691    3.1500   25.4370 C   0  0  0  0  0  0  0  0  0  0  0  0
    5.4536    2.0891   25.5069 C   0  0  0  0  0  0  0  0  0  0  0  0
    5.5033    1.2123   26.3367 O   0  0  0  0  0  0  0  0  0  0  0  0
    6.3919    2.2891   24.5600 O   0  0  0  0  0  0  0  0  0  0  0  0
    7.5623    1.4407   24.6262 C   0  0  0  0  0  0  0  0  0  0  0  0
    8.4757    1.8110   23.4883 C   0  0  0  0  0  0  0  0  0  0  0  0
    9.3943    2.8594   23.6299 C   0  0  0  0  0  0  0  0  0  0  0  0
   10.2733    3.1753   22.5932 C   0  0  0  0  0  0  0  0  0  0  0  0
   11.3919    4.4909   22.7893 Cl  0  0  0  0  0  0  0  0  0  0  0  0
   10.2485    2.4550   21.4021 C   0  0  0  0  0  0  0  0  0  0  0  0
    9.3210    1.4222   21.2396 C   0  0  0  0  0  0  0  0  0  0  0  0
    8.4291    1.0996   22.2692 C   0  0  0  0  0  0  0  0  0  0  0  0
    7.5057    0.0872   22.1989 O   0  0  0  0  0  0  0  0  0  0  0  0
    7.3783   -0.6944   21.0182 C   0  0  0  0  0  0  0  0  0  0  0  0
    6.6450    0.0203   19.9083 C   0  0  0  0  0  0  0  0  0  0  0  0
    5.4367    0.6861   20.1507 C   0  0  0  0  0  0  0  0  0  0  0  0
    4.8030    1.3164   19.0805 C   0  0  0  0  0  0  0  0  0  0  0  0
    5.4044    1.2942   17.8189 C   0  0  0  0  0  0  0  0  0  0  0  0
    6.5607    0.6652   17.5702 N   0  0  0  0  0  0  0  0  0  0  0  0
    7.1551    0.0531   18.6031 C   0  0  0  0  0  0  0  0  0  0  0  0
    8.1007   -0.4428   18.3755 H   0  0  0  0  0  0  0  0  0  0  0  0
    4.9356    1.7949   16.9727 H   0  0  0  0  0  0  0  0  0  0  0  0
    3.8614    1.8342   19.2136 H   0  0  0  0  0  0  0  0  0  0  0  0
    5.0205    0.7230   21.1625 H   0  0  0  0  0  0  0  0  0  0  0  0
    6.8219   -1.5772   21.3466 H   0  0  0  0  0  0  0  0  0  0  0  0
    8.3640   -1.0493   20.6917 H   0  0  0  0  0  0  0  0  0  0  0  0
    9.2834    0.8741   20.3091 H   0  0  0  0  0  0  0  0  0  0  0  0
   10.9461    2.7102   20.6115 H   0  0  0  0  0  0  0  0  0  0  0  0
    9.4330    3.4448   24.5463 H   0  0  0  0  0  0  0  0  0  0  0  0
    7.2487    0.3936   24.5679 H   0  0  0  0  0  0  0  0  0  0  0  0
    8.0508    1.6063   25.5941 H   0  0  0  0  0  0  0  0  0  0  0  0
    3.7241    2.9903   26.3001 H   0  0  0  0  0  0  0  0  0  0  0  0
    4.8693    4.1177   25.5489 H   0  0  0  0  0  0  0  0  0  0  0  0
    1.8572    2.2032   25.1187 H   0  0  0  0  0  0  0  0  0  0  0  0
    0.4943    2.0676   23.0427 H   0  0  0  0  0  0  0  0  0  0  0  0
    1.4983    2.7523   20.8608 H   0  0  0  0  0  0  0  0  0  0  0  0
    3.7651    3.7775   20.8121 H   0  0  0  0  0  0  0  0  0  0  0  0
    6.0150    6.2198   23.4836 H   0  0  0  0  0  0  0  0  0  0  0  0
    4.3958    6.0092   23.9579 H   0  0  0  0  0  0  0  0  0  0  0  0
  1  2  1  0
  2  3  2  0
  2  4  1  0
  4  5  2  0
  5  6  1  0
  6  7  2  0
  7  8  1  0
  8  9  2  0
  9 10  1  0
 10 11  1  0
 11 12  2  0
 11 13  1  0
 13 14  1  0
 14 15  1  0
 15 16  2  0
 16 17  1  0
 17 18  1  0
 17 19  2  0
 19 20  1  0
 20 21  2  0
 21 22  1  0
 22 23  1  0
 23 24  1  0
 24 25  2  0
 25 26  1  0
 26 27  2  0
 27 28  1  0
 28 29  2  0
 29 30  1  0
 27 31  1  0
 26 32  1  0
 25 33  1  0
 23 34  1  0
 23 35  1  0
 20 36  1  0
 19 37  1  0
 16 38  1  0
 14 39  1  0
 14 40  1  0
 10 41  1  0
 10 42  1  0
  8 43  1  0
  7 44  1  0
  6 45  1  0
  5 46  1  0
  1 47  1  0
  1 48  1  0
  9  4  1  0
 21 15  1  0
 29 24  1  0
M  END
>  <cnnaffinity>  (1) 
-5.34158

>  <filename>  (1) 
NC(=O)c1ccccc1CC(=O)OCc1cc(Cl)ccc1OCc1cccnc1

$$$$
