
     RDKit          3D

 18 18  0  0  0  0  0  0  0  0999 V2000
    4.9966    1.8328   16.9868 H   0  0  0  0  0  0  0  0  0  0  0  0
    5.4537    1.2987   17.8209 C   0  0  0  0  0  0  0  0  0  0  0  0
    6.6223    0.6869   17.5789 N   0  0  0  0  0  0  0  0  0  0  0  0
    7.1987    0.0472   18.5957 C   0  0  0  0  0  0  0  0  0  0  0  0
    8.1525   -0.4317   18.3905 H   0  0  0  0  0  0  0  0  0  0  0  0
    6.6465   -0.0543   19.8750 C   0  0  0  0  0  0  0  0  0  0  0  0
    7.4709   -0.8121   20.8499 C   0  0  0  0  0  0  0  0  0  0  0  0
    7.2301   -1.8024   21.6326 N   0  0  0  0  0  0  0  0  0  0  0  0
    5.9407   -2.3680   21.6856 N   0  0  0  0  0  0  0  0  0  0  0  0
    5.2990   -3.1796   22.3285 C   0  0  0  0  0  0  0  0  0  0  0  0
    4.2065   -4.1907   22.8652 S   0  0  0  0  0  0  0  0  0  0  0  0
    8.7982   -0.4349   20.8552 N   0  0  0  0  0  0  0  0  0  0  0  0
    8.9077    0.5605   20.7600 H   0  0  0  0  0  0  0  0  0  0  0  0
    9.1871   -0.8139   21.7065 H   0  0  0  0  0  0  0  0  0  0  0  0
    5.4349    0.6013   20.1321 C   0  0  0  0  0  0  0  0  0  0  0  0
    4.9768    0.5812   21.1236 H   0  0  0  0  0  0  0  0  0  0  0  0
    4.8386    1.2936   19.0762 C   0  0  0  0  0  0  0  0  0  0  0  0
    3.9112    1.8331   19.2165 H   0  0  0  0  0  0  0  0  0  0  0  0
  1  2  1  0
  2  3  2  0
  3  4  1  0
  4  5  1  0
  4  6  2  0
  6  7  1  0
  7  8  2  3
  8  9  1  0
  9 10  2  0
 10 11  2  0
  7 12  1  0
 12 13  1  0
 12 14  1  0
  6 15  1  0
 15 16  1  0
 15 17  2  0
 17 18  1  0
 17  2  1  0
M  END
>  <cnnaffinity>  (1) 
-3.76399

>  <filename>  (1) 
NC(=NN=C=S)c1cccnc1

$$$$
