
     RDKit          3D

 41 43  0  0  0  0  0  0  0  0999 V2000
    6.8946    1.3887   22.2415 H   0  0  0  0  0  0  0  0  0  0  0  0
    7.1840    0.3391   22.1519 C   0  0  0  0  0  0  0  0  0  0  0  0
    7.0860   -0.2780   20.9651 C   0  0  0  0  0  0  0  0  0  0  0  0
    6.4449    0.3534   19.7718 C   0  0  0  0  0  0  0  0  0  0  0  0
    7.0261    0.2389   18.4920 C   0  0  0  0  0  0  0  0  0  0  0  0
    7.9606   -0.3101   18.3704 H   0  0  0  0  0  0  0  0  0  0  0  0
    6.5209    0.7664   17.3695 N   0  0  0  0  0  0  0  0  0  0  0  0
    5.3714    1.4499   17.4791 C   0  0  0  0  0  0  0  0  0  0  0  0
    4.9836    1.8837   16.5596 H   0  0  0  0  0  0  0  0  0  0  0  0
    4.6879    1.6145   18.6895 C   0  0  0  0  0  0  0  0  0  0  0  0
    3.7690    2.1914   18.7116 H   0  0  0  0  0  0  0  0  0  0  0  0
    5.2296    1.0600   19.8518 C   0  0  0  0  0  0  0  0  0  0  0  0
    4.7142    1.1475   20.8100 H   0  0  0  0  0  0  0  0  0  0  0  0
    7.6507   -1.6839   20.7460 C   0  0  0  0  0  0  0  0  0  0  0  0
    6.9935   -2.2291   20.0623 H   0  0  0  0  0  0  0  0  0  0  0  0
    8.6261   -1.5943   20.2386 H   0  0  0  0  0  0  0  0  0  0  0  0
    7.7920   -2.4700   22.0498 C   0  0  0  0  0  0  0  0  0  0  0  0
    8.3336   -3.4082   21.8897 H   0  0  0  0  0  0  0  0  0  0  0  0
    6.7916   -2.7348   22.4172 H   0  0  0  0  0  0  0  0  0  0  0  0
    8.5074   -1.6100   23.1036 C   0  0  2  0  0  0  0  0  0  0  0  0
    9.4475   -1.2436   22.6510 H   0  0  0  0  0  0  0  0  0  0  0  0
    8.9503   -2.2998   24.3183 N   0  0  0  0  0  0  0  0  0  0  0  0
    9.9558   -2.4361   24.2547 H   0  0  0  0  0  0  0  0  0  0  0  0
    8.4425   -3.4950   24.8108 C   0  0  0  0  0  0  0  0  0  0  0  0
    7.0688   -3.6679   25.0195 C   0  0  0  0  0  0  0  0  0  0  0  0
    6.3901   -2.8897   24.6935 H   0  0  0  0  0  0  0  0  0  0  0  0
    6.5632   -4.8426   25.5777 C   0  0  0  0  0  0  0  0  0  0  0  0
    5.4899   -4.9667   25.7086 H   0  0  0  0  0  0  0  0  0  0  0  0
    7.4442   -5.8604   25.9544 C   0  0  0  0  0  0  0  0  0  0  0  0
    7.0558   -6.7843   26.3733 H   0  0  0  0  0  0  0  0  0  0  0  0
    8.8108   -5.7204   25.7263 C   0  0  0  0  0  0  0  0  0  0  0  0
    9.4658   -6.5548   25.9784 H   0  0  0  0  0  0  0  0  0  0  0  0
    9.3336   -4.5511   25.1367 C   0  0  0  0  0  0  0  0  0  0  0  0
   10.7524   -4.4266   24.7503 C   0  0  0  0  0  0  0  0  0  0  0  0
   11.2088   -3.5638   24.0020 O   0  0  0  0  0  0  0  0  0  0  0  0
   11.6608   -5.2834   25.2802 N   0  0  0  0  0  0  0  0  0  0  0  0
   12.5233   -5.0844   24.8152 H   0  0  0  0  0  0  0  0  0  0  0  0
   11.4525   -6.2559   25.4326 H   0  0  0  0  0  0  0  0  0  0  0  0
    7.6841   -0.3453   23.4158 C   0  0  0  0  0  0  0  0  0  0  0  0
    8.2899    0.3492   24.0075 H   0  0  0  0  0  0  0  0  0  0  0  0
    6.8230   -0.6119   24.0465 H   0  0  0  0  0  0  0  0  0  0  0  0
  1  2  1  0
  2  3  2  0
  3  4  1  0
  4  5  2  0
  5  6  1  0
  5  7  1  0
  7  8  2  0
  8  9  1  0
  8 10  1  0
 10 11  1  0
 10 12  2  0
 12 13  1  0
  3 14  1  0
 14 15  1  0
 14 16  1  0
 14 17  1  0
 17 18  1  0
 17 19  1  0
 17 20  1  0
 20 21  1  6
 20 22  1  0
 22 23  1  0
 22 24  1  0
 24 25  2  0
 25 26  1  0
 25 27  1  0
 27 28  1  0
 27 29  2  0
 29 30  1  0
 29 31  1  0
 31 32  1  0
 31 33  2  0
 33 34  1  0
 34 35  2  0
 34 36  1  0
 36 37  1  0
 36 38  1  0
 20 39  1  0
 39 40  1  0
 39 41  1  0
 39  2  1  0
 12  4  1  0
 33 24  1  0
M  END
>  <cnnaffinity>  (1) 
-5.44995

>  <filename>  (1) 
NC(=O)c1ccccc1N[C@@H]1CC=C(c2cccnc2)CC1

$$$$
