
     RDKit          3D

 24 25  0  0  0  0  0  0  0  0999 V2000
    8.5398    1.6907   26.6965 H   0  0  0  0  0  0  0  0  0  0  0  0
    7.9571    1.9291   25.8185 C   0  0  0  0  0  0  0  0  0  0  0  0
    7.2992    3.0090   25.5760 N   0  0  0  0  0  0  0  0  0  0  0  0
    6.7524    2.7957   24.3224 C   0  0  0  0  0  0  0  0  0  0  0  0
    6.1319    3.5270   23.8280 H   0  0  0  0  0  0  0  0  0  0  0  0
    7.1217    1.5663   23.8502 C   0  0  0  0  0  0  0  0  0  0  0  0
    6.8312    0.9534   22.6772 N   0  0  0  0  0  0  0  0  0  0  0  0
    7.3763   -0.1271   22.2905 C   0  0  0  0  0  0  0  0  0  0  0  0
    8.1911   -0.9728   22.9841 N   0  0  0  0  0  0  0  0  0  0  0  0
    8.2311   -0.6892   23.9497 H   0  0  0  0  0  0  0  0  0  0  0  0
    7.7580   -1.8732   22.8501 H   0  0  0  0  0  0  0  0  0  0  0  0
    7.2382   -0.6740   21.0443 N   0  0  0  0  0  0  0  0  0  0  0  0
    8.0580   -1.2506   20.9742 H   0  0  0  0  0  0  0  0  0  0  0  0
    6.6491   -0.0550   19.9000 C   0  0  0  0  0  0  0  0  0  0  0  0
    7.2042   -0.0568   18.5904 C   0  0  0  0  0  0  0  0  0  0  0  0
    8.1495   -0.5601   18.4029 H   0  0  0  0  0  0  0  0  0  0  0  0
    6.6545    0.5587   17.5308 N   0  0  0  0  0  0  0  0  0  0  0  0
    5.4929    1.2023   17.7266 C   0  0  0  0  0  0  0  0  0  0  0  0
    5.0567    1.6881   16.8576 H   0  0  0  0  0  0  0  0  0  0  0  0
    4.8447    1.2498   18.9650 C   0  0  0  0  0  0  0  0  0  0  0  0
    3.9081    1.7920   19.0641 H   0  0  0  0  0  0  0  0  0  0  0  0
    5.4269    0.6117   20.0658 C   0  0  0  0  0  0  0  0  0  0  0  0
    4.9819    0.6474   21.0595 H   0  0  0  0  0  0  0  0  0  0  0  0
    7.9067    0.9954   24.8377 O   0  0  0  0  0  0  0  0  0  0  0  0
  1  2  1  0
  2  3  2  0
  3  4  1  0
  4  5  1  0
  4  6  2  0
  6  7  1  0
  7  8  2  3
  8  9  1  0
  9 10  1  0
  9 11  1  0
  8 12  1  0
 12 13  1  0
 12 14  1  0
 14 15  2  0
 15 16  1  0
 15 17  1  0
 17 18  2  0
 18 19  1  0
 18 20  1  0
 20 21  1  0
 20 22  2  0
 22 23  1  0
  6 24  1  0
 24  2  1  0
 22 14  1  0
M  END
>  <cnnaffinity>  (1) 
-4.2734

>  <filename>  (1) 
NC(=Nc1cnco1)Nc1cccnc1

$$$$
