
     RDKit          3D

 34 36  0  0  0  0  0  0  0  0999 V2000
    5.1015    1.7969   17.0635 H   0  0  0  0  0  0  0  0  0  0  0  0
    5.5962    1.2798   17.8834 C   0  0  0  0  0  0  0  0  0  0  0  0
    6.7788    0.7104   17.6057 N   0  0  0  0  0  0  0  0  0  0  0  0
    7.4034    0.0546   18.5947 C   0  0  0  0  0  0  0  0  0  0  0  0
    8.3725   -0.3810   18.3574 H   0  0  0  0  0  0  0  0  0  0  0  0
    6.8552   -0.1047   19.8866 C   0  0  0  0  0  0  0  0  0  0  0  0
    7.4662   -0.9219   20.9106 N   0  0  0  0  0  0  0  0  0  0  0  0
    8.6966   -0.7758   21.5399 C   0  0  0  0  0  0  0  0  0  0  0  0
    9.5966    0.1431   21.0786 N   0  0  0  0  0  0  0  0  0  0  0  0
    9.1793    1.0647   20.9677 H   0  0  0  0  0  0  0  0  0  0  0  0
   10.9063    0.2100   21.5641 C   0  0  0  0  0  0  0  0  0  0  0  0
   11.6719   -0.9587   21.5488 C   0  0  0  0  0  0  0  0  0  0  0  0
   11.1813   -1.8629   21.2101 H   0  0  0  0  0  0  0  0  0  0  0  0
   12.9935   -0.9511   21.9819 C   0  0  0  0  0  0  0  0  0  0  0  0
   13.5567   -1.8787   22.0107 H   0  0  0  0  0  0  0  0  0  0  0  0
   13.5689    0.2430   22.4299 C   0  0  0  0  0  0  0  0  0  0  0  0
   14.5981    0.2626   22.7764 H   0  0  0  0  0  0  0  0  0  0  0  0
   12.8294    1.4245   22.4109 C   0  0  0  0  0  0  0  0  0  0  0  0
   13.3274    2.3513   22.6954 H   0  0  0  0  0  0  0  0  0  0  0  0
   11.4731    1.4294   22.0014 C   0  0  0  0  0  0  0  0  0  0  0  0
   10.5987    2.6296   22.0681 C   0  0  0  0  0  0  0  0  0  0  0  0
    9.4869    2.7160   21.5468 O   0  0  0  0  0  0  0  0  0  0  0  0
   11.0437    3.7294   22.7420 N   0  0  0  0  0  0  0  0  0  0  0  0
   10.2625    4.3547   22.8543 H   0  0  0  0  0  0  0  0  0  0  0  0
   11.6801    3.6452   23.5138 H   0  0  0  0  0  0  0  0  0  0  0  0
    8.8504   -1.6026   22.5379 N   0  0  0  0  0  0  0  0  0  0  0  0
    7.6752   -2.3056   22.5289 N   0  0  0  0  0  0  0  0  0  0  0  0
    7.4331   -3.0291   23.1857 H   0  0  0  0  0  0  0  0  0  0  0  0
    6.8359   -1.9907   21.5371 C   0  0  0  0  0  0  0  0  0  0  0  0
    5.4431   -2.8184   21.1769 S   0  0  0  0  0  0  0  0  0  0  0  0
    5.6296    0.5061   20.1663 C   0  0  0  0  0  0  0  0  0  0  0  0
    5.1948    0.4082   21.1631 H   0  0  0  0  0  0  0  0  0  0  0  0
    4.9940    1.2183   19.1451 C   0  0  0  0  0  0  0  0  0  0  0  0
    4.0477    1.7177   19.3171 H   0  0  0  0  0  0  0  0  0  0  0  0
  1  2  1  0
  2  3  2  0
  3  4  1  0
  4  5  1  0
  4  6  2  0
  6  7  1  0
  7  8  1  0
  8  9  1  0
  9 10  1  0
  9 11  1  0
 11 12  2  0
 12 13  1  0
 12 14  1  0
 14 15  1  0
 14 16  2  0
 16 17  1  0
 16 18  1  0
 18 19  1  0
 18 20  2  0
 20 21  1  0
 21 22  2  0
 21 23  1  0
 23 24  1  0
 23 25  1  0
  8 26  2  0
 26 27  1  0
 27 28  1  0
 27 29  1  0
 29 30  2  0
  6 31  1  0
 31 32  1  0
 31 33  2  0
 33 34  1  0
 33  2  1  0
 29  7  1  0
 20 11  1  0
M  END
>  <cnnaffinity>  (1) 
-5.85622

>  <filename>  (1) 
NC(=O)c1ccccc1Nc1n[nH]c(=S)n1-c1cccnc1

$$$$
