
     RDKit          3D

 29 30  0  0  0  0  0  0  0  0999 V2000
    4.9313    1.7971   17.0695 H   0  0  0  0  0  0  0  0  0  0  0  0
    5.4472    1.2679   17.8658 C   0  0  0  0  0  0  0  0  0  0  0  0
    6.6186    0.6891   17.5499 N   0  0  0  0  0  0  0  0  0  0  0  0
    7.2827    0.0584   18.5302 C   0  0  0  0  0  0  0  0  0  0  0  0
    8.2321   -0.4029   18.2663 H   0  0  0  0  0  0  0  0  0  0  0  0
    6.8061   -0.0472   19.8666 C   0  0  0  0  0  0  0  0  0  0  0  0
    7.4480   -0.7765   20.8883 N   0  0  0  0  0  0  0  0  0  0  0  0
    6.9721   -0.8222   21.7728 H   0  0  0  0  0  0  0  0  0  0  0  0
    8.7690   -0.7172   21.2556 C   0  0  0  0  0  0  0  0  0  0  0  0
    9.6655   -0.0981   20.6036 N   0  0  0  0  0  0  0  0  0  0  0  0
   11.2311   -0.0263   21.3103 S   0  0  0  0  0  0  0  0  0  0  0  0
   11.1054    1.4338   22.3405 C   0  0  0  0  0  0  0  0  0  0  0  0
   10.9459    1.2896   23.7237 C   0  0  0  0  0  0  0  0  0  0  0  0
   10.9510    0.2981   24.1652 H   0  0  0  0  0  0  0  0  0  0  0  0
   10.7631    2.4072   24.5353 C   0  0  0  0  0  0  0  0  0  0  0  0
   10.6050    2.2340   25.5946 H   0  0  0  0  0  0  0  0  0  0  0  0
   10.7915    3.6948   23.9836 C   0  0  0  0  0  0  0  0  0  0  0  0
   10.6661    4.5694   24.6226 H   0  0  0  0  0  0  0  0  0  0  0  0
   11.0082    3.8465   22.6082 C   0  0  0  0  0  0  0  0  0  0  0  0
   11.0758    4.8446   22.1791 H   0  0  0  0  0  0  0  0  0  0  0  0
   11.1529    2.7204   21.7832 C   0  0  0  0  0  0  0  0  0  0  0  0
   11.2873    2.8334   20.7113 H   0  0  0  0  0  0  0  0  0  0  0  0
    8.8748   -1.4706   22.3993 N   0  0  0  0  0  0  0  0  0  0  0  0
    9.8373   -1.7654   22.4741 H   0  0  0  0  0  0  0  0  0  0  0  0
    8.2626   -2.2468   22.2156 H   0  0  0  0  0  0  0  0  0  0  0  0
    5.5758    0.5524   20.1638 C   0  0  0  0  0  0  0  0  0  0  0  0
    5.1744    0.4901   21.1762 H   0  0  0  0  0  0  0  0  0  0  0  0
    4.8938    1.2269   19.1499 C   0  0  0  0  0  0  0  0  0  0  0  0
    3.9594    1.7358   19.3584 H   0  0  0  0  0  0  0  0  0  0  0  0
  1  2  1  0
  2  3  2  0
  3  4  1  0
  4  5  1  0
  4  6  2  0
  6  7  1  0
  7  8  1  0
  7  9  1  0
  9 10  2  3
 10 11  1  0
 11 12  1  0
 12 13  2  0
 13 14  1  0
 13 15  1  0
 15 16  1  0
 15 17  2  0
 17 18  1  0
 17 19  1  0
 19 20  1  0
 19 21  2  0
 21 22  1  0
  9 23  1  0
 23 24  1  0
 23 25  1  0
  6 26  1  0
 26 27  1  0
 26 28  2  0
 28 29  1  0
 28  2  1  0
 21 12  1  0
M  END
>  <cnnaffinity>  (1) 
-4.90454

>  <filename>  (1) 
NC(=NSc1ccccc1)Nc1cccnc1

$$$$
