
     RDKit          3D

 33 34  0  0  0  0  0  0  0  0999 V2000
    4.9921    1.8299   16.9234 H   0  0  0  0  0  0  0  0  0  0  0  0
    5.4862    1.3135   17.7443 C   0  0  0  0  0  0  0  0  0  0  0  0
    6.6564    0.7162   17.4577 N   0  0  0  0  0  0  0  0  0  0  0  0
    7.2896    0.0779   18.4518 C   0  0  0  0  0  0  0  0  0  0  0  0
    8.2526   -0.3796   18.2237 H   0  0  0  0  0  0  0  0  0  0  0  0
    6.7966   -0.0143   19.7739 C   0  0  0  0  0  0  0  0  0  0  0  0
    7.5444   -0.6640   20.8145 N   0  0  0  0  0  0  0  0  0  0  0  0
    8.0002   -0.0470   21.4667 H   0  0  0  0  0  0  0  0  0  0  0  0
    6.9590   -1.5369   21.7193 C   0  0  0  0  0  0  0  0  0  0  0  0
    5.9700   -2.2987   21.4388 N   0  0  0  0  0  0  0  0  0  0  0  0
    5.3762   -3.2119   22.5030 N   0  0  0  0  0  0  0  0  0  0  0  0
    4.3714   -3.2499   22.3389 H   0  0  0  0  0  0  0  0  0  0  0  0
    5.3619   -4.9382   22.8176 S   0  0  0  0  0  0  0  0  0  0  0  0
    3.9183   -5.1178   22.8094 O   0  0  0  0  0  0  0  0  0  0  0  0
    6.2445   -5.6744   21.9469 O   0  0  0  0  0  0  0  0  0  0  0  0
    5.9529   -4.9913   24.4877 C   0  0  0  0  0  0  0  0  0  0  0  0
    7.1164   -5.7037   24.8179 C   0  0  0  0  0  0  0  0  0  0  0  0
    7.7169   -6.1984   24.0553 H   0  0  0  0  0  0  0  0  0  0  0  0
    7.4906   -5.8036   26.1606 C   0  0  0  0  0  0  0  0  0  0  0  0
    8.3753   -6.3783   26.4235 H   0  0  0  0  0  0  0  0  0  0  0  0
    6.7357   -5.1850   27.1646 C   0  0  0  0  0  0  0  0  0  0  0  0
    7.0248   -5.2844   28.2101 H   0  0  0  0  0  0  0  0  0  0  0  0
    5.5895   -4.4598   26.8152 C   0  0  0  0  0  0  0  0  0  0  0  0
    4.9945   -3.9769   27.5849 H   0  0  0  0  0  0  0  0  0  0  0  0
    5.1922   -4.3567   25.4828 C   0  0  0  0  0  0  0  0  0  0  0  0
    4.2885   -3.7946   25.2444 H   0  0  0  0  0  0  0  0  0  0  0  0
    7.7325   -1.4252   22.8741 N   0  0  0  0  0  0  0  0  0  0  0  0
    7.3949   -2.1226   23.5283 H   0  0  0  0  0  0  0  0  0  0  0  0
    8.6660   -1.6519   22.5694 H   0  0  0  0  0  0  0  0  0  0  0  0
    5.5680    0.6007   20.0493 C   0  0  0  0  0  0  0  0  0  0  0  0
    5.1574    0.5367   21.0577 H   0  0  0  0  0  0  0  0  0  0  0  0
    4.9101    1.2814   19.0170 C   0  0  0  0  0  0  0  0  0  0  0  0
    3.9610    1.7734   19.1912 H   0  0  0  0  0  0  0  0  0  0  0  0
  1  2  1  0
  2  3  2  0
  3  4  1  0
  4  5  1  0
  4  6  2  0
  6  7  1  0
  7  8  1  0
  7  9  1  0
  9 10  2  3
 10 11  1  0
 11 12  1  0
 11 13  1  0
 13 14  2  0
 13 15  2  0
 13 16  1  0
 16 17  2  0
 17 18  1  0
 17 19  1  0
 19 20  1  0
 19 21  2  0
 21 22  1  0
 21 23  1  0
 23 24  1  0
 23 25  2  0
 25 26  1  0
  9 27  1  0
 27 28  1  0
 27 29  1  0
  6 30  1  0
 30 31  1  0
 30 32  2  0
 32 33  1  0
 32  2  1  0
 25 16  1  0
M  END
>  <cnnaffinity>  (1) 
-4.94566

>  <filename>  (1) 
NC(=NNS(=O)(=O)c1ccccc1)Nc1cccnc1

$$$$
