
     RDKit          3D

 36 38  0  0  0  0  0  0  0  0999 V2000
    4.9149    1.5844   17.2269 H   0  0  0  0  0  0  0  0  0  0  0  0
    5.4559    1.1725   18.0768 C   0  0  0  0  0  0  0  0  0  0  0  0
    6.6584    0.6341   17.8242 N   0  0  0  0  0  0  0  0  0  0  0  0
    7.3457    0.1036   18.8478 C   0  0  0  0  0  0  0  0  0  0  0  0
    8.3150   -0.3264   18.6061 H   0  0  0  0  0  0  0  0  0  0  0  0
    6.8649    0.0653   20.1883 C   0  0  0  0  0  0  0  0  0  0  0  0
    7.5595   -0.4829   21.3142 N   0  0  0  0  0  0  0  0  0  0  0  0
    8.6362   -1.3696   21.2638 C   0  0  0  0  0  0  0  0  0  0  0  0
    9.2509   -1.7226   20.2986 O   0  0  0  0  0  0  0  0  0  0  0  0
    8.9025   -1.8381   22.5077 O   0  0  0  0  0  0  0  0  0  0  0  0
    8.0644   -1.2055   23.4675 C   0  0  0  0  0  0  0  0  0  0  0  0
    8.6927   -0.7412   24.2316 H   0  0  0  0  0  0  0  0  0  0  0  0
    7.4020   -1.9409   23.9357 H   0  0  0  0  0  0  0  0  0  0  0  0
    7.2594   -0.1438   22.6989 C   0  0  1  0  0  0  0  0  0  0  0  0
    6.1826   -0.2492   22.9330 H   0  0  0  0  0  0  0  0  0  0  0  0
    7.7444    1.1947   22.9306 N   0  0  0  0  0  0  0  0  0  0  0  0
    7.7486    1.6567   22.0276 H   0  0  0  0  0  0  0  0  0  0  0  0
    7.2436    2.0773   23.8927 C   0  0  0  0  0  0  0  0  0  0  0  0
    6.9379    1.7170   25.2113 C   0  0  0  0  0  0  0  0  0  0  0  0
    6.9726    0.6764   25.5116 H   0  0  0  0  0  0  0  0  0  0  0  0
    6.5757    2.6918   26.1484 C   0  0  0  0  0  0  0  0  0  0  0  0
    6.3602    2.4093   27.1752 H   0  0  0  0  0  0  0  0  0  0  0  0
    6.5022    4.0415   25.7840 C   0  0  0  0  0  0  0  0  0  0  0  0
    6.2079    4.8008   26.5035 H   0  0  0  0  0  0  0  0  0  0  0  0
    6.7848    4.4072   24.4696 C   0  0  0  0  0  0  0  0  0  0  0  0
    6.7029    5.4485   24.1566 H   0  0  0  0  0  0  0  0  0  0  0  0
    7.1345    3.4377   23.5203 C   0  0  0  0  0  0  0  0  0  0  0  0
    7.2450    3.7660   22.0824 C   0  0  0  0  0  0  0  0  0  0  0  0
    6.7573    3.0676   21.2144 O   0  0  0  0  0  0  0  0  0  0  0  0
    7.8957    4.9243   21.7513 N   0  0  0  0  0  0  0  0  0  0  0  0
    8.0695    4.9128   20.7579 H   0  0  0  0  0  0  0  0  0  0  0  0
    8.6951    5.1444   22.3212 H   0  0  0  0  0  0  0  0  0  0  0  0
    5.6165    0.6607   20.4180 C   0  0  0  0  0  0  0  0  0  0  0  0
    5.2548    0.7939   21.4317 H   0  0  0  0  0  0  0  0  0  0  0  0
    4.9016    1.2130   19.3570 C   0  0  0  0  0  0  0  0  0  0  0  0
    3.9496    1.7080   19.5224 H   0  0  0  0  0  0  0  0  0  0  0  0
  1  2  1  0
  2  3  2  0
  3  4  1  0
  4  5  1  0
  4  6  2  0
  6  7  1  0
  7  8  1  0
  8  9  2  0
  8 10  1  0
 10 11  1  0
 11 12  1  0
 11 13  1  0
 11 14  1  0
 14 15  1  6
 14 16  1  0
 16 17  1  0
 16 18  1  0
 18 19  2  0
 19 20  1  0
 19 21  1  0
 21 22  1  0
 21 23  2  0
 23 24  1  0
 23 25  1  0
 25 26  1  0
 25 27  2  0
 27 28  1  0
 28 29  2  0
 28 30  1  0
 30 31  1  0
 30 32  1  0
  6 33  1  0
 33 34  1  0
 33 35  2  0
 35 36  1  0
 35  2  1  0
 14  7  1  0
 27 18  1  0
M  END
>  <cnnaffinity>  (1) 
-4.86392

>  <filename>  (1) 
NC(=O)c1ccccc1N[C@@H]1COC(=O)N1c1cccnc1

$$$$
