
     RDKit          3D

 50 54  0  0  0  0  0  0  0  0999 V2000
    7.2948    3.8316   28.5299 N   0  0  0  0  0  0  0  0  0  0  0  0
    7.0659    3.2904   27.3016 C   0  0  0  0  0  0  0  0  0  0  0  0
    6.0549    2.6329   27.1262 O   0  0  0  0  0  0  0  0  0  0  0  0
    8.0771    3.5846   26.1986 C   0  0  2  0  0  0  0  0  0  0  0  0
    7.4957    4.5253   25.1092 C   0  0  0  0  0  0  0  0  0  0  0  0
    8.1633    4.1131   23.7792 C   0  0  0  0  0  0  0  0  0  0  0  0
    8.9878    2.8311   24.0811 C   0  0  2  0  0  0  0  0  0  0  0  0
    8.9374    1.8119   22.9863 C   0  0  0  0  0  0  0  0  0  0  0  0
    7.8902    1.0652   22.6890 N   0  0  0  0  0  0  0  0  0  0  0  0
    8.3393    0.2721   21.6848 C   0  0  0  0  0  0  0  0  0  0  0  0
    7.4357   -0.6899   20.9621 C   0  0  0  0  0  0  0  0  0  0  0  0
    6.6597   -0.0367   19.8198 C   0  0  0  0  0  0  0  0  0  0  0  0
    5.4543    0.6308   20.0771 C   0  0  0  0  0  0  0  0  0  0  0  0
    4.8140    1.3099   19.0380 C   0  0  0  0  0  0  0  0  0  0  0  0
    5.4053    1.2980   17.7723 C   0  0  0  0  0  0  0  0  0  0  0  0
    6.5445    0.6455   17.4938 N   0  0  0  0  0  0  0  0  0  0  0  0
    7.1451   -0.0017   18.5005 C   0  0  0  0  0  0  0  0  0  0  0  0
    8.0662   -0.5304   18.2459 H   0  0  0  0  0  0  0  0  0  0  0  0
    4.9479    1.8323   16.9418 H   0  0  0  0  0  0  0  0  0  0  0  0
    3.8892    1.8541   19.1969 H   0  0  0  0  0  0  0  0  0  0  0  0
    5.0363    0.6163   21.0855 H   0  0  0  0  0  0  0  0  0  0  0  0
    8.0493   -1.5192   20.5950 H   0  0  0  0  0  0  0  0  0  0  0  0
    6.7298   -1.1001   21.6953 H   0  0  0  0  0  0  0  0  0  0  0  0
    9.6098    0.4538   21.3612 N   0  0  0  0  0  0  0  0  0  0  0  0
    9.9751    1.4896   22.1643 N   0  0  0  0  0  0  0  0  0  0  0  0
   11.2671    2.0706   22.1885 C   0  0  0  0  0  0  0  0  0  0  0  0
   11.4629    3.4507   22.2548 C   0  0  0  0  0  0  0  0  0  0  0  0
   12.7410    3.9941   22.5056 C   0  0  0  0  0  0  0  0  0  0  0  0
   13.8475    3.1789   22.7043 C   0  0  0  0  0  0  0  0  0  0  0  0
   13.6643    1.7773   22.6556 C   0  0  0  0  0  0  0  0  0  0  0  0
   12.3997    1.2573   22.3227 C   0  0  0  0  0  0  0  0  0  0  0  0
   12.5742   -0.1030   22.2624 N   0  0  0  0  0  0  0  0  0  0  0  0
   13.8828   -0.3437   22.5512 C   0  0  0  0  0  0  0  0  0  0  0  0
   14.5704    0.7349   22.7866 N   0  0  0  0  0  0  0  0  0  0  0  0
   14.2829   -1.3522   22.5701 H   0  0  0  0  0  0  0  0  0  0  0  0
   11.8933   -0.7306   21.8690 H   0  0  0  0  0  0  0  0  0  0  0  0
   14.8270    3.6194   22.8287 H   0  0  0  0  0  0  0  0  0  0  0  0
   12.8716    5.0684   22.5491 H   0  0  0  0  0  0  0  0  0  0  0  0
   10.6263    4.1295   22.1478 H   0  0  0  0  0  0  0  0  0  0  0  0
    8.4868    2.3118   25.4403 C   0  0  0  0  0  0  0  0  0  0  0  0
    7.6161    1.6582   25.3225 H   0  0  0  0  0  0  0  0  0  0  0  0
    9.2597    1.7381   25.9688 H   0  0  0  0  0  0  0  0  0  0  0  0
   10.0286    3.1300   24.2367 H   0  0  0  0  0  0  0  0  0  0  0  0
    7.4001    3.9182   23.0170 H   0  0  0  0  0  0  0  0  0  0  0  0
    8.8123    4.9008   23.3734 H   0  0  0  0  0  0  0  0  0  0  0  0
    7.6618    5.5831   25.3491 H   0  0  0  0  0  0  0  0  0  0  0  0
    6.4094    4.3789   25.0476 H   0  0  0  0  0  0  0  0  0  0  0  0
    8.9703    4.0492   26.6378 H   0  0  0  0  0  0  0  0  0  0  0  0
    8.2070    4.1480   28.7949 H   0  0  0  0  0  0  0  0  0  0  0  0
    6.6912    3.3999   29.2130 H   0  0  0  0  0  0  0  0  0  0  0  0
  1  2  1  0
  2  3  2  0
  2  4  1  0
  4  5  1  0
  5  6  1  0
  6  7  1  0
  7  8  1  0
  8  9  2  0
  9 10  1  0
 10 11  1  0
 11 12  1  0
 12 13  2  0
 13 14  1  0
 14 15  2  0
 15 16  1  0
 16 17  2  0
 17 18  1  0
 15 19  1  0
 14 20  1  0
 13 21  1  0
 11 22  1  0
 11 23  1  0
 10 24  2  0
 24 25  1  0
 25 26  1  0
 26 27  2  0
 27 28  1  0
 28 29  2  0
 29 30  1  0
 30 31  2  0
 31 32  1  0
 32 33  1  0
 33 34  2  0
 33 35  1  0
 32 36  1  0
 29 37  1  0
 28 38  1  0
 27 39  1  0
  7 40  1  0
 40 41  1  0
 40 42  1  0
  7 43  1  1
  6 44  1  0
  6 45  1  0
  5 46  1  0
  5 47  1  0
  4 48  1  1
  1 49  1  0
  1 50  1  0
 40  4  1  0
 25  8  1  0
 31 26  1  0
 17 12  1  0
 34 30  1  0
M  END
>  <cnnaffinity>  (1) 
-6.62862

>  <filename>  (1) 
NC(=O)[C@@H]1CC[C@H](c2nc(Cc3cccnc3)nn2-c2cccc3nc[nH]c23)C1

$$$$
