
     RDKit          3D

 30 32  0  0  0  0  0  0  0  0999 V2000
    4.9592    1.8063   17.0132 H   0  0  0  0  0  0  0  0  0  0  0  0
    5.4279    1.2820   17.8435 C   0  0  0  0  0  0  0  0  0  0  0  0
    6.5907    0.6572   17.5765 N   0  0  0  0  0  0  0  0  0  0  0  0
    7.1930    0.0158   18.5862 C   0  0  0  0  0  0  0  0  0  0  0  0
    8.1390   -0.4802   18.3746 H   0  0  0  0  0  0  0  0  0  0  0  0
    6.6921   -0.0432   19.9049 C   0  0  0  0  0  0  0  0  0  0  0  0
    7.3957   -0.7863   20.8928 N   0  0  0  0  0  0  0  0  0  0  0  0
    7.5419   -0.3542   22.0809 C   0  0  0  0  0  0  0  0  0  0  0  0
    7.3664    1.0296   22.5822 C   0  0  0  0  0  0  0  0  0  0  0  0
    7.6558    2.1959   21.9190 C   0  0  0  0  0  0  0  0  0  0  0  0
    8.0837    2.3357   20.9307 H   0  0  0  0  0  0  0  0  0  0  0  0
    7.3018    3.2654   22.7032 N   0  0  0  0  0  0  0  0  0  0  0  0
    7.3650    4.2305   22.4311 H   0  0  0  0  0  0  0  0  0  0  0  0
    6.7441    2.8115   23.8768 C   0  0  0  0  0  0  0  0  0  0  0  0
    6.2036    3.5128   24.9697 C   0  0  0  0  0  0  0  0  0  0  0  0
    6.1823    4.5990   24.9807 H   0  0  0  0  0  0  0  0  0  0  0  0
    5.6915    2.7648   26.0249 C   0  0  0  0  0  0  0  0  0  0  0  0
    5.2762    3.2781   26.8866 H   0  0  0  0  0  0  0  0  0  0  0  0
    5.6988    1.3453   26.0016 C   0  0  0  0  0  0  0  0  0  0  0  0
    5.2820    0.7953   26.8418 H   0  0  0  0  0  0  0  0  0  0  0  0
    6.2249    0.6582   24.9173 C   0  0  0  0  0  0  0  0  0  0  0  0
    6.2100   -0.4281   24.8710 H   0  0  0  0  0  0  0  0  0  0  0  0
    6.7705    1.4030   23.8441 C   0  0  0  0  0  0  0  0  0  0  0  0
    7.9475   -1.2922   23.0157 N   0  0  0  0  0  0  0  0  0  0  0  0
    8.5459   -0.8619   23.7054 H   0  0  0  0  0  0  0  0  0  0  0  0
    8.3756   -2.0525   22.5016 H   0  0  0  0  0  0  0  0  0  0  0  0
    5.4656    0.5968   20.1519 C   0  0  0  0  0  0  0  0  0  0  0  0
    5.0793    0.5939   21.1713 H   0  0  0  0  0  0  0  0  0  0  0  0
    4.8256    1.2686   19.1055 C   0  0  0  0  0  0  0  0  0  0  0  0
    3.8935    1.8017   19.2655 H   0  0  0  0  0  0  0  0  0  0  0  0
  1  2  1  0
  2  3  2  0
  3  4  1  0
  4  5  1  0
  4  6  2  0
  6  7  1  0
  7  8  2  3
  8  9  1  0
  9 10  2  0
 10 11  1  0
 10 12  1  0
 12 13  1  0
 12 14  1  0
 14 15  2  0
 15 16  1  0
 15 17  1  0
 17 18  1  0
 17 19  2  0
 19 20  1  0
 19 21  1  0
 21 22  1  0
 21 23  2  0
  8 24  1  0
 24 25  1  0
 24 26  1  0
  6 27  1  0
 27 28  1  0
 27 29  2  0
 29 30  1  0
 29  2  1  0
 23  9  1  0
 23 14  1  0
M  END
>  <cnnaffinity>  (1) 
-4.79706

>  <filename>  (1) 
NC(=Nc1cccnc1)c1c[nH]c2ccccc12

$$$$
