
     RDKit          3D

 51 55  0  0  0  0  0  0  0  0999 V2000
   14.3641    5.3537   21.5961 N   0  0  0  0  0  0  0  0  0  0  0  0
   13.1090    4.9306   21.9237 C   0  0  0  0  0  0  0  0  0  0  0  0
   12.2017    5.7378   21.9551 O   0  0  0  0  0  0  0  0  0  0  0  0
   12.9217    3.4780   22.2561 C   0  0  0  0  0  0  0  0  0  0  0  0
   13.9544    2.6149   22.6413 C   0  0  0  0  0  0  0  0  0  0  0  0
   13.6982    1.2711   22.9260 C   0  0  0  0  0  0  0  0  0  0  0  0
   12.3965    0.7599   22.8286 C   0  0  0  0  0  0  0  0  0  0  0  0
   11.3576    1.6289   22.4707 C   0  0  0  0  0  0  0  0  0  0  0  0
   10.0055    1.1845   22.3928 N   0  0  0  0  0  0  0  0  0  0  0  0
    9.6152    0.2031   21.5452 N   0  0  0  0  0  0  0  0  0  0  0  0
    8.3037    0.2105   21.6713 C   0  0  0  0  0  0  0  0  0  0  0  0
    7.4277   -0.7225   20.8787 C   0  0  0  0  0  0  0  0  0  0  0  0
    6.6611   -0.0620   19.7319 C   0  0  0  0  0  0  0  0  0  0  0  0
    5.4800    0.6417   20.0060 C   0  0  0  0  0  0  0  0  0  0  0  0
    4.8406    1.3238   18.9692 C   0  0  0  0  0  0  0  0  0  0  0  0
    5.4094    1.2861   17.6947 C   0  0  0  0  0  0  0  0  0  0  0  0
    6.5244    0.6009   17.3977 N   0  0  0  0  0  0  0  0  0  0  0  0
    7.1204   -0.0572   18.4002 C   0  0  0  0  0  0  0  0  0  0  0  0
    8.0259   -0.6063   18.1354 H   0  0  0  0  0  0  0  0  0  0  0  0
    4.9538    1.8325   16.8732 H   0  0  0  0  0  0  0  0  0  0  0  0
    3.9307    1.8893   19.1372 H   0  0  0  0  0  0  0  0  0  0  0  0
    5.0846    0.6608   21.0237 H   0  0  0  0  0  0  0  0  0  0  0  0
    6.7216   -1.1420   21.6038 H   0  0  0  0  0  0  0  0  0  0  0  0
    8.0641   -1.5430   20.5248 H   0  0  0  0  0  0  0  0  0  0  0  0
    7.8229    1.1134   22.5674 N   0  0  0  0  0  0  0  0  0  0  0  0
    8.9094    1.7298   22.9990 C   0  0  0  0  0  0  0  0  0  0  0  0
    8.9788    2.7938   24.0714 C   0  0  0  0  0  0  0  0  0  0  0  0
    8.7744    2.2533   25.5225 C   0  0  0  0  0  0  0  0  0  0  0  0
    7.3598    2.6941   25.9659 C   0  0  0  0  0  0  0  0  0  0  0  0
    6.9879    3.7831   24.9857 C   0  0  0  0  0  0  0  0  0  0  0  0
    5.8901    4.6491   25.0151 C   0  0  0  0  0  0  0  0  0  0  0  0
    5.7196    5.5712   23.9738 C   0  0  0  0  0  0  0  0  0  0  0  0
    6.6431    5.6360   22.9205 C   0  0  0  0  0  0  0  0  0  0  0  0
    7.7474    4.7757   22.8987 C   0  0  0  0  0  0  0  0  0  0  0  0
    7.9028    3.8502   23.9353 C   0  0  0  0  0  0  0  0  0  0  0  0
    8.4691    4.8230   22.0837 H   0  0  0  0  0  0  0  0  0  0  0  0
    6.4934    6.3472   22.1115 H   0  0  0  0  0  0  0  0  0  0  0  0
    4.8589    6.2352   23.9775 H   0  0  0  0  0  0  0  0  0  0  0  0
    5.1745    4.6074   25.8345 H   0  0  0  0  0  0  0  0  0  0  0  0
    6.6442    1.8635   25.9050 H   0  0  0  0  0  0  0  0  0  0  0  0
    7.3462    3.0594   27.0000 H   0  0  0  0  0  0  0  0  0  0  0  0
    8.9244    1.1698   25.5733 H   0  0  0  0  0  0  0  0  0  0  0  0
    9.5253    2.7096   26.1731 H   0  0  0  0  0  0  0  0  0  0  0  0
    9.9642    3.2615   23.9999 H   0  0  0  0  0  0  0  0  0  0  0  0
   11.6220    2.9702   22.1948 C   0  0  0  0  0  0  0  0  0  0  0  0
   10.8113    3.6523   21.9644 H   0  0  0  0  0  0  0  0  0  0  0  0
   12.1805   -0.2912   23.0074 H   0  0  0  0  0  0  0  0  0  0  0  0
   14.5259    0.6334   23.2359 H   0  0  0  0  0  0  0  0  0  0  0  0
   14.9840    2.9571   22.5527 H   0  0  0  0  0  0  0  0  0  0  0  0
   14.9924    4.6886   21.1796 H   0  0  0  0  0  0  0  0  0  0  0  0
   14.3029    6.2636   21.1659 H   0  0  0  0  0  0  0  0  0  0  0  0
  1  2  1  0
  2  3  2  0
  2  4  1  0
  4  5  2  0
  5  6  1  0
  6  7  2  0
  7  8  1  0
  8  9  1  0
  9 10  1  0
 10 11  2  0
 11 12  1  0
 12 13  1  0
 13 14  2  0
 14 15  1  0
 15 16  2  0
 16 17  1  0
 17 18  2  0
 18 19  1  0
 16 20  1  0
 15 21  1  0
 14 22  1  0
 12 23  1  0
 12 24  1  0
 11 25  1  0
 25 26  2  0
 26 27  1  0
 27 28  1  0
 28 29  1  0
 29 30  1  0
 30 31  2  0
 31 32  1  0
 32 33  2  0
 33 34  1  0
 34 35  2  0
 34 36  1  0
 33 37  1  0
 32 38  1  0
 31 39  1  0
 29 40  1  0
 29 41  1  0
 28 42  1  0
 28 43  1  0
 27 44  1  0
  8 45  2  0
 45 46  1  0
  7 47  1  0
  6 48  1  0
  5 49  1  0
  1 50  1  0
  1 51  1  0
 45  4  1  0
 26  9  1  0
 35 27  1  0
 18 13  1  0
 35 30  1  0
M  END
>  <cnnaffinity>  (1) 
-6.51476

>  <filename>  (1) 
NC(=O)c1cccc(-n2nc(Cc3cccnc3)nc2C2CCc3ccccc32)c1

$$$$
