
     RDKit          3D

 27 28  0  0  0  0  0  0  0  0999 V2000
    4.9208    1.8198   16.9723 H   0  0  0  0  0  0  0  0  0  0  0  0
    5.3889    1.3041   17.8088 C   0  0  0  0  0  0  0  0  0  0  0  0
    6.5483    0.6818   17.5415 N   0  0  0  0  0  0  0  0  0  0  0  0
    7.1720    0.0691   18.5579 C   0  0  0  0  0  0  0  0  0  0  0  0
    8.1144   -0.4275   18.3213 H   0  0  0  0  0  0  0  0  0  0  0  0
    6.6805    0.0005   19.8758 C   0  0  0  0  0  0  0  0  0  0  0  0
    7.4583   -0.7303   20.9548 C   0  0  0  0  0  0  0  0  0  0  0  0
    8.6327   -0.1815   21.4926 C   0  0  0  0  0  0  0  0  0  0  0  0
    8.9986    0.7781   21.1185 H   0  0  0  0  0  0  0  0  0  0  0  0
    9.3535   -0.7390   22.4757 N   0  0  0  0  0  0  0  0  0  0  0  0
    8.9303   -1.9054   22.9701 C   0  0  0  0  0  0  0  0  0  0  0  0
    9.5286   -2.3307   23.7774 H   0  0  0  0  0  0  0  0  0  0  0  0
    7.7820   -2.5529   22.5124 C   0  0  0  0  0  0  0  0  0  0  0  0
    7.4446   -3.4707   22.9796 H   0  0  0  0  0  0  0  0  0  0  0  0
    7.0403   -1.9736   21.4854 C   0  0  0  0  0  0  0  0  0  0  0  0
    5.7547   -2.6115   21.0226 C   0  0  0  0  0  0  0  0  0  0  0  0
    5.3296   -3.2848   21.7683 H   0  0  0  0  0  0  0  0  0  0  0  0
    5.1020   -1.7579   20.9151 H   0  0  0  0  0  0  0  0  0  0  0  0
    5.8280   -3.3928   19.7250 C   0  0  0  0  0  0  0  0  0  0  0  0
    6.1856   -4.5519   19.6723 O   0  0  0  0  0  0  0  0  0  0  0  0
    5.4226   -2.7875   18.5871 N   0  0  0  0  0  0  0  0  0  0  0  0
    5.6523   -3.3325   17.7707 H   0  0  0  0  0  0  0  0  0  0  0  0
    4.9724   -1.8888   18.5460 H   0  0  0  0  0  0  0  0  0  0  0  0
    5.4539    0.6479   20.1215 C   0  0  0  0  0  0  0  0  0  0  0  0
    5.0311    0.6375   21.1275 H   0  0  0  0  0  0  0  0  0  0  0  0
    4.7998    1.3135   19.0762 C   0  0  0  0  0  0  0  0  0  0  0  0
    3.8652    1.8475   19.2299 H   0  0  0  0  0  0  0  0  0  0  0  0
  1  2  1  0
  2  3  2  0
  3  4  1  0
  4  5  1  0
  4  6  2  0
  6  7  1  0
  7  8  2  0
  8  9  1  0
  8 10  1  0
 10 11  2  0
 11 12  1  0
 11 13  1  0
 13 14  1  0
 13 15  2  0
 15 16  1  0
 16 17  1  0
 16 18  1  0
 16 19  1  0
 19 20  2  0
 19 21  1  0
 21 22  1  0
 21 23  1  0
  6 24  1  0
 24 25  1  0
 24 26  2  0
 26 27  1  0
 26  2  1  0
 15  7  1  0
M  END
>  <cnnaffinity>  (1) 
-4.68876

>  <filename>  (1) 
NC(=O)Cc1ccncc1-c1cccnc1

$$$$
