
     RDKit          3D

 35 37  0  0  0  0  0  0  0  0999 V2000
    9.3123   -0.3046   20.3554 H   0  0  0  0  0  0  0  0  0  0  0  0
    8.7342   -0.8164   21.1094 C   0  0  0  0  0  0  0  0  0  0  0  0
    9.4338   -1.4491   22.0712 N   0  0  0  0  0  0  0  0  0  0  0  0
    8.6994   -2.0398   23.0259 C   0  0  0  0  0  0  0  0  0  0  0  0
    9.2274   -2.5505   23.8208 H   0  0  0  0  0  0  0  0  0  0  0  0
    7.2729   -1.9901   23.0205 C   0  0  0  0  0  0  0  0  0  0  0  0
    6.4463   -2.5448   23.9622 N   0  0  0  0  0  0  0  0  0  0  0  0
    5.5576   -2.0575   23.9340 H   0  0  0  0  0  0  0  0  0  0  0  0
    6.7433   -3.6120   24.8086 C   0  0  0  0  0  0  0  0  0  0  0  0
    7.4527   -4.7015   24.2803 C   0  0  0  0  0  0  0  0  0  0  0  0
    7.7058   -4.6748   23.2254 H   0  0  0  0  0  0  0  0  0  0  0  0
    7.8385   -5.7659   25.0920 C   0  0  0  0  0  0  0  0  0  0  0  0
    8.4341   -6.5662   24.6706 H   0  0  0  0  0  0  0  0  0  0  0  0
    7.5006   -5.7691   26.4492 C   0  0  0  0  0  0  0  0  0  0  0  0
    7.7899   -6.5998   27.0878 H   0  0  0  0  0  0  0  0  0  0  0  0
    6.7860   -4.7011   26.9765 C   0  0  0  0  0  0  0  0  0  0  0  0
    6.5466   -4.6962   28.0399 H   0  0  0  0  0  0  0  0  0  0  0  0
    6.3955   -3.6101   26.1676 C   0  0  0  0  0  0  0  0  0  0  0  0
    5.7078   -2.4193   26.7455 C   0  0  0  0  0  0  0  0  0  0  0  0
    5.7933   -1.2762   26.3395 O   0  0  0  0  0  0  0  0  0  0  0  0
    4.9639   -2.6788   27.8629 N   0  0  0  0  0  0  0  0  0  0  0  0
    4.5625   -3.5928   27.9818 H   0  0  0  0  0  0  0  0  0  0  0  0
    4.4314   -1.8741   28.1472 H   0  0  0  0  0  0  0  0  0  0  0  0
    6.5913   -1.3222   22.0771 N   0  0  0  0  0  0  0  0  0  0  0  0
    7.3198   -0.7596   21.0936 C   0  0  0  0  0  0  0  0  0  0  0  0
    6.5856   -0.0572   20.0099 C   0  0  0  0  0  0  0  0  0  0  0  0
    7.1353   -0.0274   18.7187 C   0  0  0  0  0  0  0  0  0  0  0  0
    8.0735   -0.5386   18.5051 H   0  0  0  0  0  0  0  0  0  0  0  0
    6.5875    0.6014   17.6772 N   0  0  0  0  0  0  0  0  0  0  0  0
    5.4383    1.2613   17.8855 C   0  0  0  0  0  0  0  0  0  0  0  0
    5.0182    1.7846   17.0255 H   0  0  0  0  0  0  0  0  0  0  0  0
    4.7986    1.2930   19.1265 C   0  0  0  0  0  0  0  0  0  0  0  0
    3.8811    1.8560   19.2315 H   0  0  0  0  0  0  0  0  0  0  0  0
    5.3684    0.6174   20.2052 C   0  0  0  0  0  0  0  0  0  0  0  0
    4.8959    0.6272   21.1883 H   0  0  0  0  0  0  0  0  0  0  0  0
  1  2  1  0
  2  3  2  0
  3  4  1  0
  4  5  1  0
  4  6  2  0
  6  7  1  0
  7  8  1  0
  7  9  1  0
  9 10  2  0
 10 11  1  0
 10 12  1  0
 12 13  1  0
 12 14  2  0
 14 15  1  0
 14 16  1  0
 16 17  1  0
 16 18  2  0
 18 19  1  0
 19 20  2  0
 19 21  1  0
 21 22  1  0
 21 23  1  0
  6 24  1  0
 24 25  2  0
 25 26  1  0
 26 27  2  0
 27 28  1  0
 27 29  1  0
 29 30  2  0
 30 31  1  0
 30 32  1  0
 32 33  1  0
 32 34  2  0
 34 35  1  0
 25  2  1  0
 34 26  1  0
 18  9  1  0
M  END
>  <cnnaffinity>  (1) 
-5.29476

>  <filename>  (1) 
NC(=O)c1ccccc1Nc1cncc(-c2cccnc2)n1

$$$$
