
     RDKit          3D

 35 37  0  0  0  0  0  0  0  0999 V2000
    5.0110    1.7484   16.9408 H   0  0  0  0  0  0  0  0  0  0  0  0
    5.4422    1.2486   17.8024 C   0  0  0  0  0  0  0  0  0  0  0  0
    6.5921    0.5919   17.5774 N   0  0  0  0  0  0  0  0  0  0  0  0
    7.1721   -0.0210   18.6191 C   0  0  0  0  0  0  0  0  0  0  0  0
    8.1075   -0.5510   18.4235 H   0  0  0  0  0  0  0  0  0  0  0  0
    6.6470    0.0089   19.9356 C   0  0  0  0  0  0  0  0  0  0  0  0
    7.2768   -0.6176   21.0427 N   0  0  0  0  0  0  0  0  0  0  0  0
    8.0827   -1.2029   20.9084 H   0  0  0  0  0  0  0  0  0  0  0  0
    7.4429   -0.0593   22.2822 C   0  0  0  0  0  0  0  0  0  0  0  0
    6.9708    1.0473   22.6579 N   0  0  0  0  0  0  0  0  0  0  0  0
    7.1607    1.5665   23.9612 C   0  0  0  0  0  0  0  0  0  0  0  0
    6.5881    1.0341   24.7421 H   0  0  0  0  0  0  0  0  0  0  0  0
    8.2153    1.6198   24.2854 H   0  0  0  0  0  0  0  0  0  0  0  0
    6.6528    2.9182   23.9134 N   0  0  0  0  0  0  0  0  0  0  0  0
    7.4209    3.9189   23.3236 C   0  0  0  0  0  0  0  0  0  0  0  0
    8.6226    3.8753   23.2214 O   0  0  0  0  0  0  0  0  0  0  0  0
    6.4741    5.0066   22.9229 C   0  0  0  0  0  0  0  0  0  0  0  0
    6.6943    6.2905   22.4131 C   0  0  0  0  0  0  0  0  0  0  0  0
    7.7017    6.6557   22.2233 H   0  0  0  0  0  0  0  0  0  0  0  0
    5.5777    7.0969   22.1530 C   0  0  0  0  0  0  0  0  0  0  0  0
    5.7151    8.1098   21.7682 H   0  0  0  0  0  0  0  0  0  0  0  0
    4.2711    6.6193   22.3908 C   0  0  0  0  0  0  0  0  0  0  0  0
    3.4178    7.2704   22.1890 H   0  0  0  0  0  0  0  0  0  0  0  0
    4.0603    5.3252   22.8846 C   0  0  0  0  0  0  0  0  0  0  0  0
    3.0544    4.9528   23.0650 H   0  0  0  0  0  0  0  0  0  0  0  0
    5.1799    4.5299   23.1442 C   0  0  0  0  0  0  0  0  0  0  0  0
    5.3016    3.1288   23.6561 C   0  0  0  0  0  0  0  0  0  0  0  0
    4.4284    2.3165   23.8532 O   0  0  0  0  0  0  0  0  0  0  0  0
    8.2156   -0.9444   23.0029 N   0  0  0  0  0  0  0  0  0  0  0  0
    8.0953   -0.7706   23.9873 H   0  0  0  0  0  0  0  0  0  0  0  0
    7.8382   -1.8397   22.7499 H   0  0  0  0  0  0  0  0  0  0  0  0
    5.4299    0.6806   20.1455 C   0  0  0  0  0  0  0  0  0  0  0  0
    5.0087    0.7107   21.1508 H   0  0  0  0  0  0  0  0  0  0  0  0
    4.8177    1.3055   19.0545 C   0  0  0  0  0  0  0  0  0  0  0  0
    3.8885    1.8572   19.1667 H   0  0  0  0  0  0  0  0  0  0  0  0
  1  2  1  0
  2  3  2  0
  3  4  1  0
  4  5  1  0
  4  6  2  0
  6  7  1  0
  7  8  1  0
  7  9  1  0
  9 10  2  3
 10 11  1  0
 11 12  1  0
 11 13  1  0
 11 14  1  0
 14 15  1  0
 15 16  2  0
 15 17  1  0
 17 18  2  0
 18 19  1  0
 18 20  1  0
 20 21  1  0
 20 22  2  0
 22 23  1  0
 22 24  1  0
 24 25  1  0
 24 26  2  0
 26 27  1  0
 27 28  2  0
  9 29  1  0
 29 30  1  0
 29 31  1  0
  6 32  1  0
 32 33  1  0
 32 34  2  0
 34 35  1  0
 34  2  1  0
 27 14  1  0
 26 17  1  0
M  END
>  <cnnaffinity>  (1) 
-5.08399

>  <filename>  (1) 
NC(=NCN1C(=O)c2ccccc2C1=O)Nc1cccnc1

$$$$
