
     RDKit          3D

 34 36  0  0  0  0  0  0  0  0999 V2000
    5.0088    1.8371   16.8965 H   0  0  0  0  0  0  0  0  0  0  0  0
    5.4256    1.2851   17.7374 C   0  0  0  0  0  0  0  0  0  0  0  0
    6.5367    0.5766   17.4864 N   0  0  0  0  0  0  0  0  0  0  0  0
    7.0893   -0.0935   18.5018 C   0  0  0  0  0  0  0  0  0  0  0  0
    7.9901   -0.6574   18.2678 H   0  0  0  0  0  0  0  0  0  0  0  0
    6.5862   -0.0742   19.8137 C   0  0  0  0  0  0  0  0  0  0  0  0
    7.3374   -0.7355   20.8795 C   0  0  0  0  0  0  0  0  0  0  0  0
    7.8982   -1.9841   20.7451 N   0  0  0  0  0  0  0  0  0  0  0  0
    8.4376   -2.2580   21.8997 C   0  0  0  0  0  0  0  0  0  0  0  0
    8.9564   -3.1703   22.1504 H   0  0  0  0  0  0  0  0  0  0  0  0
    8.3087   -1.2346   22.7918 N   0  0  0  0  0  0  0  0  0  0  0  0
    8.4837   -1.2335   23.7839 H   0  0  0  0  0  0  0  0  0  0  0  0
    7.6045   -0.2542   22.1521 C   0  0  0  0  0  0  0  0  0  0  0  0
    7.2499    0.9178   22.7693 N   0  0  0  0  0  0  0  0  0  0  0  0
    6.2595    1.1934   22.6679 H   0  0  0  0  0  0  0  0  0  0  0  0
    7.7129    1.4255   23.9651 C   0  0  0  0  0  0  0  0  0  0  0  0
    9.0646    1.3975   24.3311 C   0  0  0  0  0  0  0  0  0  0  0  0
    9.7777    0.9547   23.6418 H   0  0  0  0  0  0  0  0  0  0  0  0
    9.4745    1.9350   25.5534 C   0  0  0  0  0  0  0  0  0  0  0  0
   10.5239    1.8831   25.8434 H   0  0  0  0  0  0  0  0  0  0  0  0
    8.5191    2.4835   26.4211 C   0  0  0  0  0  0  0  0  0  0  0  0
    8.7783    2.9162   27.3764 H   0  0  0  0  0  0  0  0  0  0  0  0
    7.1795    2.5189   26.0592 C   0  0  0  0  0  0  0  0  0  0  0  0
    6.4480    2.8785   26.7816 H   0  0  0  0  0  0  0  0  0  0  0  0
    6.7646    2.0704   24.7917 C   0  0  0  0  0  0  0  0  0  0  0  0
    5.3827    2.2684   24.3055 C   0  0  0  0  0  0  0  0  0  0  0  0
    4.8776    1.7616   23.3003 O   0  0  0  0  0  0  0  0  0  0  0  0
    4.5590    3.0735   25.0321 N   0  0  0  0  0  0  0  0  0  0  0  0
    3.7212    3.2021   24.4839 H   0  0  0  0  0  0  0  0  0  0  0  0
    4.9735    3.9042   25.4155 H   0  0  0  0  0  0  0  0  0  0  0  0
    5.3872    0.6267   20.0492 C   0  0  0  0  0  0  0  0  0  0  0  0
    4.9098    0.6242   21.0333 H   0  0  0  0  0  0  0  0  0  0  0  0
    4.8068    1.3232   18.9910 C   0  0  0  0  0  0  0  0  0  0  0  0
    3.9050    1.9064   19.1338 H   0  0  0  0  0  0  0  0  0  0  0  0
  1  2  1  0
  2  3  2  0
  3  4  1  0
  4  5  1  0
  4  6  2  0
  6  7  1  0
  7  8  1  0
  8  9  2  0
  9 10  1  0
  9 11  1  0
 11 12  1  0
 11 13  1  0
 13 14  1  0
 14 15  1  0
 14 16  1  0
 16 17  2  0
 17 18  1  0
 17 19  1  0
 19 20  1  0
 19 21  2  0
 21 22  1  0
 21 23  1  0
 23 24  1  0
 23 25  2  0
 25 26  1  0
 26 27  2  0
 26 28  1  0
 28 29  1  0
 28 30  1  0
  6 31  1  0
 31 32  1  0
 31 33  2  0
 33 34  1  0
 33  2  1  0
 13  7  2  0
 25 16  1  0
M  END
>  <cnnaffinity>  (1) 
-4.77478

>  <filename>  (1) 
NC(=O)c1ccccc1Nc1[nH]cnc1-c1cccnc1

$$$$
