
     RDKit          3D

 51 55  0  0  0  0  0  0  0  0999 V2000
   12.8495    5.2774   22.7922 N   0  0  0  0  0  0  0  0  0  0  0  0
   13.3371    5.7595   21.4801 C   0  0  0  0  0  0  0  0  0  0  0  0
   14.5157    5.4799   21.0968 O   0  0  0  0  0  0  0  0  0  0  0  0
   12.7266    3.8800   22.6425 C   0  0  0  0  0  0  0  0  0  0  0  0
   13.8022    2.9454   22.7829 C   0  0  0  0  0  0  0  0  0  0  0  0
   13.6376    1.5590   22.6695 C   0  0  0  0  0  0  0  0  0  0  0  0
   12.3855    1.0188   22.3645 C   0  0  0  0  0  0  0  0  0  0  0  0
   11.2882    1.8756   22.2587 C   0  0  0  0  0  0  0  0  0  0  0  0
    9.9617    1.3593   22.2018 N   0  0  0  0  0  0  0  0  0  0  0  0
    9.5735    0.3415   21.3905 N   0  0  0  0  0  0  0  0  0  0  0  0
    8.2907    0.2197   21.6756 C   0  0  0  0  0  0  0  0  0  0  0  0
    7.3878   -0.7278   20.9390 C   0  0  0  0  0  0  0  0  0  0  0  0
    6.6256   -0.0602   19.7994 C   0  0  0  0  0  0  0  0  0  0  0  0
    5.4338    0.6276   20.0625 C   0  0  0  0  0  0  0  0  0  0  0  0
    4.8040    1.3188   19.0246 C   0  0  0  0  0  0  0  0  0  0  0  0
    5.3951    1.3037   17.7580 C   0  0  0  0  0  0  0  0  0  0  0  0
    6.5268    0.6390   17.4774 N   0  0  0  0  0  0  0  0  0  0  0  0
    7.1151   -0.0217   18.4825 C   0  0  0  0  0  0  0  0  0  0  0  0
    8.0307   -0.5577   18.2282 H   0  0  0  0  0  0  0  0  0  0  0  0
    4.9429    1.8467   16.9293 H   0  0  0  0  0  0  0  0  0  0  0  0
    3.8859    1.8750   19.1847 H   0  0  0  0  0  0  0  0  0  0  0  0
    5.0199    0.6226   21.0732 H   0  0  0  0  0  0  0  0  0  0  0  0
    6.6772   -1.1199   21.6734 H   0  0  0  0  0  0  0  0  0  0  0  0
    7.9908   -1.5655   20.5727 H   0  0  0  0  0  0  0  0  0  0  0  0
    7.8360    1.0573   22.6447 N   0  0  0  0  0  0  0  0  0  0  0  0
    8.9024    1.7690   22.9623 C   0  0  0  0  0  0  0  0  0  0  0  0
    8.9686    2.8084   24.0560 C   0  0  2  0  0  0  0  0  0  0  0  0
    8.7386    2.2540   25.4951 C   0  0  0  0  0  0  0  0  0  0  0  0
    7.3405    2.7385   25.9402 C   0  0  0  0  0  0  0  0  0  0  0  0
    6.9852    3.8229   24.9502 C   0  0  0  0  0  0  0  0  0  0  0  0
    5.8853    4.6848   24.9550 C   0  0  0  0  0  0  0  0  0  0  0  0
    5.7247    5.5965   23.9036 C   0  0  0  0  0  0  0  0  0  0  0  0
    6.6644    5.6557   22.8623 C   0  0  0  0  0  0  0  0  0  0  0  0
    7.7668    4.7937   22.8600 C   0  0  0  0  0  0  0  0  0  0  0  0
    7.9093    3.8796   23.9081 C   0  0  0  0  0  0  0  0  0  0  0  0
    8.4977    4.8272   22.0516 H   0  0  0  0  0  0  0  0  0  0  0  0
    6.5297    6.3655   22.0496 H   0  0  0  0  0  0  0  0  0  0  0  0
    4.8647    6.2614   23.8926 H   0  0  0  0  0  0  0  0  0  0  0  0
    5.1611    4.6414   25.7652 H   0  0  0  0  0  0  0  0  0  0  0  0
    7.3466    3.1144   26.9691 H   0  0  0  0  0  0  0  0  0  0  0  0
    6.6018    1.9284   25.8989 H   0  0  0  0  0  0  0  0  0  0  0  0
    8.8434    1.1641   25.5273 H   0  0  0  0  0  0  0  0  0  0  0  0
    9.5080    2.6688   26.1547 H   0  0  0  0  0  0  0  0  0  0  0  0
    9.9550    3.2641   24.0328 H   0  0  0  0  0  0  0  0  0  0  0  0
   11.4723    3.2622   22.3151 C   0  0  0  0  0  0  0  0  0  0  0  0
   10.6488    3.9430   22.1616 H   0  0  0  0  0  0  0  0  0  0  0  0
   12.2459   -0.0476   22.2104 H   0  0  0  0  0  0  0  0  0  0  0  0
   14.5041    0.9094   22.8013 H   0  0  0  0  0  0  0  0  0  0  0  0
   14.7479    3.4424   22.9031 H   0  0  0  0  0  0  0  0  0  0  0  0
   12.6026    5.3816   20.7057 H   0  0  0  0  0  0  0  0  0  0  0  0
   13.2518    6.8847   21.5487 H   0  0  0  0  0  0  0  0  0  0  0  0
  1  2  1  0
  2  3  2  0
  2  4  1  0
  4  5  2  0
  5  6  1  0
  6  7  2  0
  7  8  1  0
  8  9  1  0
  9 10  1  0
 10 11  2  0
 11 12  1  0
 12 13  1  0
 13 14  2  0
 14 15  1  0
 15 16  2  0
 16 17  1  0
 17 18  2  0
 18 19  1  0
 16 20  1  0
 15 21  1  0
 14 22  1  0
 12 23  1  0
 12 24  1  0
 11 25  1  0
 25 26  2  0
 26 27  1  0
 27 28  1  0
 28 29  1  0
 29 30  1  0
 30 31  2  0
 31 32  1  0
 32 33  2  0
 33 34  1  0
 34 35  2  0
 34 36  1  0
 33 37  1  0
 32 38  1  0
 31 39  1  0
 29 40  1  0
 29 41  1  0
 28 42  1  0
 28 43  1  0
 27 44  1  1
  8 45  2  0
 45 46  1  0
  7 47  1  0
  6 48  1  0
  5 49  1  0
  1 50  1  0
  1 51  1  0
 45  4  1  0
 26  9  1  0
 35 27  1  0
 18 13  1  0
 35 30  1  0
M  END
>  <cnnaffinity>  (1) 
-6.62813

>  <filename>  (1) 
NC(=O)c1cccc(-n2nc(Cc3cccnc3)nc2[C@@H]2CCc3ccccc32)c1

$$$$
