
     RDKit          3D

 36 38  0  0  0  0  0  0  0  0999 V2000
    4.9928    1.8047   16.8850 H   0  0  0  0  0  0  0  0  0  0  0  0
    5.4700    1.3103   17.7282 C   0  0  0  0  0  0  0  0  0  0  0  0
    6.6326    0.6940   17.4712 N   0  0  0  0  0  0  0  0  0  0  0  0
    7.2507    0.0860   18.4885 C   0  0  0  0  0  0  0  0  0  0  0  0
    8.2096   -0.3791   18.2612 H   0  0  0  0  0  0  0  0  0  0  0  0
    6.7201    0.0177   19.7810 C   0  0  0  0  0  0  0  0  0  0  0  0
    7.4521   -0.7528   20.8084 C   0  0  0  0  0  0  0  0  0  0  0  0
    8.7586   -0.6555   20.8104 N   0  0  0  0  0  0  0  0  0  0  0  0
    9.4415   -1.2805   21.8094 C   0  0  0  0  0  0  0  0  0  0  0  0
   10.6448   -1.4125   21.8713 O   0  0  0  0  0  0  0  0  0  0  0  0
    8.7144   -1.8154   22.8768 N   0  0  0  0  0  0  0  0  0  0  0  0
    9.3114   -2.3419   23.4859 H   0  0  0  0  0  0  0  0  0  0  0  0
    7.4029   -2.0735   22.7629 C   0  0  0  0  0  0  0  0  0  0  0  0
    6.7810   -2.8273   23.6970 N   0  0  0  0  0  0  0  0  0  0  0  0
    6.1034   -3.4790   23.3144 H   0  0  0  0  0  0  0  0  0  0  0  0
    7.2114   -3.1717   24.9725 C   0  0  0  0  0  0  0  0  0  0  0  0
    7.9270   -2.2638   25.7634 C   0  0  0  0  0  0  0  0  0  0  0  0
    7.9763   -1.2312   25.4351 H   0  0  0  0  0  0  0  0  0  0  0  0
    8.5828   -2.7007   26.9129 C   0  0  0  0  0  0  0  0  0  0  0  0
    9.2077   -2.0088   27.4708 H   0  0  0  0  0  0  0  0  0  0  0  0
    8.4594   -4.0391   27.3059 C   0  0  0  0  0  0  0  0  0  0  0  0
    8.9944   -4.4099   28.1700 H   0  0  0  0  0  0  0  0  0  0  0  0
    7.6268   -4.9052   26.6015 C   0  0  0  0  0  0  0  0  0  0  0  0
    7.5367   -5.9404   26.9270 H   0  0  0  0  0  0  0  0  0  0  0  0
    6.9258   -4.4668   25.4589 C   0  0  0  0  0  0  0  0  0  0  0  0
    5.9399   -5.3236   24.7448 C   0  0  0  0  0  0  0  0  0  0  0  0
    5.5876   -5.1682   23.5748 O   0  0  0  0  0  0  0  0  0  0  0  0
    5.3888   -6.3791   25.4111 N   0  0  0  0  0  0  0  0  0  0  0  0
    4.6612   -6.7541   24.8220 H   0  0  0  0  0  0  0  0  0  0  0  0
    5.1930   -6.2895   26.3937 H   0  0  0  0  0  0  0  0  0  0  0  0
    6.7190   -1.5574   21.7051 C   0  0  0  0  0  0  0  0  0  0  0  0
    5.6644   -1.7523   21.5935 H   0  0  0  0  0  0  0  0  0  0  0  0
    5.5069    0.6737   20.0429 C   0  0  0  0  0  0  0  0  0  0  0  0
    5.0804    0.6799   21.0499 H   0  0  0  0  0  0  0  0  0  0  0  0
    4.8762    1.3360   18.9940 C   0  0  0  0  0  0  0  0  0  0  0  0
    3.9479    1.8725   19.1432 H   0  0  0  0  0  0  0  0  0  0  0  0
  1  2  1  0
  2  3  2  0
  3  4  1  0
  4  5  1  0
  4  6  2  0
  6  7  1  0
  7  8  2  0
  8  9  1  0
  9 10  2  0
  9 11  1  0
 11 12  1  0
 11 13  1  0
 13 14  1  0
 14 15  1  0
 14 16  1  0
 16 17  2  0
 17 18  1  0
 17 19  1  0
 19 20  1  0
 19 21  2  0
 21 22  1  0
 21 23  1  0
 23 24  1  0
 23 25  2  0
 25 26  1  0
 26 27  2  0
 26 28  1  0
 28 29  1  0
 28 30  1  0
 13 31  2  0
 31 32  1  0
  6 33  1  0
 33 34  1  0
 33 35  2  0
 35 36  1  0
 35  2  1  0
 31  7  1  0
 25 16  1  0
M  END
>  <cnnaffinity>  (1) 
-5.21171

>  <filename>  (1) 
NC(=O)c1ccccc1Nc1cc(-c2cccnc2)nc(=O)[nH]1

$$$$
