
     RDKit          3D

 38 41  0  0  0  0  0  0  0  0999 V2000
    5.0228    1.9151   16.9927 H   0  0  0  0  0  0  0  0  0  0  0  0
    5.5434    1.3602   17.7684 C   0  0  0  0  0  0  0  0  0  0  0  0
    6.6850    0.7551   17.4055 N   0  0  0  0  0  0  0  0  0  0  0  0
    7.3468    0.0626   18.3419 C   0  0  0  0  0  0  0  0  0  0  0  0
    8.2786   -0.3987   18.0256 H   0  0  0  0  0  0  0  0  0  0  0  0
    6.8928   -0.0849   19.6652 C   0  0  0  0  0  0  0  0  0  0  0  0
    7.6037   -0.8594   20.6138 N   0  0  0  0  0  0  0  0  0  0  0  0
    8.9401   -0.7522   21.0037 C   0  0  0  0  0  0  0  0  0  0  0  0
    9.5607   -0.0223   20.5147 H   0  0  0  0  0  0  0  0  0  0  0  0
    9.1711   -1.5839   22.0573 C   0  0  0  0  0  0  0  0  0  0  0  0
   10.0387   -1.8322   22.6432 H   0  0  0  0  0  0  0  0  0  0  0  0
    7.9675   -2.1974   22.3239 N   0  0  0  0  0  0  0  0  0  0  0  0
    7.5328   -3.1075   23.2441 N   0  0  0  0  0  0  0  0  0  0  0  0
    6.2540   -3.2257   22.9012 C   0  0  0  0  0  0  0  0  0  0  0  0
    5.3139   -4.0820   23.4341 N   0  0  0  0  0  0  0  0  0  0  0  0
    4.7349   -4.4411   22.6809 H   0  0  0  0  0  0  0  0  0  0  0  0
    5.4204   -5.0218   24.4403 C   0  0  0  0  0  0  0  0  0  0  0  0
    6.1312   -4.7537   25.6110 C   0  0  0  0  0  0  0  0  0  0  0  0
    6.6194   -3.7889   25.6885 H   0  0  0  0  0  0  0  0  0  0  0  0
    6.2176   -5.7162   26.6198 C   0  0  0  0  0  0  0  0  0  0  0  0
    6.7863   -5.5148   27.5230 H   0  0  0  0  0  0  0  0  0  0  0  0
    5.5781   -6.9525   26.4660 C   0  0  0  0  0  0  0  0  0  0  0  0
    5.6784   -7.7310   27.2181 H   0  0  0  0  0  0  0  0  0  0  0  0
    4.8243   -7.1993   25.3229 C   0  0  0  0  0  0  0  0  0  0  0  0
    4.3040   -8.1473   25.2094 H   0  0  0  0  0  0  0  0  0  0  0  0
    4.7171   -6.2457   24.2957 C   0  0  0  0  0  0  0  0  0  0  0  0
    3.9421   -6.4986   23.0485 C   0  0  0  0  0  0  0  0  0  0  0  0
    4.0712   -5.8648   22.0010 O   0  0  0  0  0  0  0  0  0  0  0  0
    2.9849   -7.4555   23.0101 N   0  0  0  0  0  0  0  0  0  0  0  0
    2.7536   -7.6292   22.0451 H   0  0  0  0  0  0  0  0  0  0  0  0
    2.8665   -8.1523   23.7123 H   0  0  0  0  0  0  0  0  0  0  0  0
    5.8551   -2.4281   21.8112 C   0  0  0  0  0  0  0  0  0  0  0  0
    4.8295   -2.3092   21.5438 H   0  0  0  0  0  0  0  0  0  0  0  0
    7.0134   -1.7676   21.4715 C   0  0  0  0  0  0  0  0  0  0  0  0
    5.6978    0.5542   20.0322 C   0  0  0  0  0  0  0  0  0  0  0  0
    5.3351    0.4642   21.0577 H   0  0  0  0  0  0  0  0  0  0  0  0
    5.0218    1.3012   19.0666 C   0  0  0  0  0  0  0  0  0  0  0  0
    4.1101    1.8361   19.3121 H   0  0  0  0  0  0  0  0  0  0  0  0
  1  2  1  0
  2  3  2  0
  3  4  1  0
  4  5  1  0
  4  6  2  0
  6  7  1  0
  7  8  1  0
  8  9  1  0
  8 10  2  0
 10 11  1  0
 10 12  1  0
 12 13  1  0
 13 14  2  0
 14 15  1  0
 15 16  1  0
 15 17  1  0
 17 18  2  0
 18 19  1  0
 18 20  1  0
 20 21  1  0
 20 22  2  0
 22 23  1  0
 22 24  1  0
 24 25  1  0
 24 26  2  0
 26 27  1  0
 27 28  2  0
 27 29  1  0
 29 30  1  0
 29 31  1  0
 14 32  1  0
 32 33  1  0
 32 34  2  0
  6 35  1  0
 35 36  1  0
 35 37  2  0
 37 38  1  0
 37  2  1  0
 34  7  1  0
 34 12  1  0
 26 17  1  0
M  END
>  <cnnaffinity>  (1) 
-5.37858

>  <filename>  (1) 
NC(=O)c1ccccc1Nc1cc2n(-c3cccnc3)ccn2n1

$$$$
