
     RDKit          3D

 49 54  0  0  0  0  0  0  0  0999 V2000
   13.5749    6.1488   22.3562 N   0  0  0  0  0  0  0  0  0  0  0  0
   12.5071    5.5240   22.9421 C   0  0  0  0  0  0  0  0  0  0  0  0
   11.6812    6.1697   23.5544 O   0  0  0  0  0  0  0  0  0  0  0  0
   12.4728    4.0280   22.8007 C   0  0  0  0  0  0  0  0  0  0  0  0
   13.6207    3.2451   22.9811 C   0  0  0  0  0  0  0  0  0  0  0  0
   13.5310    1.8490   22.9770 C   0  0  0  0  0  0  0  0  0  0  0  0
   12.2976    1.2189   22.7795 C   0  0  0  0  0  0  0  0  0  0  0  0
   11.1481    2.0014   22.6130 C   0  0  0  0  0  0  0  0  0  0  0  0
    9.8610    1.3975   22.5009 N   0  0  0  0  0  0  0  0  0  0  0  0
    9.6088    0.4024   21.6167 N   0  0  0  0  0  0  0  0  0  0  0  0
    8.3110    0.2064   21.7402 C   0  0  0  0  0  0  0  0  0  0  0  0
    7.5760   -0.7528   20.8287 C   0  0  0  0  0  0  0  0  0  0  0  0
    6.8099   -0.0930   19.6719 C   0  0  0  0  0  0  0  0  0  0  0  0
    5.6816    0.6971   19.9403 C   0  0  0  0  0  0  0  0  0  0  0  0
    5.0345    1.3474   18.8861 C   0  0  0  0  0  0  0  0  0  0  0  0
    5.5360    1.1934   17.5921 C   0  0  0  0  0  0  0  0  0  0  0  0
    6.5893    0.4151   17.3026 N   0  0  0  0  0  0  0  0  0  0  0  0
    7.1919   -0.2154   18.3203 C   0  0  0  0  0  0  0  0  0  0  0  0
    8.0399   -0.8480   18.0510 H   0  0  0  0  0  0  0  0  0  0  0  0
    5.0647    1.6988   16.7492 H   0  0  0  0  0  0  0  0  0  0  0  0
    4.1673    1.9785   19.0482 H   0  0  0  0  0  0  0  0  0  0  0  0
    5.3154    0.7955   20.9645 H   0  0  0  0  0  0  0  0  0  0  0  0
    8.3051   -1.4740   20.4368 H   0  0  0  0  0  0  0  0  0  0  0  0
    6.8671   -1.3034   21.4579 H   0  0  0  0  0  0  0  0  0  0  0  0
    7.7115    0.9838   22.6814 N   0  0  0  0  0  0  0  0  0  0  0  0
    8.6969    1.7499   23.1361 C   0  0  0  0  0  0  0  0  0  0  0  0
    8.5813    2.8936   24.0713 C   0  0  0  0  0  0  0  0  0  0  0  0
    7.6420    3.0734   25.2736 C   0  0  0  0  0  0  0  0  0  0  0  0
    7.1439    2.1976   26.3589 C   0  0  0  0  0  0  0  0  0  0  0  0
    7.8618    3.5059   26.6762 C   0  0  0  0  0  0  0  0  0  0  0  0
    7.2598    4.3459   27.0257 H   0  0  0  0  0  0  0  0  0  0  0  0
    8.8850    3.4710   27.0361 H   0  0  0  0  0  0  0  0  0  0  0  0
    7.6855    1.2645   26.4746 H   0  0  0  0  0  0  0  0  0  0  0  0
    6.0694    2.1413   26.5091 H   0  0  0  0  0  0  0  0  0  0  0  0
    7.3082    3.7710   24.0423 C   0  0  0  0  0  0  0  0  0  0  0  0
    6.9527    5.1345   23.5920 C   0  0  0  0  0  0  0  0  0  0  0  0
    6.1730    3.9071   23.1056 C   0  0  0  0  0  0  0  0  0  0  0  0
    5.1831    3.7171   23.5243 H   0  0  0  0  0  0  0  0  0  0  0  0
    6.3744    3.5273   22.1031 H   0  0  0  0  0  0  0  0  0  0  0  0
    7.6617    5.6102   22.9207 H   0  0  0  0  0  0  0  0  0  0  0  0
    6.4807    5.7975   24.3153 H   0  0  0  0  0  0  0  0  0  0  0  0
    9.5277    3.3951   24.2642 H   0  0  0  0  0  0  0  0  0  0  0  0
   11.2474    3.3978   22.5680 C   0  0  0  0  0  0  0  0  0  0  0  0
   10.3640    3.9891   22.3488 H   0  0  0  0  0  0  0  0  0  0  0  0
   12.2174    0.1371   22.7104 H   0  0  0  0  0  0  0  0  0  0  0  0
   14.4271    1.2475   23.1060 H   0  0  0  0  0  0  0  0  0  0  0  0
   14.5752    3.7480   23.0984 H   0  0  0  0  0  0  0  0  0  0  0  0
   13.9254    5.7222   21.5129 H   0  0  0  0  0  0  0  0  0  0  0  0
   13.3868    7.1375   22.3223 H   0  0  0  0  0  0  0  0  0  0  0  0
  1  2  1  0
  2  3  2  0
  2  4  1  0
  4  5  2  0
  5  6  1  0
  6  7  2  0
  7  8  1  0
  8  9  1  0
  9 10  1  0
 10 11  2  0
 11 12  1  0
 12 13  1  0
 13 14  2  0
 14 15  1  0
 15 16  2  0
 16 17  1  0
 17 18  2  0
 18 19  1  0
 16 20  1  0
 15 21  1  0
 14 22  1  0
 12 23  1  0
 12 24  1  0
 11 25  1  0
 25 26  2  0
 26 27  1  0
 27 28  1  0
 28 29  1  0
 29 30  1  0
 30 31  1  0
 30 32  1  0
 29 33  1  0
 29 34  1  0
 28 35  1  0
 35 36  1  0
 36 37  1  0
 37 38  1  0
 37 39  1  0
 36 40  1  0
 36 41  1  0
 27 42  1  0
  8 43  2  0
 43 44  1  0
  7 45  1  0
  6 46  1  0
  5 47  1  0
  1 48  1  0
  1 49  1  0
 43  4  1  0
 26  9  1  0
 35 27  1  0
 18 13  1  0
 30 28  1  0
 37 35  1  0
M  END
>  <cnnaffinity>  (1) 
-6.40038

>  <filename>  (1) 
NC(=O)c1cccc(-n2nc(Cc3cccnc3)nc2C2C3(CC3)C23CC3)c1

$$$$
