
     RDKit          3D

 47 49  0  0  0  0  0  0  0  0999 V2000
    9.6361    1.1110   23.3807 N   0  0  0  0  0  0  0  0  0  0  0  0
    9.0411    0.0832   23.9990 C   0  0  0  0  0  0  0  0  0  0  0  0
    8.8322   -1.0938   23.3752 N   0  0  0  0  0  4  0  0  0  0  0  0
    9.3036   -1.5412   22.0523 C   0  0  0  0  0  0  0  0  0  0  0  0
    8.8640   -0.6637   20.8736 C   0  0  0  0  0  0  0  0  0  0  0  0
    9.6575   -0.0127   20.2292 O   0  0  0  0  0  0  0  0  0  0  0  0
    7.5057   -0.6679   20.6869 N   0  0  0  0  0  0  0  0  0  0  0  0
    6.7814    0.0209   19.6874 C   0  0  0  0  0  0  0  0  0  0  0  0
    5.5533    0.5963   20.0278 C   0  0  0  0  0  0  0  0  0  0  0  0
    4.8452    1.2896   19.0430 C   0  0  0  0  0  0  0  0  0  0  0  0
    5.3755    1.3631   17.7501 C   0  0  0  0  0  0  0  0  0  0  0  0
    6.5359    0.7830   17.3983 N   0  0  0  0  0  0  0  0  0  0  0  0
    7.2188    0.1293   18.3474 C   0  0  0  0  0  0  0  0  0  0  0  0
    8.1542   -0.3418   18.0525 H   0  0  0  0  0  0  0  0  0  0  0  0
    4.8481    1.8955   16.9621 H   0  0  0  0  0  0  0  0  0  0  0  0
    3.8976    1.7679   19.2678 H   0  0  0  0  0  0  0  0  0  0  0  0
    5.1714    0.5089   21.0449 H   0  0  0  0  0  0  0  0  0  0  0  0
    7.0242   -0.8263   21.5600 H   0  0  0  0  0  0  0  0  0  0  0  0
    8.8900   -2.5404   21.8871 H   0  0  0  0  0  0  0  0  0  0  0  0
   10.3939   -1.6069   21.9762 H   0  0  0  0  0  0  0  0  0  0  0  0
    8.5404   -1.8266   24.0087 H   0  0  0  0  0  0  0  0  0  0  0  0
    8.5519    0.2634   25.2611 N   0  0  0  0  0  0  0  0  0  0  0  0
    8.2215   -0.9075   26.0832 C   0  0  0  0  0  0  0  0  0  0  0  0
    8.2281   -0.5721   27.5671 C   0  0  0  0  0  0  0  0  0  0  0  0
    7.3595    0.5738   27.8510 N   0  0  0  0  0  0  0  0  0  0  0  0
    6.9444    0.8318   29.1659 C   0  0  0  0  0  0  0  0  0  0  0  0
    5.6965    1.4539   29.3678 C   0  0  0  0  0  0  0  0  0  0  0  0
    5.2276    1.6259   30.6674 C   0  0  0  0  0  0  0  0  0  0  0  0
    6.0440    1.1973   31.7243 C   0  0  0  0  0  0  0  0  0  0  0  0
    7.2880    0.6475   31.4196 C   0  0  0  0  0  0  0  0  0  0  0  0
    7.7456    0.4837   30.1732 N   0  0  0  0  0  0  0  0  0  0  0  0
    7.9524    0.3274   32.2243 H   0  0  0  0  0  0  0  0  0  0  0  0
    5.7288    1.2754   32.7586 H   0  0  0  0  0  0  0  0  0  0  0  0
    4.2621    2.1022   30.8538 H   0  0  0  0  0  0  0  0  0  0  0  0
    5.1374    1.7401   28.4878 H   0  0  0  0  0  0  0  0  0  0  0  0
    7.6373    1.7460   27.0128 C   0  0  0  0  0  0  0  0  0  0  0  0
    7.5710    1.3488   25.5366 C   0  0  0  0  0  0  0  0  0  0  0  0
    6.5390    1.0125   25.3244 H   0  0  0  0  0  0  0  0  0  0  0  0
    7.7657    2.2217   24.9078 H   0  0  0  0  0  0  0  0  0  0  0  0
    6.8882    2.5272   27.1978 H   0  0  0  0  0  0  0  0  0  0  0  0
    8.6244    2.1918   27.2292 H   0  0  0  0  0  0  0  0  0  0  0  0
    7.8300   -1.4778   28.0246 H   0  0  0  0  0  0  0  0  0  0  0  0
    9.2579   -0.4309   27.9292 H   0  0  0  0  0  0  0  0  0  0  0  0
    7.2164   -1.2958   25.8331 H   0  0  0  0  0  0  0  0  0  0  0  0
    8.9519   -1.7079   25.9220 H   0  0  0  0  0  0  0  0  0  0  0  0
   10.0954    1.7918   23.9636 H   0  0  0  0  0  0  0  0  0  0  0  0
   10.0149    0.9630   22.4551 H   0  0  0  0  0  0  0  0  0  0  0  0
  1  2  1  0
  2  3  2  3
  3  4  1  0
  4  5  1  0
  5  6  2  0
  5  7  1  0
  7  8  1  0
  8  9  2  0
  9 10  1  0
 10 11  2  0
 11 12  1  0
 12 13  2  0
 13 14  1  0
 11 15  1  0
 10 16  1  0
  9 17  1  0
  7 18  1  0
  4 19  1  0
  4 20  1  0
  3 21  1  0
  2 22  1  0
 22 23  1  0
 23 24  1  0
 24 25  1  0
 25 26  1  0
 26 27  2  0
 27 28  1  0
 28 29  2  0
 29 30  1  0
 30 31  2  0
 30 32  1  0
 29 33  1  0
 28 34  1  0
 27 35  1  0
 25 36  1  0
 36 37  1  0
 37 38  1  0
 37 39  1  0
 36 40  1  0
 36 41  1  0
 24 42  1  0
 24 43  1  0
 23 44  1  0
 23 45  1  0
  1 46  1  0
  1 47  1  0
 13  8  1  0
 37 22  1  0
 31 26  1  0
M  CHG  1   3   1
M  END
>  <cnnaffinity>  (1) 
-4.62551

>  <filename>  (1) 
NC(=[NH+]CC(=O)Nc1cccnc1)N1CCN(c2ccccn2)CC1

$$$$
