
     RDKit          3D

 27 28  0  0  0  0  0  0  0  0999 V2000
    4.9841    1.7569   16.9279 H   0  0  0  0  0  0  0  0  0  0  0  0
    5.4274    1.2931   17.8051 C   0  0  0  0  0  0  0  0  0  0  0  0
    6.5988    0.6694   17.6108 N   0  0  0  0  0  0  0  0  0  0  0  0
    7.1703    0.0994   18.6782 C   0  0  0  0  0  0  0  0  0  0  0  0
    8.1173   -0.4093   18.5019 H   0  0  0  0  0  0  0  0  0  0  0  0
    6.6162    0.1122   19.9694 C   0  0  0  0  0  0  0  0  0  0  0  0
    7.2950   -0.6556   21.0761 C   0  0  2  0  0  0  0  0  0  0  0  0
    7.1105   -0.1641   22.0456 H   0  0  0  0  0  0  0  0  0  0  0  0
    8.6769   -0.6020   20.8692 F   0  0  0  0  0  0  0  0  0  0  0  0
    6.8570   -2.1200   21.0715 C   0  0  0  0  0  0  0  0  0  0  0  0
    7.0397   -2.5197   20.0727 H   0  0  0  0  0  0  0  0  0  0  0  0
    5.7701   -2.1453   21.2224 H   0  0  0  0  0  0  0  0  0  0  0  0
    7.5734   -3.0179   22.0791 C   0  0  2  0  0  0  0  0  0  0  0  0
    8.6353   -2.7429   22.0992 H   0  0  0  0  0  0  0  0  0  0  0  0
    7.4553   -4.4280   21.6970 N   0  0  0  0  0  0  0  0  0  0  0  0
    6.8715   -4.9848   22.6725 C   0  0  0  0  0  0  0  0  0  0  0  0
    6.4005   -6.2507   22.7181 N   0  0  0  0  0  0  0  0  0  0  0  0
    6.3327   -6.5155   23.6868 H   0  0  0  0  0  0  0  0  0  0  0  0
    6.9432   -6.8483   22.1258 H   0  0  0  0  0  0  0  0  0  0  0  0
    6.6295   -4.3072   23.8101 O   0  0  0  0  0  0  0  0  0  0  0  0
    6.9802   -2.9440   23.5143 C   0  0  0  0  0  0  0  0  0  0  0  0
    7.6960   -2.5830   24.2582 H   0  0  0  0  0  0  0  0  0  0  0  0
    6.0676   -2.3344   23.5693 H   0  0  0  0  0  0  0  0  0  0  0  0
    5.3855    0.7566   20.1490 C   0  0  0  0  0  0  0  0  0  0  0  0
    4.9087    0.7837   21.1309 H   0  0  0  0  0  0  0  0  0  0  0  0
    4.7802    1.3534   19.0421 C   0  0  0  0  0  0  0  0  0  0  0  0
    3.8296    1.8657   19.1300 H   0  0  0  0  0  0  0  0  0  0  0  0
  1  2  1  0
  2  3  2  0
  3  4  1  0
  4  5  1  0
  4  6  2  0
  6  7  1  0
  7  8  1  1
  7  9  1  0
  7 10  1  0
 10 11  1  0
 10 12  1  0
 10 13  1  0
 13 14  1  1
 13 15  1  0
 15 16  2  0
 16 17  1  0
 17 18  1  0
 17 19  1  0
 16 20  1  0
 20 21  1  0
 21 22  1  0
 21 23  1  0
  6 24  1  0
 24 25  1  0
 24 26  2  0
 26 27  1  0
 26  2  1  0
 21 13  1  0
M  END
>  <cnnaffinity>  (1) 
-4.33147

>  <filename>  (1) 
NC1=N[C@@H](C[C@@H](F)c2cccnc2)CO1

$$$$
