
     RDKit          3D

 26 28  0  0  0  0  0  0  0  0999 V2000
    5.0639    1.8175   16.7851 H   0  0  0  0  0  0  0  0  0  0  0  0
    5.4496    1.3434   17.6837 C   0  0  0  0  0  0  0  0  0  0  0  0
    6.6081    0.6821   17.5394 N   0  0  0  0  0  0  0  0  0  0  0  0
    7.1106    0.0720   18.6167 C   0  0  0  0  0  0  0  0  0  0  0  0
    8.0483   -0.4596   18.4653 H   0  0  0  0  0  0  0  0  0  0  0  0
    6.4852    0.1025   19.8708 C   0  0  0  0  0  0  0  0  0  0  0  0
    7.0685   -0.5902   21.0107 C   0  0  0  0  0  0  0  0  0  0  0  0
    6.6595   -0.5805   22.2388 N   0  0  0  0  0  0  0  0  0  0  0  0
    7.5374   -1.3802   22.9523 N   0  0  0  0  0  0  0  0  0  0  0  0
    8.3936   -1.8314   22.1034 C   0  0  0  0  0  0  0  0  0  0  0  0
    9.6239   -2.6584   22.3402 C   0  0  2  0  0  0  0  0  0  0  0  0
   10.0257   -2.8200   21.3423 H   0  0  0  0  0  0  0  0  0  0  0  0
    9.4439   -3.9282   23.0440 N   0  0  0  0  0  0  0  0  0  0  0  0
    9.9313   -3.7325   24.2004 C   0  0  0  0  0  0  0  0  0  0  0  0
    9.8665   -4.6109   25.2204 N   0  0  0  0  0  0  0  0  0  0  0  0
   10.5519   -4.3928   25.9182 H   0  0  0  0  0  0  0  0  0  0  0  0
    9.9113   -5.5382   24.8352 H   0  0  0  0  0  0  0  0  0  0  0  0
   10.5500   -2.5791   24.4838 O   0  0  0  0  0  0  0  0  0  0  0  0
   10.6350   -1.8811   23.2280 C   0  0  0  0  0  0  0  0  0  0  0  0
   10.4142   -0.8177   23.3926 H   0  0  0  0  0  0  0  0  0  0  0  0
   11.6449   -1.9807   22.8146 H   0  0  0  0  0  0  0  0  0  0  0  0
    8.1770   -1.3522   20.8442 O   0  0  0  0  0  0  0  0  0  0  0  0
    5.2841    0.8104   20.0182 C   0  0  0  0  0  0  0  0  0  0  0  0
    4.8067    0.8624   21.0005 H   0  0  0  0  0  0  0  0  0  0  0  0
    4.7491    1.4276   18.8930 C   0  0  0  0  0  0  0  0  0  0  0  0
    3.8092    1.9640   18.9375 H   0  0  0  0  0  0  0  0  0  0  0  0
  1  2  1  0
  2  3  2  0
  3  4  1  0
  4  5  1  0
  4  6  2  0
  6  7  1  0
  7  8  2  0
  8  9  1  0
  9 10  2  0
 10 11  1  0
 11 12  1  6
 11 13  1  0
 13 14  2  0
 14 15  1  0
 15 16  1  0
 15 17  1  0
 14 18  1  0
 18 19  1  0
 19 20  1  0
 19 21  1  0
 10 22  1  0
  6 23  1  0
 23 24  1  0
 23 25  2  0
 25 26  1  0
 25  2  1  0
 22  7  1  0
 19 11  1  0
M  END
>  <cnnaffinity>  (1) 
-4.67457

>  <filename>  (1) 
NC1=N[C@@H](c2nnc(-c3cccnc3)o2)CO1

$$$$
