
     RDKit          3D

 34 36  0  0  0  0  0  0  0  0999 V2000
    4.9794    1.8314   16.9603 H   0  0  0  0  0  0  0  0  0  0  0  0
    5.4134    1.3067   17.8076 C   0  0  0  0  0  0  0  0  0  0  0  0
    6.5651    0.6658   17.5758 N   0  0  0  0  0  0  0  0  0  0  0  0
    7.1342    0.0360   18.6155 C   0  0  0  0  0  0  0  0  0  0  0  0
    8.0780   -0.4575   18.3825 H   0  0  0  0  0  0  0  0  0  0  0  0
    6.6022   -0.0094   19.9252 C   0  0  0  0  0  0  0  0  0  0  0  0
    7.2825   -0.7707   21.0786 C   0  0  0  0  0  0  0  0  0  0  0  0
    6.4824   -2.0943   21.4051 C   0  0  2  0  0  0  0  0  0  0  0  0
    5.5277   -1.7460   21.8165 H   0  0  0  0  0  0  0  0  0  0  0  0
    7.1348   -2.9585   22.3841 N   0  0  0  0  0  0  0  0  0  0  0  0
    7.4086   -4.0208   21.7525 C   0  0  0  0  0  0  0  0  0  0  0  0
    8.2080   -5.0152   22.2121 N   0  0  0  0  0  0  0  0  0  0  0  0
    8.1747   -4.9293   23.2147 H   0  0  0  0  0  0  0  0  0  0  0  0
    7.8450   -5.8708   21.8317 H   0  0  0  0  0  0  0  0  0  0  0  0
    6.8835   -4.2450   20.5458 O   0  0  0  0  0  0  0  0  0  0  0  0
    6.1534   -3.0461   20.2278 C   0  0  0  0  0  0  0  0  0  0  0  0
    6.4635   -2.6919   19.2383 H   0  0  0  0  0  0  0  0  0  0  0  0
    5.0911   -3.3033   20.1689 H   0  0  0  0  0  0  0  0  0  0  0  0
    7.3319    0.0738   22.3922 C   0  0  0  0  0  0  0  0  0  0  0  0
    6.3969    0.0129   22.9655 H   0  0  0  0  0  0  0  0  0  0  0  0
    7.4615    1.1266   22.1147 H   0  0  0  0  0  0  0  0  0  0  0  0
    8.5414   -0.4226   23.2129 C   0  0  0  0  0  0  0  0  0  0  0  0
    8.2227   -1.1344   23.9769 H   0  0  0  0  0  0  0  0  0  0  0  0
    9.0182    0.4170   23.7316 H   0  0  0  0  0  0  0  0  0  0  0  0
    9.4936   -1.1052   22.2055 C   0  0  0  0  0  0  0  0  0  0  0  0
    9.6733   -2.1489   22.4770 H   0  0  0  0  0  0  0  0  0  0  0  0
   10.4771   -0.6195   22.1792 H   0  0  0  0  0  0  0  0  0  0  0  0
    8.8012   -0.9833   20.8349 C   0  0  0  0  0  0  0  0  0  0  0  0
    9.0293   -1.8184   20.1616 H   0  0  0  0  0  0  0  0  0  0  0  0
    9.1710   -0.0696   20.3523 H   0  0  0  0  0  0  0  0  0  0  0  0
    5.3793    0.6539   20.1249 C   0  0  0  0  0  0  0  0  0  0  0  0
    4.9106    0.6658   21.1128 H   0  0  0  0  0  0  0  0  0  0  0  0
    4.7776    1.3211   19.0539 C   0  0  0  0  0  0  0  0  0  0  0  0
    3.8493    1.8663   19.1794 H   0  0  0  0  0  0  0  0  0  0  0  0
  1  2  1  0
  2  3  2  0
  3  4  1  0
  4  5  1  0
  4  6  2  0
  6  7  1  0
  7  8  1  0
  8  9  1  1
  8 10  1  0
 10 11  2  0
 11 12  1  0
 12 13  1  0
 12 14  1  0
 11 15  1  0
 15 16  1  0
 16 17  1  0
 16 18  1  0
  7 19  1  0
 19 20  1  0
 19 21  1  0
 19 22  1  0
 22 23  1  0
 22 24  1  0
 22 25  1  0
 25 26  1  0
 25 27  1  0
 25 28  1  0
 28 29  1  0
 28 30  1  0
  6 31  1  0
 31 32  1  0
 31 33  2  0
 33 34  1  0
 33  2  1  0
 28  7  1  0
 16  8  1  0
M  END
>  <cnnaffinity>  (1) 
-4.26225

>  <filename>  (1) 
NC1=N[C@@H](C2(c3cccnc3)CCCC2)CO1

$$$$
