
     RDKit          3D

 27 29  0  0  0  0  0  0  0  0999 V2000
    8.9591   -3.1657   22.9676 H   0  0  0  0  0  0  0  0  0  0  0  0
    8.4655   -2.3105   22.5155 C   0  0  0  0  0  0  0  0  0  0  0  0
    8.3782   -1.1526   23.0878 N   0  0  0  0  0  0  0  0  0  0  0  0
    7.7353   -0.2522   22.2627 C   0  0  0  0  0  0  0  0  0  0  0  0
    7.4273    1.1505   22.7494 C   0  0  2  0  0  0  0  0  0  0  0  0
    6.3687    1.1206   23.0633 H   0  0  0  0  0  0  0  0  0  0  0  0
    7.5925    2.2411   21.7748 N   0  0  0  0  0  0  0  0  0  0  0  0
    8.2263    3.1430   22.4042 C   0  0  0  0  0  0  0  0  0  0  0  0
    8.5127    4.3812   21.9433 N   0  0  0  0  0  0  0  0  0  0  0  0
    9.4784    4.5682   22.1663 H   0  0  0  0  0  0  0  0  0  0  0  0
    8.3591    4.3612   20.9480 H   0  0  0  0  0  0  0  0  0  0  0  0
    8.7169    2.9083   23.6258 O   0  0  0  0  0  0  0  0  0  0  0  0
    8.2747    1.5917   23.9829 C   0  0  0  0  0  0  0  0  0  0  0  0
    9.1558    0.9698   24.1723 H   0  0  0  0  0  0  0  0  0  0  0  0
    7.6783    1.6493   24.9030 H   0  0  0  0  0  0  0  0  0  0  0  0
    7.3368   -0.7390   21.0328 C   0  0  0  0  0  0  0  0  0  0  0  0
    6.6516   -0.0326   19.9205 C   0  0  0  0  0  0  0  0  0  0  0  0
    7.1732    0.0246   18.6053 C   0  0  0  0  0  0  0  0  0  0  0  0
    8.1235   -0.4547   18.3766 H   0  0  0  0  0  0  0  0  0  0  0  0
    6.5876    0.6594   17.5819 N   0  0  0  0  0  0  0  0  0  0  0  0
    5.4239    1.2871   17.8280 C   0  0  0  0  0  0  0  0  0  0  0  0
    4.9683    1.8074   16.9856 H   0  0  0  0  0  0  0  0  0  0  0  0
    4.8065    1.2924   19.0812 C   0  0  0  0  0  0  0  0  0  0  0  0
    3.8685    1.8208   19.2176 H   0  0  0  0  0  0  0  0  0  0  0  0
    5.4359    0.6346   20.1434 C   0  0  0  0  0  0  0  0  0  0  0  0
    5.0075    0.6656   21.1459 H   0  0  0  0  0  0  0  0  0  0  0  0
    7.7552   -2.4077   20.9575 S   0  0  0  0  0  0  0  0  0  0  0  0
  1  2  1  0
  2  3  2  0
  3  4  1  0
  4  5  1  0
  5  6  1  1
  5  7  1  0
  7  8  2  0
  8  9  1  0
  9 10  1  0
  9 11  1  0
  8 12  1  0
 12 13  1  0
 13 14  1  0
 13 15  1  0
  4 16  2  0
 16 17  1  0
 17 18  2  0
 18 19  1  0
 18 20  1  0
 20 21  2  0
 21 22  1  0
 21 23  1  0
 23 24  1  0
 23 25  2  0
 25 26  1  0
 16 27  1  0
 27  2  1  0
 13  5  1  0
 25 17  1  0
M  END
>  <cnnaffinity>  (1) 
-4.42245

>  <filename>  (1) 
NC1=N[C@@H](c2ncsc2-c2cccnc2)CO1

$$$$
