
     RDKit          3D

 31 33  0  0  0  0  0  0  0  0999 V2000
    4.9781    1.8109   16.9583 H   0  0  0  0  0  0  0  0  0  0  0  0
    5.4179    1.3025   17.8145 C   0  0  0  0  0  0  0  0  0  0  0  0
    6.5745    0.6575   17.5949 N   0  0  0  0  0  0  0  0  0  0  0  0
    7.1416    0.0481   18.6448 C   0  0  0  0  0  0  0  0  0  0  0  0
    8.0761   -0.4726   18.4367 H   0  0  0  0  0  0  0  0  0  0  0  0
    6.6022    0.0230   19.9466 C   0  0  0  0  0  0  0  0  0  0  0  0
    7.3074   -0.6712   21.0467 C   0  0  0  0  0  0  0  0  0  0  0  0
    8.6291   -0.6112   21.4456 C   0  0  0  0  0  0  0  0  0  0  0  0
    9.6984    0.2640   20.8783 C   0  0  0  0  0  0  0  0  0  0  0  0
    9.6582    0.2198   19.7857 H   0  0  0  0  0  0  0  0  0  0  0  0
   10.6893   -0.1004   21.1497 H   0  0  0  0  0  0  0  0  0  0  0  0
    9.6316    1.7442   21.2589 C   0  0  2  0  0  0  0  0  0  0  0  0
    8.7523    2.1768   20.7633 H   0  0  0  0  0  0  0  0  0  0  0  0
   10.8520    2.4055   20.7861 N   0  0  0  0  0  0  0  0  0  0  0  0
   11.2279    3.1337   21.7491 C   0  0  0  0  0  0  0  0  0  0  0  0
   12.2206    4.0644   21.7074 N   0  0  0  0  0  0  0  0  0  0  0  0
   12.3631    4.2692   20.7296 H   0  0  0  0  0  0  0  0  0  0  0  0
   11.8893    4.8528   22.2454 H   0  0  0  0  0  0  0  0  0  0  0  0
   10.5844    3.0959   22.9302 O   0  0  0  0  0  0  0  0  0  0  0  0
    9.5370    2.1216   22.7637 C   0  0  0  0  0  0  0  0  0  0  0  0
    8.5842    2.5997   23.0223 H   0  0  0  0  0  0  0  0  0  0  0  0
    9.7107    1.2929   23.4605 H   0  0  0  0  0  0  0  0  0  0  0  0
    8.7227   -1.5115   22.5330 C   0  0  0  0  0  0  0  0  0  0  0  0
    9.5922   -1.7542   23.1394 H   0  0  0  0  0  0  0  0  0  0  0  0
    7.5544   -2.0846   22.7994 N   0  0  0  0  0  0  0  0  0  0  0  0
    6.7123   -1.5478   21.8991 N   0  0  0  0  0  0  0  0  0  0  0  0
    5.7475   -1.8514   21.8851 H   0  0  0  0  0  0  0  0  0  0  0  0
    5.3758    0.6813   20.1430 C   0  0  0  0  0  0  0  0  0  0  0  0
    4.9090    0.6993   21.1307 H   0  0  0  0  0  0  0  0  0  0  0  0
    4.7847    1.3315   19.0614 C   0  0  0  0  0  0  0  0  0  0  0  0
    3.8507    1.8687   19.1700 H   0  0  0  0  0  0  0  0  0  0  0  0
  1  2  1  0
  2  3  2  0
  3  4  1  0
  4  5  1  0
  4  6  2  0
  6  7  1  0
  7  8  2  0
  8  9  1  0
  9 10  1  0
  9 11  1  0
  9 12  1  0
 12 13  1  6
 12 14  1  0
 14 15  2  0
 15 16  1  0
 16 17  1  0
 16 18  1  0
 15 19  1  0
 19 20  1  0
 20 21  1  0
 20 22  1  0
  8 23  1  0
 23 24  1  0
 23 25  2  0
 25 26  1  0
 26 27  1  0
  6 28  1  0
 28 29  1  0
 28 30  2  0
 30 31  1  0
 30  2  1  0
 26  7  1  0
 20 12  1  0
M  END
>  <cnnaffinity>  (1) 
-5.1178

>  <filename>  (1) 
NC1=N[C@@H](Cc2cn[nH]c2-c2cccnc2)CO1

$$$$
