
     RDKit          3D

 30 32  0  0  0  0  0  0  0  0999 V2000
    4.9460    1.8321   17.0162 H   0  0  0  0  0  0  0  0  0  0  0  0
    5.4141    1.2984   17.8409 C   0  0  0  0  0  0  0  0  0  0  0  0
    6.5708    0.6762   17.5611 N   0  0  0  0  0  0  0  0  0  0  0  0
    7.1784    0.0188   18.5598 C   0  0  0  0  0  0  0  0  0  0  0  0
    8.1240   -0.4663   18.3238 H   0  0  0  0  0  0  0  0  0  0  0  0
    6.6705   -0.0770   19.8805 C   0  0  0  0  0  0  0  0  0  0  0  0
    7.3253   -0.8055   20.8860 N   0  0  0  0  0  0  0  0  0  0  0  0
    6.7448   -1.0897   21.6644 H   0  0  0  0  0  0  0  0  0  0  0  0
    8.7121   -0.7844   21.1157 C   0  0  0  0  0  0  0  0  0  0  0  0
    9.6871    0.1749   20.7354 C   0  0  0  0  0  0  0  0  0  0  0  0
    9.5342    1.0801   20.1668 H   0  0  0  0  0  0  0  0  0  0  0  0
   10.9010   -0.1578   21.1653 N   0  0  0  0  0  0  0  0  0  0  0  0
   10.7108   -1.3146   21.8166 N   0  0  0  0  0  0  0  0  0  0  0  0
   11.5172   -1.7979   22.1891 H   0  0  0  0  0  0  0  0  0  0  0  0
    9.4202   -1.7417   21.8181 C   0  0  0  0  0  0  0  0  0  0  0  0
    8.9256   -2.9479   22.5502 C   0  0  2  0  0  0  0  0  0  0  0  0
    9.7958   -3.5456   22.8492 H   0  0  0  0  0  0  0  0  0  0  0  0
    8.0402   -3.7785   21.7390 N   0  0  0  0  0  0  0  0  0  0  0  0
    6.9209   -3.7333   22.3287 C   0  0  0  0  0  0  0  0  0  0  0  0
    5.7671   -4.2376   21.8344 N   0  0  0  0  0  0  0  0  0  0  0  0
    5.2157   -4.5487   22.6187 H   0  0  0  0  0  0  0  0  0  0  0  0
    6.0374   -4.9572   21.1823 H   0  0  0  0  0  0  0  0  0  0  0  0
    6.8003   -3.1764   23.5405 O   0  0  0  0  0  0  0  0  0  0  0  0
    8.0758   -2.5613   23.8040 C   0  0  0  0  0  0  0  0  0  0  0  0
    7.9157   -1.4811   23.9142 H   0  0  0  0  0  0  0  0  0  0  0  0
    8.4764   -2.9409   24.7480 H   0  0  0  0  0  0  0  0  0  0  0  0
    5.4578    0.5761   20.1472 C   0  0  0  0  0  0  0  0  0  0  0  0
    5.0434    0.5717   21.1549 H   0  0  0  0  0  0  0  0  0  0  0  0
    4.8268    1.2749   19.1117 C   0  0  0  0  0  0  0  0  0  0  0  0
    3.8979    1.8106   19.2755 H   0  0  0  0  0  0  0  0  0  0  0  0
  1  2  1  0
  2  3  2  0
  3  4  1  0
  4  5  1  0
  4  6  2  0
  6  7  1  0
  7  8  1  0
  7  9  1  0
  9 10  1  0
 10 11  1  0
 10 12  2  0
 12 13  1  0
 13 14  1  0
 13 15  1  0
 15 16  1  0
 16 17  1  1
 16 18  1  0
 18 19  2  0
 19 20  1  0
 20 21  1  0
 20 22  1  0
 19 23  1  0
 23 24  1  0
 24 25  1  0
 24 26  1  0
  6 27  1  0
 27 28  1  0
 27 29  2  0
 29 30  1  0
 29  2  1  0
 15  9  2  0
 24 16  1  0
M  END
>  <cnnaffinity>  (1) 
-5.16082

>  <filename>  (1) 
NC1=N[C@@H](c2[nH]ncc2Nc2cccnc2)CO1

$$$$
