
     RDKit          3D

 29 31  0  0  0  0  0  0  0  0999 V2000
    5.3655   -4.5328   25.3764 H   0  0  0  0  0  0  0  0  0  0  0  0
    6.2603   -3.9236   25.2991 C   0  0  0  0  0  0  0  0  0  0  0  0
    6.4801   -3.2691   24.1525 N   0  0  0  0  0  0  0  0  0  0  0  0
    7.6069   -2.5289   24.0940 C   0  0  0  0  0  0  0  0  0  0  0  0
    7.8126   -1.8562   22.8642 N   0  0  0  0  0  0  0  0  0  0  0  0
    6.8012   -1.2524   22.1176 C   0  0  0  0  0  0  0  0  0  0  0  0
    5.7730   -1.3467   22.3909 H   0  0  0  0  0  0  0  0  0  0  0  0
    7.3324   -0.7069   21.0098 C   0  0  0  0  0  0  0  0  0  0  0  0
    6.6717    0.0187   19.9090 C   0  0  0  0  0  0  0  0  0  0  0  0
    7.1738    0.0681   18.5933 C   0  0  0  0  0  0  0  0  0  0  0  0
    8.1066   -0.4216   18.3242 H   0  0  0  0  0  0  0  0  0  0  0  0
    6.5602    0.6816   17.5721 N   0  0  0  0  0  0  0  0  0  0  0  0
    5.3957    1.3036   17.8165 C   0  0  0  0  0  0  0  0  0  0  0  0
    4.9241    1.8035   16.9673 H   0  0  0  0  0  0  0  0  0  0  0  0
    4.8010    1.3214   19.0820 C   0  0  0  0  0  0  0  0  0  0  0  0
    3.8644    1.8511   19.2249 H   0  0  0  0  0  0  0  0  0  0  0  0
    5.4449    0.6691   20.1348 C   0  0  0  0  0  0  0  0  0  0  0  0
    5.0102    0.6708   21.1329 H   0  0  0  0  0  0  0  0  0  0  0  0
    8.6797   -1.0251   21.0668 N   0  0  0  0  0  0  0  0  0  0  0  0
    9.4240   -0.7568   20.4511 H   0  0  0  0  0  0  0  0  0  0  0  0
    9.0100   -1.7157   22.1837 C   0  0  0  0  0  0  0  0  0  0  0  0
   10.5387   -2.2367   22.5441 S   0  0  0  0  0  0  0  0  0  0  0  0
    8.4758   -2.4123   25.2118 C   0  0  0  0  0  0  0  0  0  0  0  0
    9.3641   -1.7834   25.1432 H   0  0  0  0  0  0  0  0  0  0  0  0
    8.2491   -3.0535   26.3743 N   0  0  0  0  0  0  0  0  0  0  0  0
    7.1423   -3.8215   26.4182 C   0  0  0  0  0  0  0  0  0  0  0  0
    6.9666   -4.4418   27.6037 N   0  0  0  0  0  0  0  0  0  0  0  0
    7.7151   -4.2705   28.2514 H   0  0  0  0  0  0  0  0  0  0  0  0
    6.2010   -5.0618   27.7775 H   0  0  0  0  0  0  0  0  0  0  0  0
  1  2  1  0
  2  3  2  0
  3  4  1  0
  4  5  1  0
  5  6  1  0
  6  7  1  0
  6  8  2  0
  8  9  1  0
  9 10  2  0
 10 11  1  0
 10 12  1  0
 12 13  2  0
 13 14  1  0
 13 15  1  0
 15 16  1  0
 15 17  2  0
 17 18  1  0
  8 19  1  0
 19 20  1  0
 19 21  1  0
 21 22  2  0
  4 23  2  0
 23 24  1  0
 23 25  1  0
 25 26  2  0
 26 27  1  0
 27 28  1  0
 27 29  1  0
 26  2  1  0
 21  5  1  0
 17  9  1  0
M  END
>  <cnnaffinity>  (1) 
-5.26239

>  <filename>  (1) 
Nc1cnc(-n2cc(-c3cccnc3)[nH]c2=S)cn1

$$$$
