
     RDKit          3D

 30 32  0  0  0  0  0  0  0  0999 V2000
    7.5615    4.6627   22.4917 N   0  0  0  0  0  0  0  0  0  0  0  0
    7.1322    3.4406   22.9269 C   0  0  0  0  0  0  0  0  0  0  0  0
    6.2311    3.3714   24.0003 C   0  0  0  0  0  0  0  0  0  0  0  0
    5.7893    2.1429   24.4904 C   0  0  0  0  0  0  0  0  0  0  0  0
    6.2317    0.9625   23.9019 C   0  0  0  0  0  0  0  0  0  0  0  0
    7.1069    0.9883   22.8109 C   0  0  0  0  0  0  0  0  0  0  0  0
    7.5297   -0.3085   22.2429 C   0  0  0  0  0  0  0  0  0  0  0  0
    8.2096   -1.3251   22.8750 C   0  0  0  0  0  0  0  0  0  0  0  0
    8.4551   -2.2707   21.8611 C   0  0  0  0  0  0  0  0  0  0  0  0
    7.9616   -1.8829   20.6948 N   0  0  0  0  0  0  0  0  0  0  0  0
    7.3671   -0.6972   20.9326 N   0  0  0  0  0  0  0  0  0  0  0  0
    6.6522   -0.0167   19.9129 C   0  0  0  0  0  0  0  0  0  0  0  0
    5.4408    0.6384   20.1722 C   0  0  0  0  0  0  0  0  0  0  0  0
    4.8156    1.2977   19.1093 C   0  0  0  0  0  0  0  0  0  0  0  0
    5.4122    1.2887   17.8429 C   0  0  0  0  0  0  0  0  0  0  0  0
    6.5769    0.6669   17.5955 N   0  0  0  0  0  0  0  0  0  0  0  0
    7.1746    0.0304   18.6068 C   0  0  0  0  0  0  0  0  0  0  0  0
    8.1206   -0.4498   18.3782 H   0  0  0  0  0  0  0  0  0  0  0  0
    4.9374    1.7827   16.9971 H   0  0  0  0  0  0  0  0  0  0  0  0
    3.8864    1.8334   19.2562 H   0  0  0  0  0  0  0  0  0  0  0  0
    5.0076    0.6380   21.1748 H   0  0  0  0  0  0  0  0  0  0  0  0
    8.9662   -3.2202   21.9308 H   0  0  0  0  0  0  0  0  0  0  0  0
    8.5103   -1.3264   23.9119 H   0  0  0  0  0  0  0  0  0  0  0  0
    7.5775    2.2310   22.3475 C   0  0  0  0  0  0  0  0  0  0  0  0
    8.7520    2.3124   21.0606 Cl  0  0  0  0  0  0  0  0  0  0  0  0
    5.9028   -0.0040   24.2690 H   0  0  0  0  0  0  0  0  0  0  0  0
    5.1087    2.1030   25.3321 H   0  0  0  0  0  0  0  0  0  0  0  0
    5.8984    4.3052   24.4389 H   0  0  0  0  0  0  0  0  0  0  0  0
    7.2027    5.4960   22.9124 H   0  0  0  0  0  0  0  0  0  0  0  0
    8.1677    4.7243   21.6933 H   0  0  0  0  0  0  0  0  0  0  0  0
  1  2  1  0
  2  3  2  0
  3  4  1  0
  4  5  2  0
  5  6  1  0
  6  7  1  0
  7  8  2  0
  8  9  1  0
  9 10  2  0
 10 11  1  0
 11 12  1  0
 12 13  2  0
 13 14  1  0
 14 15  2  0
 15 16  1  0
 16 17  2  0
 17 18  1  0
 15 19  1  0
 14 20  1  0
 13 21  1  0
  9 22  1  0
  8 23  1  0
  6 24  2  0
 24 25  1  0
  5 26  1  0
  4 27  1  0
  3 28  1  0
  1 29  1  0
  1 30  1  0
 24  2  1  0
 11  7  1  0
 17 12  1  0
M  END
>  <cnnaffinity>  (1) 
-4.81934

>  <filename>  (1) 
Nc1cccc(-c2ccnn2-c2cccnc2)c1Cl

$$$$
