
     RDKit          3D

 29 31  0  0  0  0  0  0  0  0999 V2000
    5.4100   -4.2755   25.5708 H   0  0  0  0  0  0  0  0  0  0  0  0
    6.4059   -3.8858   25.3608 C   0  0  0  0  0  0  0  0  0  0  0  0
    6.5787   -3.2661   24.1929 N   0  0  0  0  0  0  0  0  0  0  0  0
    7.8044   -2.7578   23.9371 C   0  0  0  0  0  0  0  0  0  0  0  0
    7.9731   -2.1341   22.6988 N   0  0  0  0  0  0  0  0  0  0  0  0
    6.9371   -1.8286   21.7674 C   0  0  0  0  0  0  0  0  0  0  0  0
    5.8370   -2.3313   21.7280 O   0  0  0  0  0  0  0  0  0  0  0  0
    7.5582   -0.8529   20.8348 C   0  0  0  0  0  0  0  0  0  0  0  0
    6.8310   -0.0837   19.7889 C   0  0  0  0  0  0  0  0  0  0  0  0
    7.3094    0.0661   18.4676 C   0  0  0  0  0  0  0  0  0  0  0  0
    8.2577   -0.3886   18.1800 H   0  0  0  0  0  0  0  0  0  0  0  0
    6.6554    0.7227   17.4999 N   0  0  0  0  0  0  0  0  0  0  0  0
    5.4846    1.2920   17.8278 C   0  0  0  0  0  0  0  0  0  0  0  0
    4.9707    1.8194   17.0289 H   0  0  0  0  0  0  0  0  0  0  0  0
    4.9308    1.2424   19.1092 C   0  0  0  0  0  0  0  0  0  0  0  0
    4.0003    1.7580   19.3158 H   0  0  0  0  0  0  0  0  0  0  0  0
    5.6131    0.5441   20.1038 C   0  0  0  0  0  0  0  0  0  0  0  0
    5.2380    0.4885   21.1254 H   0  0  0  0  0  0  0  0  0  0  0  0
    8.8609   -0.7586   21.1768 C   0  0  0  0  0  0  0  0  0  0  0  0
    9.6397   -0.1893   20.6817 H   0  0  0  0  0  0  0  0  0  0  0  0
    9.1640   -1.4476   22.3525 N   0  0  0  0  0  0  0  0  0  0  0  0
    9.9847   -2.0514   22.2787 H   0  0  0  0  0  0  0  0  0  0  0  0
    8.8631   -2.9013   24.8866 C   0  0  0  0  0  0  0  0  0  0  0  0
    9.8351   -2.4488   24.6947 H   0  0  0  0  0  0  0  0  0  0  0  0
    8.7089   -3.5664   26.0422 N   0  0  0  0  0  0  0  0  0  0  0  0
    7.4746   -4.0447   26.2998 C   0  0  0  0  0  0  0  0  0  0  0  0
    7.4101   -4.6258   27.5474 N   0  0  0  0  0  0  0  0  0  0  0  0
    8.3718   -4.8324   27.7855 H   0  0  0  0  0  0  0  0  0  0  0  0
    6.8067   -5.4250   27.6523 H   0  0  0  0  0  0  0  0  0  0  0  0
  1  2  1  0
  2  3  2  0
  3  4  1  0
  4  5  1  0
  5  6  1  0
  6  7  2  0
  6  8  1  0
  8  9  1  0
  9 10  2  0
 10 11  1  0
 10 12  1  0
 12 13  2  0
 13 14  1  0
 13 15  1  0
 15 16  1  0
 15 17  2  0
 17 18  1  0
  8 19  2  0
 19 20  1  0
 19 21  1  0
 21 22  1  0
  4 23  2  0
 23 24  1  0
 23 25  1  0
 25 26  2  0
 26 27  1  0
 27 28  1  0
 27 29  1  0
 26  2  1  0
 21  5  1  0
 17  9  1  0
M  END
>  <cnnaffinity>  (1) 
-4.8601

>  <filename>  (1) 
Nc1cnc(-n2[nH]cc(-c3cccnc3)c2=O)cn1

$$$$
