
     RDKit          3D

 25 26  0  0  0  0  0  0  0  0999 V2000
    7.4323   -2.3412   20.0819 H   0  0  0  0  0  0  0  0  0  0  0  0
    7.8050   -1.8277   20.9555 C   0  0  0  0  0  0  0  0  0  0  0  0
    7.3923   -0.5295   21.1190 C   0  0  0  0  0  0  0  0  0  0  0  0
    7.6832    0.3790   22.7727 Br  0  0  0  0  0  0  0  0  0  0  0  0
    6.6614    0.1060   20.0217 C   0  0  0  0  0  0  0  0  0  0  0  0
    7.1747    0.0228   18.7146 C   0  0  0  0  0  0  0  0  0  0  0  0
    8.1016   -0.5231   18.5549 H   0  0  0  0  0  0  0  0  0  0  0  0
    6.5883    0.5999   17.6504 N   0  0  0  0  0  0  0  0  0  0  0  0
    5.4357    1.2610   17.8576 C   0  0  0  0  0  0  0  0  0  0  0  0
    4.9524    1.7282   17.0056 H   0  0  0  0  0  0  0  0  0  0  0  0
    4.8294    1.3493   19.1183 C   0  0  0  0  0  0  0  0  0  0  0  0
    3.8755    1.8609   19.2076 H   0  0  0  0  0  0  0  0  0  0  0  0
    5.4571    0.7854   20.2325 C   0  0  0  0  0  0  0  0  0  0  0  0
    5.0085    0.8528   21.2244 H   0  0  0  0  0  0  0  0  0  0  0  0
    8.5526   -2.6315   21.9167 C   0  0  0  0  0  0  0  0  0  0  0  0
    8.1597   -3.9186   22.0242 N   0  0  0  0  0  0  0  0  0  0  0  0
    8.7865   -4.6320   22.9891 C   0  0  0  0  0  0  0  0  0  0  0  0
    8.5091   -5.6705   23.1316 H   0  0  0  0  0  0  0  0  0  0  0  0
    9.8236   -4.0675   23.7820 C   0  0  0  0  0  0  0  0  0  0  0  0
   10.6175   -4.6771   24.7051 N   0  0  0  0  0  0  0  0  0  0  0  0
   10.7233   -5.6843   24.6632 H   0  0  0  0  0  0  0  0  0  0  0  0
   11.4374   -4.0948   24.8658 H   0  0  0  0  0  0  0  0  0  0  0  0
   10.2685   -2.8294   23.6418 N   0  0  0  0  0  0  0  0  0  0  0  0
    9.6191   -2.1112   22.7059 C   0  0  0  0  0  0  0  0  0  0  0  0
    9.9482   -1.0937   22.5307 H   0  0  0  0  0  0  0  0  0  0  0  0
  1  2  1  0
  2  3  2  3
  3  4  1  0
  3  5  1  0
  5  6  2  0
  6  7  1  0
  6  8  1  0
  8  9  2  0
  9 10  1  0
  9 11  1  0
 11 12  1  0
 11 13  2  0
 13 14  1  0
  2 15  1  0
 15 16  2  0
 16 17  1  0
 17 18  1  0
 17 19  2  0
 19 20  1  0
 20 21  1  0
 20 22  1  0
 19 23  1  0
 23 24  2  0
 24 25  1  0
 13  5  1  0
 24 15  1  0
M  END
>  <cnnaffinity>  (1) 
-5.27658

>  <filename>  (1) 
Nc1cnc(C=C(Br)c2cccnc2)cn1

$$$$
