
     RDKit          3D

 27 29  0  0  0  0  0  0  0  0999 V2000
    4.8648   -0.4835   24.8216 H   0  0  0  0  0  0  0  0  0  0  0  0
    5.3701    0.4438   24.6068 C   0  0  0  0  0  0  0  0  0  0  0  0
    6.4145    0.4028   23.7511 N   0  0  0  0  0  0  0  0  0  0  0  0
    7.0513    1.5587   23.5478 C   0  0  0  0  0  0  0  0  0  0  0  0
    8.1275    1.5429   22.6381 N   0  0  0  0  0  0  0  0  0  0  0  0
    9.0723    2.5252   22.6137 N   0  0  0  0  0  0  0  0  0  0  0  0
    9.9509    2.1632   21.7642 N   0  0  0  0  0  0  0  0  0  0  0  0
    9.6401    0.9805   21.1950 N   0  0  0  0  0  0  0  0  0  0  0  0
    8.4972    0.6057   21.7244 C   0  0  0  0  0  0  0  0  0  0  0  0
    7.6189   -0.8109   21.1131 S   0  0  0  0  0  0  0  0  0  0  0  0
    6.6434   -0.0338   19.8160 C   0  0  0  0  0  0  0  0  0  0  0  0
    7.1267    0.0082   18.4966 C   0  0  0  0  0  0  0  0  0  0  0  0
    8.0604   -0.4955   18.2492 H   0  0  0  0  0  0  0  0  0  0  0  0
    6.5122    0.6552   17.5025 N   0  0  0  0  0  0  0  0  0  0  0  0
    5.3747    1.3036   17.7947 C   0  0  0  0  0  0  0  0  0  0  0  0
    4.9136    1.8441   16.9688 H   0  0  0  0  0  0  0  0  0  0  0  0
    4.7938    1.2981   19.0645 C   0  0  0  0  0  0  0  0  0  0  0  0
    3.8687    1.8390   19.2275 H   0  0  0  0  0  0  0  0  0  0  0  0
    5.4348    0.6149   20.1023 C   0  0  0  0  0  0  0  0  0  0  0  0
    5.0210    0.5863   21.1115 H   0  0  0  0  0  0  0  0  0  0  0  0
    6.6860    2.7487   24.2331 C   0  0  0  0  0  0  0  0  0  0  0  0
    7.2864    3.6483   24.0928 H   0  0  0  0  0  0  0  0  0  0  0  0
    5.6367    2.7947   25.0578 N   0  0  0  0  0  0  0  0  0  0  0  0
    4.9306    1.6512   25.2144 C   0  0  0  0  0  0  0  0  0  0  0  0
    3.7977    1.8830   25.9471 N   0  0  0  0  0  0  0  0  0  0  0  0
    3.3489    1.1357   26.4471 H   0  0  0  0  0  0  0  0  0  0  0  0
    3.9609    2.7617   26.4196 H   0  0  0  0  0  0  0  0  0  0  0  0
  1  2  1  0
  2  3  2  0
  3  4  1  0
  4  5  1  0
  5  6  1  0
  6  7  2  0
  7  8  1  0
  8  9  2  0
  9 10  1  0
 10 11  1  0
 11 12  2  0
 12 13  1  0
 12 14  1  0
 14 15  2  0
 15 16  1  0
 15 17  1  0
 17 18  1  0
 17 19  2  0
 19 20  1  0
  4 21  2  0
 21 22  1  0
 21 23  1  0
 23 24  2  0
 24 25  1  0
 25 26  1  0
 25 27  1  0
 24  2  1  0
  9  5  1  0
 19 11  1  0
M  END
>  <cnnaffinity>  (1) 
-4.40885

>  <filename>  (1) 
Nc1cnc(-n2nnnc2Sc2cccnc2)cn1

$$$$
