
     RDKit          3D

 25 26  0  0  0  0  0  0  0  0999 V2000
    9.5226    3.0206   23.4899 H   0  0  0  0  0  0  0  0  0  0  0  0
    8.5677    2.4927   23.5188 C   0  0  0  0  0  0  0  0  0  0  0  0
    7.5808    3.0774   24.1753 N   0  0  0  0  0  0  0  0  0  0  0  0
    6.4484    2.3809   24.1724 C   0  0  0  0  0  0  0  0  0  0  0  0
    5.4470    2.9425   24.8235 N   0  0  0  0  0  0  0  0  0  0  0  0
    5.6483    3.8271   25.2332 H   0  0  0  0  0  0  0  0  0  0  0  0
    4.6026    2.4173   24.8133 H   0  0  0  0  0  0  0  0  0  0  0  0
    6.1861    1.2044   23.6082 N   0  0  0  0  0  0  0  0  0  0  0  0
    7.2079    0.6534   22.9451 C   0  0  0  0  0  0  0  0  0  0  0  0
    7.0268   -0.6857   22.2336 C   0  0  0  0  0  0  0  0  0  0  0  0
    6.0068   -1.0372   22.3707 H   0  0  0  0  0  0  0  0  0  0  0  0
    7.7003   -1.4250   22.6715 H   0  0  0  0  0  0  0  0  0  0  0  0
    7.3996   -0.7057   20.8436 O   0  0  0  0  0  0  0  0  0  0  0  0
    6.6633   -0.0034   19.9310 C   0  0  0  0  0  0  0  0  0  0  0  0
    7.1779    0.0528   18.6137 C   0  0  0  0  0  0  0  0  0  0  0  0
    8.1246   -0.4384   18.3924 H   0  0  0  0  0  0  0  0  0  0  0  0
    6.5690    0.6706   17.5957 N   0  0  0  0  0  0  0  0  0  0  0  0
    5.4008    1.2885   17.8487 C   0  0  0  0  0  0  0  0  0  0  0  0
    4.9252    1.7810   17.0014 H   0  0  0  0  0  0  0  0  0  0  0  0
    4.8177    1.3002   19.1152 C   0  0  0  0  0  0  0  0  0  0  0  0
    3.8862    1.8316   19.2605 H   0  0  0  0  0  0  0  0  0  0  0  0
    5.4464    0.6407   20.1826 C   0  0  0  0  0  0  0  0  0  0  0  0
    5.0156    0.6409   21.1839 H   0  0  0  0  0  0  0  0  0  0  0  0
    8.4516    1.2661   22.8847 C   0  0  0  0  0  0  0  0  0  0  0  0
    9.2693    0.8115   22.3590 H   0  0  0  0  0  0  0  0  0  0  0  0
  1  2  1  0
  2  3  2  0
  3  4  1  0
  4  5  1  0
  5  6  1  0
  5  7  1  0
  4  8  2  0
  8  9  1  0
  9 10  1  0
 10 11  1  0
 10 12  1  0
 10 13  1  0
 13 14  1  0
 14 15  2  0
 15 16  1  0
 15 17  1  0
 17 18  2  0
 18 19  1  0
 18 20  1  0
 20 21  1  0
 20 22  2  0
 22 23  1  0
  9 24  2  0
 24 25  1  0
 24  2  1  0
 22 14  1  0
M  END
>  <cnnaffinity>  (1) 
-4.341

>  <filename>  (1) 
Nc1nccc(COc2cccnc2)n1

$$$$
