
     RDKit          3D

 36 37  0  0  0  0  0  0  0  0999 V2000
    9.5933   -0.3967   27.4215 N   0  0  0  0  0  0  0  0  0  0  0  0
    8.4284    0.3009   27.4987 C   0  0  0  0  0  0  0  0  0  0  0  0
    8.1083    0.6141   28.7414 N   0  0  0  0  0  0  0  0  0  0  0  0
    6.9485    1.2339   28.9377 C   0  0  0  0  0  0  0  0  0  0  0  0
    6.0666    1.5868   27.9087 C   0  0  0  0  0  0  0  0  0  0  0  0
    6.3984    1.2895   26.5760 C   0  0  0  0  0  0  0  0  0  0  0  0
    5.4622    1.6927   25.4037 C   0  0  0  0  0  0  0  0  0  0  0  0
    6.1514    2.2552   24.3940 F   0  0  0  0  0  0  0  0  0  0  0  0
    4.8389    0.6140   24.8772 F   0  0  0  0  0  0  0  0  0  0  0  0
    4.5057    2.5551   25.7783 F   0  0  0  0  0  0  0  0  0  0  0  0
    7.6269    0.6147   26.3792 C   0  0  0  0  0  0  0  0  0  0  0  0
    8.2993    0.1551   25.1494 C   0  0  0  0  0  0  0  0  0  0  0  0
    9.4439    0.4980   24.8802 O   0  0  0  0  0  0  0  0  0  0  0  0
    7.6228   -0.7999   24.4613 N   0  0  0  0  0  0  0  0  0  0  0  0
    8.0534   -1.3028   23.1648 C   0  0  0  0  0  0  0  0  0  0  0  0
    7.2841   -0.6108   22.0639 C   0  0  0  0  0  0  0  0  0  0  0  0
    7.4504   -0.7810   20.7495 C   0  0  0  0  0  0  0  0  0  0  0  0
    6.6932   -0.0386   19.7132 C   0  0  0  0  0  0  0  0  0  0  0  0
    5.5133    0.6685   20.0008 C   0  0  0  0  0  0  0  0  0  0  0  0
    4.8738    1.3613   18.9747 C   0  0  0  0  0  0  0  0  0  0  0  0
    5.4292    1.3256   17.6925 C   0  0  0  0  0  0  0  0  0  0  0  0
    6.5487    0.6494   17.3828 N   0  0  0  0  0  0  0  0  0  0  0  0
    7.1513   -0.0074   18.3799 C   0  0  0  0  0  0  0  0  0  0  0  0
    8.0613   -0.5398   18.1030 H   0  0  0  0  0  0  0  0  0  0  0  0
    4.9602    1.8684   16.8779 H   0  0  0  0  0  0  0  0  0  0  0  0
    3.9817    1.9472   19.1669 H   0  0  0  0  0  0  0  0  0  0  0  0
    5.1072    0.6694   21.0145 H   0  0  0  0  0  0  0  0  0  0  0  0
    8.2089   -1.4728   20.3767 H   0  0  0  0  0  0  0  0  0  0  0  0
    6.5535    0.1312   22.3958 H   0  0  0  0  0  0  0  0  0  0  0  0
    9.1379   -1.1400   23.0750 H   0  0  0  0  0  0  0  0  0  0  0  0
    7.8856   -2.3927   23.1301 H   0  0  0  0  0  0  0  0  0  0  0  0
    6.6284   -0.7731   24.5992 H   0  0  0  0  0  0  0  0  0  0  0  0
    5.1583    2.1203   28.1604 H   0  0  0  0  0  0  0  0  0  0  0  0
    6.7002    1.4883   29.9657 H   0  0  0  0  0  0  0  0  0  0  0  0
   10.1604   -0.0948   26.6407 H   0  0  0  0  0  0  0  0  0  0  0  0
    9.9937   -0.2192   28.3341 H   0  0  0  0  0  0  0  0  0  0  0  0
  1  2  1  0
  2  3  2  0
  3  4  1  0
  4  5  2  0
  5  6  1  0
  6  7  1  0
  7  8  1  0
  7  9  1  0
  7 10  1  0
  6 11  2  0
 11 12  1  0
 12 13  2  0
 12 14  1  0
 14 15  1  0
 15 16  1  0
 16 17  2  3
 17 18  1  0
 18 19  2  0
 19 20  1  0
 20 21  2  0
 21 22  1  0
 22 23  2  0
 23 24  1  0
 21 25  1  0
 20 26  1  0
 19 27  1  0
 17 28  1  0
 16 29  1  0
 15 30  1  0
 15 31  1  0
 14 32  1  0
  5 33  1  0
  4 34  1  0
  1 35  1  0
  1 36  1  0
 11  2  1  0
 23 18  1  0
M  END
>  <cnnaffinity>  (1) 
-4.73104

>  <filename>  (1) 
Nc1nccc(C(F)(F)F)c1C(=O)NCC=Cc1cccnc1

$$$$
