
     RDKit          3D

 33 35  0  0  0  0  0  0  0  0999 V2000
    4.9659    1.7893   16.9607 H   0  0  0  0  0  0  0  0  0  0  0  0
    5.4219    1.3006   17.8205 C   0  0  0  0  0  0  0  0  0  0  0  0
    6.5891    0.6704   17.6051 N   0  0  0  0  0  0  0  0  0  0  0  0
    7.1691    0.0589   18.6432 C   0  0  0  0  0  0  0  0  0  0  0  0
    8.1165   -0.4435   18.4514 H   0  0  0  0  0  0  0  0  0  0  0  0
    6.6287    0.0638   19.9423 C   0  0  0  0  0  0  0  0  0  0  0  0
    7.2778   -0.6134   21.0066 N   0  0  0  0  0  0  0  0  0  0  0  0
    7.6457   -0.1594   22.2691 C   0  0  0  0  0  0  0  0  0  0  0  0
    7.3278    1.1805   22.8624 C   0  0  0  0  0  0  0  0  0  0  0  0
    6.8680    1.2070   24.1985 C   0  0  0  0  0  0  0  0  0  0  0  0
    6.7911    0.2761   24.7582 H   0  0  0  0  0  0  0  0  0  0  0  0
    6.5267    2.4088   24.8046 C   0  0  0  0  0  0  0  0  0  0  0  0
    6.1516    2.4163   25.8224 H   0  0  0  0  0  0  0  0  0  0  0  0
    6.6635    3.6050   24.1065 C   0  0  0  0  0  0  0  0  0  0  0  0
    6.3871    4.5363   24.5916 H   0  0  0  0  0  0  0  0  0  0  0  0
    7.1506    3.6304   22.7894 C   0  0  0  0  0  0  0  0  0  0  0  0
    7.3852    4.9921   22.1488 C   0  0  0  0  0  0  0  0  0  0  0  0
    7.0661    5.0015   21.1022 H   0  0  0  0  0  0  0  0  0  0  0  0
    6.7365    5.7211   22.6547 H   0  0  0  0  0  0  0  0  0  0  0  0
    8.7667    5.4925   22.2359 N   0  0  0  0  0  0  0  0  0  0  0  0
    9.3654    4.9019   21.6590 H   0  0  0  0  0  0  0  0  0  0  0  0
    9.0933    5.3392   23.1872 H   0  0  0  0  0  0  0  0  0  0  0  0
    7.4547    2.4049   22.1654 C   0  0  0  0  0  0  0  0  0  0  0  0
    7.7726    2.3925   21.1200 H   0  0  0  0  0  0  0  0  0  0  0  0
    8.2347   -1.1278   22.9376 N   0  0  0  0  0  0  0  0  0  0  0  0
    8.2283   -2.2289   22.1283 C   0  0  0  0  0  0  0  0  0  0  0  0
    8.6390   -3.1792   22.4473 H   0  0  0  0  0  0  0  0  0  0  0  0
    7.6125   -1.9506   20.9531 C   0  0  0  0  0  0  0  0  0  0  0  0
    7.2803   -2.5774   20.1414 H   0  0  0  0  0  0  0  0  0  0  0  0
    5.4147    0.7167   20.1576 C   0  0  0  0  0  0  0  0  0  0  0  0
    5.0017    0.7380   21.1650 H   0  0  0  0  0  0  0  0  0  0  0  0
    4.7958    1.3367   19.0716 C   0  0  0  0  0  0  0  0  0  0  0  0
    3.8424    1.8381   19.1871 H   0  0  0  0  0  0  0  0  0  0  0  0
  1  2  1  0
  2  3  2  0
  3  4  1  0
  4  5  1  0
  4  6  2  0
  6  7  1  0
  7  8  1  0
  8  9  1  0
  9 10  2  0
 10 11  1  0
 10 12  1  0
 12 13  1  0
 12 14  2  0
 14 15  1  0
 14 16  1  0
 16 17  1  0
 17 18  1  0
 17 19  1  0
 17 20  1  0
 20 21  1  0
 20 22  1  0
 16 23  2  0
 23 24  1  0
  8 25  2  0
 25 26  1  0
 26 27  1  0
 26 28  2  0
 28 29  1  0
  6 30  1  0
 30 31  1  0
 30 32  2  0
 32 33  1  0
 32  2  1  0
 28  7  1  0
 23  9  1  0
M  END
>  <cnnaffinity>  (1) 
-4.67329

>  <filename>  (1) 
NCc1cccc(-c2nccn2-c2cccnc2)c1

$$$$
