
     RDKit          3D

 31 33  0  0  0  0  0  0  0  0999 V2000
    4.9156    1.7719   17.0050 H   0  0  0  0  0  0  0  0  0  0  0  0
    5.4075    1.2880   17.8462 C   0  0  0  0  0  0  0  0  0  0  0  0
    6.5742    0.6732   17.5874 N   0  0  0  0  0  0  0  0  0  0  0  0
    7.1833    0.0564   18.6063 C   0  0  0  0  0  0  0  0  0  0  0  0
    8.1304   -0.4332   18.3747 H   0  0  0  0  0  0  0  0  0  0  0  0
    6.6522    0.0145   19.8995 C   0  0  0  0  0  0  0  0  0  0  0  0
    7.3464   -0.6832   20.9782 C   0  0  0  0  0  0  0  0  0  0  0  0
    6.9442   -0.7823   22.2036 N   0  0  0  0  0  0  0  0  0  0  0  0
    7.9415   -1.5239   22.7832 C   0  0  0  0  0  0  0  0  0  0  0  0
    7.9439   -1.9157   24.2113 C   0  0  0  0  0  0  0  0  0  0  0  0
    9.0050   -2.6824   24.7315 C   0  0  0  0  0  0  0  0  0  0  0  0
    9.8251   -2.9850   24.0872 H   0  0  0  0  0  0  0  0  0  0  0  0
    9.0076   -3.0581   26.0702 C   0  0  0  0  0  0  0  0  0  0  0  0
    9.8231   -3.6552   26.4666 H   0  0  0  0  0  0  0  0  0  0  0  0
    7.9639   -2.6685   26.9060 C   0  0  0  0  0  0  0  0  0  0  0  0
    7.9849   -2.9924   27.9359 H   0  0  0  0  0  0  0  0  0  0  0  0
    6.9029   -1.8863   26.4232 C   0  0  0  0  0  0  0  0  0  0  0  0
    5.7408   -1.5244   27.3256 C   0  0  0  0  0  0  0  0  0  0  0  0
    5.3272   -0.5548   27.0263 H   0  0  0  0  0  0  0  0  0  0  0  0
    6.0924   -1.3972   28.3554 H   0  0  0  0  0  0  0  0  0  0  0  0
    4.6651   -2.5235   27.3124 N   0  0  0  0  0  0  0  0  0  0  0  0
    5.0815   -3.4199   27.5601 H   0  0  0  0  0  0  0  0  0  0  0  0
    4.3812   -2.6456   26.3416 H   0  0  0  0  0  0  0  0  0  0  0  0
    6.8951   -1.5280   25.0664 C   0  0  0  0  0  0  0  0  0  0  0  0
    6.0606   -0.9449   24.6722 H   0  0  0  0  0  0  0  0  0  0  0  0
    8.8986   -1.8618   21.9519 N   0  0  0  0  0  0  0  0  0  0  0  0
    8.5054   -1.3028   20.7527 O   0  0  0  0  0  0  0  0  0  0  0  0
    5.4346    0.6561   20.1607 C   0  0  0  0  0  0  0  0  0  0  0  0
    5.0065    0.6304   21.1653 H   0  0  0  0  0  0  0  0  0  0  0  0
    4.8037    1.3111   19.1104 C   0  0  0  0  0  0  0  0  0  0  0  0
    3.8708    1.8459   19.2639 H   0  0  0  0  0  0  0  0  0  0  0  0
  1  2  1  0
  2  3  2  0
  3  4  1  0
  4  5  1  0
  4  6  2  0
  6  7  1  0
  7  8  2  0
  8  9  1  0
  9 10  1  0
 10 11  2  0
 11 12  1  0
 11 13  1  0
 13 14  1  0
 13 15  2  0
 15 16  1  0
 15 17  1  0
 17 18  1  0
 18 19  1  0
 18 20  1  0
 18 21  1  0
 21 22  1  0
 21 23  1  0
 17 24  2  0
 24 25  1  0
  9 26  2  0
 26 27  1  0
  6 28  1  0
 28 29  1  0
 28 30  2  0
 30 31  1  0
 30  2  1  0
 27  7  1  0
 24 10  1  0
M  END
>  <cnnaffinity>  (1) 
-4.57318

>  <filename>  (1) 
NCc1cccc(-c2noc(-c3cccnc3)n2)c1

$$$$
