
     RDKit          3D

 29 30  0  0  0  0  0  0  0  0999 V2000
    5.2595    1.8623   17.2427 H   0  0  0  0  0  0  0  0  0  0  0  0
    5.6440    1.1895   18.0110 C   0  0  0  0  0  0  0  0  0  0  0  0
    6.7311    0.4709   17.6875 N   0  0  0  0  0  0  0  0  0  0  0  0
    7.2391   -0.3533   18.6157 C   0  0  0  0  0  0  0  0  0  0  0  0
    8.1195   -0.9310   18.3289 H   0  0  0  0  0  0  0  0  0  0  0  0
    6.6931   -0.4920   19.9098 C   0  0  0  0  0  0  0  0  0  0  0  0
    7.2970   -1.3166   20.9241 N   0  0  0  0  0  0  0  0  0  0  0  0
    8.4462   -1.0408   21.6674 C   0  0  0  0  0  0  0  0  0  0  0  0
    9.2154    0.2319   21.5438 C   0  0  0  0  0  0  0  0  0  0  0  0
   10.2609    0.0427   21.8064 H   0  0  0  0  0  0  0  0  0  0  0  0
    9.1990    0.5471   20.4934 H   0  0  0  0  0  0  0  0  0  0  0  0
    8.6668    1.3680   22.4403 C   0  0  0  0  0  0  0  0  0  0  0  0
    8.8740    1.1182   23.4873 H   0  0  0  0  0  0  0  0  0  0  0  0
    7.5711    1.4281   22.3452 H   0  0  0  0  0  0  0  0  0  0  0  0
    9.2771    2.7395   22.1457 C   0  0  0  0  0  0  0  0  0  0  0  0
    9.0749    2.9948   21.0971 H   0  0  0  0  0  0  0  0  0  0  0  0
    8.7562    3.4983   22.7567 H   0  0  0  0  0  0  0  0  0  0  0  0
   10.7286    2.7260   22.3293 N   0  0  0  0  0  0  0  0  0  0  0  0
   11.1493    3.4910   21.8102 H   0  0  0  0  0  0  0  0  0  0  0  0
   10.9734    2.8446   23.3095 H   0  0  0  0  0  0  0  0  0  0  0  0
    8.6794   -1.9764   22.5395 N   0  0  0  0  0  0  0  0  0  0  0  0
    7.6451   -2.8492   22.3670 N   0  0  0  0  0  0  0  0  0  0  0  0
    7.5010   -3.6615   22.9406 H   0  0  0  0  0  0  0  0  0  0  0  0
    6.7456   -2.4828   21.4324 C   0  0  0  0  0  0  0  0  0  0  0  0
    5.3556   -3.3040   21.0440 S   0  0  0  0  0  0  0  0  0  0  0  0
    5.5276    0.2156   20.2144 C   0  0  0  0  0  0  0  0  0  0  0  0
    5.0573    0.0664   21.1880 H   0  0  0  0  0  0  0  0  0  0  0  0
    5.0109    1.0923   19.2533 C   0  0  0  0  0  0  0  0  0  0  0  0
    4.1393    1.7081   19.4559 H   0  0  0  0  0  0  0  0  0  0  0  0
  1  2  1  0
  2  3  2  0
  3  4  1  0
  4  5  1  0
  4  6  2  0
  6  7  1  0
  7  8  1  0
  8  9  1  0
  9 10  1  0
  9 11  1  0
  9 12  1  0
 12 13  1  0
 12 14  1  0
 12 15  1  0
 15 16  1  0
 15 17  1  0
 15 18  1  0
 18 19  1  0
 18 20  1  0
  8 21  2  0
 21 22  1  0
 22 23  1  0
 22 24  1  0
 24 25  2  0
  6 26  1  0
 26 27  1  0
 26 28  2  0
 28 29  1  0
 28  2  1  0
 24  7  1  0
M  END
>  <cnnaffinity>  (1) 
-4.76428

>  <filename>  (1) 
NCCCc1n[nH]c(=S)n1-c1cccnc1

$$$$
