
     RDKit          3D

 33 34  0  0  0  0  0  0  0  0999 V2000
    4.9451    1.7856   17.0019 H   0  0  0  0  0  0  0  0  0  0  0  0
    5.4091    1.2786   17.8474 C   0  0  0  0  0  0  0  0  0  0  0  0
    6.5676    0.6517   17.5944 N   0  0  0  0  0  0  0  0  0  0  0  0
    7.1529    0.0121   18.6172 C   0  0  0  0  0  0  0  0  0  0  0  0
    8.1204   -0.4421   18.3957 H   0  0  0  0  0  0  0  0  0  0  0  0
    6.6343   -0.0594   19.9185 C   0  0  0  0  0  0  0  0  0  0  0  0
    7.3777   -0.7781   20.9990 C   0  0  0  0  0  0  0  0  0  0  0  0
    7.0285   -2.1709   21.1021 N   0  0  0  0  0  0  0  0  0  0  0  0
    6.2884   -2.4924   20.5115 H   0  0  0  0  0  0  0  0  0  0  0  0
    7.5476   -3.0687   21.9884 C   0  0  0  0  0  0  0  0  0  0  0  0
    8.3897   -2.7778   22.8192 O   0  0  0  0  0  0  0  0  0  0  0  0
    6.9871   -4.4885   21.9081 C   0  0  0  0  0  0  0  0  0  0  0  0
    6.8194   -4.8168   20.8737 H   0  0  0  0  0  0  0  0  0  0  0  0
    7.7767   -5.1240   22.3221 H   0  0  0  0  0  0  0  0  0  0  0  0
    5.6923   -4.6890   22.7345 C   0  0  0  0  0  0  0  0  0  0  0  0
    5.8735   -4.3961   23.7774 H   0  0  0  0  0  0  0  0  0  0  0  0
    4.9024   -4.0247   22.3505 H   0  0  0  0  0  0  0  0  0  0  0  0
    5.1508   -6.1224   22.7422 C   0  0  0  0  0  0  0  0  0  0  0  0
    5.9253   -6.8128   23.1042 H   0  0  0  0  0  0  0  0  0  0  0  0
    4.3200   -6.1817   23.4689 H   0  0  0  0  0  0  0  0  0  0  0  0
    4.7825   -6.5305   21.3912 N   0  0  0  0  0  0  0  0  0  0  0  0
    4.5074   -7.5120   21.3876 H   0  0  0  0  0  0  0  0  0  0  0  0
    3.9599   -6.0089   21.1026 H   0  0  0  0  0  0  0  0  0  0  0  0
    8.8001   -0.3689   21.2758 C   0  0  0  0  0  0  0  0  0  0  0  0
    9.5038   -1.1406   21.5738 H   0  0  0  0  0  0  0  0  0  0  0  0
    9.2041    0.4311   20.6573 H   0  0  0  0  0  0  0  0  0  0  0  0
    7.7095   -0.0045   22.2477 C   0  0  0  0  0  0  0  0  0  0  0  0
    7.6741   -0.5253   23.1996 H   0  0  0  0  0  0  0  0  0  0  0  0
    7.3908    1.0374   22.2668 H   0  0  0  0  0  0  0  0  0  0  0  0
    5.4278    0.6144   20.1588 C   0  0  0  0  0  0  0  0  0  0  0  0
    5.0211    0.6286   21.1731 H   0  0  0  0  0  0  0  0  0  0  0  0
    4.8055    1.2908   19.1095 C   0  0  0  0  0  0  0  0  0  0  0  0
    3.8834    1.8414   19.2539 H   0  0  0  0  0  0  0  0  0  0  0  0
  1  2  1  0
  2  3  2  0
  3  4  1  0
  4  5  1  0
  4  6  2  0
  6  7  1  0
  7  8  1  0
  8  9  1  0
  8 10  1  0
 10 11  2  0
 10 12  1  0
 12 13  1  0
 12 14  1  0
 12 15  1  0
 15 16  1  0
 15 17  1  0
 15 18  1  0
 18 19  1  0
 18 20  1  0
 18 21  1  0
 21 22  1  0
 21 23  1  0
  7 24  1  0
 24 25  1  0
 24 26  1  0
 24 27  1  0
 27 28  1  0
 27 29  1  0
  6 30  1  0
 30 31  1  0
 30 32  2  0
 32 33  1  0
 32  2  1  0
 27  7  1  0
M  END
>  <cnnaffinity>  (1) 
-4.5985

>  <filename>  (1) 
NCCCC(=O)NC1(c2cccnc2)CC1

$$$$
