
     RDKit          3D

 36 37  0  0  0  0  0  0  0  0999 V2000
    4.9141    1.7944   16.9845 H   0  0  0  0  0  0  0  0  0  0  0  0
    5.3948    1.2982   17.8243 C   0  0  0  0  0  0  0  0  0  0  0  0
    6.5544    0.6846   17.5571 N   0  0  0  0  0  0  0  0  0  0  0  0
    7.1620    0.0692   18.5814 C   0  0  0  0  0  0  0  0  0  0  0  0
    8.1102   -0.4137   18.3519 H   0  0  0  0  0  0  0  0  0  0  0  0
    6.6612    0.0121   19.8903 C   0  0  0  0  0  0  0  0  0  0  0  0
    7.4104   -0.7189   20.9749 C   0  0  2  0  0  0  0  0  0  0  0  0
    8.3392   -1.1408   20.5606 H   0  0  0  0  0  0  0  0  0  0  0  0
    6.5921   -1.9148   21.5071 C   0  0  0  0  0  0  0  0  0  0  0  0
    6.3368   -2.5943   20.6863 H   0  0  0  0  0  0  0  0  0  0  0  0
    5.6334   -1.5420   21.8766 H   0  0  0  0  0  0  0  0  0  0  0  0
    7.3379   -2.6478   22.6265 C   0  0  0  0  0  0  0  0  0  0  0  0
    8.2469   -3.1148   22.2257 H   0  0  0  0  0  0  0  0  0  0  0  0
    6.7224   -3.4564   23.0449 H   0  0  0  0  0  0  0  0  0  0  0  0
    7.7575   -1.6772   23.7399 C   0  0  1  0  0  0  0  0  0  0  0  0
    6.8357   -1.2497   24.1817 H   0  0  0  0  0  0  0  0  0  0  0  0
    8.5254   -2.3550   24.7171 O   0  0  0  0  0  0  0  0  0  0  0  0
    7.7578   -2.8322   25.8003 C   0  0  0  0  0  0  0  0  0  0  0  0
    7.3553   -1.9848   26.3868 H   0  0  0  0  0  0  0  0  0  0  0  0
    6.8823   -3.4182   25.4650 H   0  0  0  0  0  0  0  0  0  0  0  0
    8.6080   -3.7133   26.7063 C   0  0  0  0  0  0  0  0  0  0  0  0
    9.0107   -4.5601   26.1405 H   0  0  0  0  0  0  0  0  0  0  0  0
    9.4637   -3.1331   27.0673 H   0  0  0  0  0  0  0  0  0  0  0  0
    7.8685   -4.2287   27.8635 N   0  0  0  0  0  0  0  0  0  0  0  0
    7.0475   -4.7364   27.5474 H   0  0  0  0  0  0  0  0  0  0  0  0
    7.4840   -3.4205   28.3353 H   0  0  0  0  0  0  0  0  0  0  0  0
    8.5863   -0.5078   23.2144 C   0  0  0  0  0  0  0  0  0  0  0  0
    9.5333   -0.9056   22.8265 H   0  0  0  0  0  0  0  0  0  0  0  0
    8.8396    0.1568   24.0501 H   0  0  0  0  0  0  0  0  0  0  0  0
    7.8311    0.2414   22.1111 C   0  0  0  0  0  0  0  0  0  0  0  0
    8.4421    1.0534   21.7018 H   0  0  0  0  0  0  0  0  0  0  0  0
    6.9360    0.7240   22.5335 H   0  0  0  0  0  0  0  0  0  0  0  0
    5.4421    0.6538   20.1440 C   0  0  0  0  0  0  0  0  0  0  0  0
    5.0055    0.6401   21.1492 H   0  0  0  0  0  0  0  0  0  0  0  0
    4.8040    1.3130   19.0930 C   0  0  0  0  0  0  0  0  0  0  0  0
    3.8767    1.8409   19.2502 H   0  0  0  0  0  0  0  0  0  0  0  0
  1  2  1  0
  2  3  2  0
  3  4  1  0
  4  5  1  0
  4  6  2  0
  6  7  1  0
  7  8  1  6
  7  9  1  0
  9 10  1  0
  9 11  1  0
  9 12  1  0
 12 13  1  0
 12 14  1  0
 12 15  1  0
 15 16  1  1
 15 17  1  0
 17 18  1  0
 18 19  1  0
 18 20  1  0
 18 21  1  0
 21 22  1  0
 21 23  1  0
 21 24  1  0
 24 25  1  0
 24 26  1  0
 15 27  1  0
 27 28  1  0
 27 29  1  0
 27 30  1  0
 30 31  1  0
 30 32  1  0
  6 33  1  0
 33 34  1  0
 33 35  2  0
 35 36  1  0
 35  2  1  0
 30  7  1  0
M  END
>  <cnnaffinity>  (1) 
-4.52276

>  <filename>  (1) 
NCCO[C@H]1CC[C@H](c2cccnc2)CC1

$$$$
