
     RDKit          3D

 29 30  0  0  0  0  0  0  0  0999 V2000
    4.9199    1.7834   16.9902 H   0  0  0  0  0  0  0  0  0  0  0  0
    5.3999    1.2948   17.8342 C   0  0  0  0  0  0  0  0  0  0  0  0
    6.5625    0.6748   17.5767 N   0  0  0  0  0  0  0  0  0  0  0  0
    7.1684    0.0670   18.6041 C   0  0  0  0  0  0  0  0  0  0  0  0
    8.1111   -0.4262   18.3710 H   0  0  0  0  0  0  0  0  0  0  0  0
    6.6499    0.0075   19.9066 C   0  0  0  0  0  0  0  0  0  0  0  0
    7.3670   -0.7137   20.9753 C   0  0  0  0  0  0  0  0  0  0  0  0
    8.7551   -0.5786   21.1352 C   0  0  0  0  0  0  0  0  0  0  0  0
    9.3167    0.0705   20.4804 H   0  0  0  0  0  0  0  0  0  0  0  0
    9.3667   -1.2624   22.1696 C   0  0  0  0  0  0  0  0  0  0  0  0
   10.4394   -1.1627   22.3068 H   0  0  0  0  0  0  0  0  0  0  0  0
    8.7307   -2.0734   23.0337 N   0  0  0  0  0  0  0  0  0  0  0  0
    7.4192   -2.1866   22.8732 C   0  0  0  0  0  0  0  0  0  0  0  0
    6.6822   -2.9583   23.6974 O   0  0  0  0  0  0  0  0  0  0  0  0
    7.3030   -3.7521   24.7185 C   0  0  0  0  0  0  0  0  0  0  0  0
    6.4884   -4.0354   25.3879 H   0  0  0  0  0  0  0  0  0  0  0  0
    8.0153   -3.1573   25.2972 H   0  0  0  0  0  0  0  0  0  0  0  0
    7.9708   -5.0254   24.1887 C   0  0  0  0  0  0  0  0  0  0  0  0
    8.7426   -4.7385   23.4678 H   0  0  0  0  0  0  0  0  0  0  0  0
    7.2311   -5.6147   23.6344 H   0  0  0  0  0  0  0  0  0  0  0  0
    8.5653   -5.8737   25.2251 N   0  0  0  0  0  0  0  0  0  0  0  0
    7.8602   -6.1576   25.9015 H   0  0  0  0  0  0  0  0  0  0  0  0
    9.2412   -5.3342   25.7615 H   0  0  0  0  0  0  0  0  0  0  0  0
    6.6954   -1.5353   21.8621 C   0  0  0  0  0  0  0  0  0  0  0  0
    5.6322   -1.7011   21.7863 H   0  0  0  0  0  0  0  0  0  0  0  0
    5.4281    0.6524   20.1509 C   0  0  0  0  0  0  0  0  0  0  0  0
    5.0063    0.6415   21.1589 H   0  0  0  0  0  0  0  0  0  0  0  0
    4.8023    1.3176   19.0996 C   0  0  0  0  0  0  0  0  0  0  0  0
    3.8716    1.8464   19.2528 H   0  0  0  0  0  0  0  0  0  0  0  0
  1  2  1  0
  2  3  2  0
  3  4  1  0
  4  5  1  0
  4  6  2  0
  6  7  1  0
  7  8  2  0
  8  9  1  0
  8 10  1  0
 10 11  1  0
 10 12  2  0
 12 13  1  0
 13 14  1  0
 14 15  1  0
 15 16  1  0
 15 17  1  0
 15 18  1  0
 18 19  1  0
 18 20  1  0
 18 21  1  0
 21 22  1  0
 21 23  1  0
 13 24  2  0
 24 25  1  0
  6 26  1  0
 26 27  1  0
 26 28  2  0
 28 29  1  0
 28  2  1  0
 24  7  1  0
M  END
>  <cnnaffinity>  (1) 
-4.41219

>  <filename>  (1) 
NCCOc1cc(-c2cccnc2)ccn1

$$$$
