
     RDKit          3D

 32 34  0  0  0  0  0  0  0  0999 V2000
    5.6390    5.2981   21.9373 N   0  0  0  0  0  0  0  0  0  0  0  0
    7.1292    5.0811   22.6242 S   0  0  0  0  0  0  0  0  0  0  0  0
    7.1795    6.1101   23.6465 O   0  0  0  0  0  0  0  0  0  0  0  0
    8.0186    5.0730   21.4811 O   0  0  0  0  0  0  0  0  0  0  0  0
    7.0498    3.4223   23.3577 C   0  0  0  0  0  0  0  0  0  0  0  0
    6.7017    3.2038   24.7054 C   0  0  0  0  0  0  0  0  0  0  0  0
    6.6833    1.8916   25.2084 C   0  0  0  0  0  0  0  0  0  0  0  0
    6.9733    0.8149   24.4727 N   0  0  0  0  0  0  0  0  0  0  0  0
    7.2723    0.9999   23.1735 C   0  0  0  0  0  0  0  0  0  0  0  0
    7.6059   -0.2269   22.4261 C   0  0  0  0  0  0  0  0  0  0  0  0
    8.2580   -1.3463   22.9029 C   0  0  0  0  0  0  0  0  0  0  0  0
    8.5316   -2.1194   21.7656 C   0  0  0  0  0  0  0  0  0  0  0  0
    8.0568   -1.5556   20.6708 N   0  0  0  0  0  0  0  0  0  0  0  0
    7.4785   -0.4001   21.0631 N   0  0  0  0  0  0  0  0  0  0  0  0
    6.7929    0.3374   20.0572 C   0  0  0  0  0  0  0  0  0  0  0  0
    5.6066    1.0568   20.2581 C   0  0  0  0  0  0  0  0  0  0  0  0
    4.9600    1.5907   19.1364 C   0  0  0  0  0  0  0  0  0  0  0  0
    5.5217    1.4147   17.8699 C   0  0  0  0  0  0  0  0  0  0  0  0
    6.6809    0.7633   17.6728 N   0  0  0  0  0  0  0  0  0  0  0  0
    7.2898    0.2457   18.7394 C   0  0  0  0  0  0  0  0  0  0  0  0
    8.2253   -0.2794   18.5609 H   0  0  0  0  0  0  0  0  0  0  0  0
    5.0280    1.7967   16.9783 H   0  0  0  0  0  0  0  0  0  0  0  0
    4.0366    2.1533   19.2353 H   0  0  0  0  0  0  0  0  0  0  0  0
    5.1920    1.2072   21.2559 H   0  0  0  0  0  0  0  0  0  0  0  0
    9.0769   -3.0531   21.6856 H   0  0  0  0  0  0  0  0  0  0  0  0
    8.5033   -1.5378   23.9386 H   0  0  0  0  0  0  0  0  0  0  0  0
    7.3642    2.2851   22.5914 C   0  0  0  0  0  0  0  0  0  0  0  0
    7.7211    2.3448   21.5677 H   0  0  0  0  0  0  0  0  0  0  0  0
    6.4272    1.7213   26.2563 H   0  0  0  0  0  0  0  0  0  0  0  0
    6.4948    4.0328   25.3726 H   0  0  0  0  0  0  0  0  0  0  0  0
    5.9139    5.1105   20.9746 H   0  0  0  0  0  0  0  0  0  0  0  0
    5.6369    6.3064   22.0614 H   0  0  0  0  0  0  0  0  0  0  0  0
  1  2  1  0
  2  3  2  0
  2  4  2  0
  2  5  1  0
  5  6  2  0
  6  7  1  0
  7  8  2  0
  8  9  1  0
  9 10  1  0
 10 11  2  0
 11 12  1  0
 12 13  2  0
 13 14  1  0
 14 15  1  0
 15 16  2  0
 16 17  1  0
 17 18  2  0
 18 19  1  0
 19 20  2  0
 20 21  1  0
 18 22  1  0
 17 23  1  0
 16 24  1  0
 12 25  1  0
 11 26  1  0
  9 27  2  0
 27 28  1  0
  7 29  1  0
  6 30  1  0
  1 31  1  0
  1 32  1  0
 27  5  1  0
 14 10  1  0
 20 15  1  0
M  END
>  <cnnaffinity>  (1) 
-5.14852

>  <filename>  (1) 
NS(=O)(=O)c1ccnc(-c2ccnn2-c2cccnc2)c1

$$$$
