
     RDKit          3D

 26 27  0  0  0  0  0  0  0  0999 V2000
    4.9330    1.8888   17.0130 H   0  0  0  0  0  0  0  0  0  0  0  0
    5.3888    1.2963   17.8052 C   0  0  0  0  0  0  0  0  0  0  0  0
    6.5404    0.6753   17.4944 N   0  0  0  0  0  0  0  0  0  0  0  0
    7.1442   -0.0118   18.4677 C   0  0  0  0  0  0  0  0  0  0  0  0
    8.0870   -0.5001   18.2219 H   0  0  0  0  0  0  0  0  0  0  0  0
    6.6377   -0.1368   19.7760 C   0  0  0  0  0  0  0  0  0  0  0  0
    7.4464   -0.7527   20.7749 N   0  0  0  0  0  0  0  0  0  0  0  0
    8.7690   -0.3344   20.9771 C   0  0  0  0  0  0  0  0  0  0  0  0
    9.1909    0.5393   20.5131 H   0  0  0  0  0  0  0  0  0  0  0  0
    9.2747   -1.1527   21.9087 C   0  0  0  0  0  0  0  0  0  0  0  0
   10.5287   -1.3462   22.4817 N   0  0  0  0  0  0  0  0  0  0  0  0
   10.5586   -1.1834   23.4789 H   0  0  0  0  0  0  0  0  0  0  0  0
   11.7316   -0.2930   22.0445 S   0  0  0  0  0  0  0  0  0  0  0  0
   12.5544   -0.2608   23.2219 O   0  0  0  0  0  0  0  0  0  0  0  0
   11.2356    0.8765   21.3702 O   0  0  0  0  0  0  0  0  0  0  0  0
   12.3329   -1.3248   20.9252 N   0  0  0  0  0  0  0  0  0  0  0  0
   11.4827   -1.4029   20.3701 H   0  0  0  0  0  0  0  0  0  0  0  0
   12.3251   -2.1639   21.4902 H   0  0  0  0  0  0  0  0  0  0  0  0
    8.3143   -2.0304   22.2932 N   0  0  0  0  0  0  0  0  0  0  0  0
    8.4581   -2.8697   22.8241 H   0  0  0  0  0  0  0  0  0  0  0  0
    7.1574   -1.8319   21.5945 C   0  0  0  0  0  0  0  0  0  0  0  0
    5.8178   -2.7980   21.7339 S   0  0  0  0  0  0  0  0  0  0  0  0
    5.4011    0.4426   20.0729 C   0  0  0  0  0  0  0  0  0  0  0  0
    4.9501    0.3187   21.0587 H   0  0  0  0  0  0  0  0  0  0  0  0
    4.7863    1.1995   19.0656 C   0  0  0  0  0  0  0  0  0  0  0  0
    3.8628    1.7367   19.2497 H   0  0  0  0  0  0  0  0  0  0  0  0
  1  2  1  0
  2  3  2  0
  3  4  1  0
  4  5  1  0
  4  6  2  0
  6  7  1  0
  7  8  1  0
  8  9  1  0
  8 10  2  0
 10 11  1  0
 11 12  1  0
 11 13  1  0
 13 14  2  0
 13 15  2  0
 13 16  1  0
 16 17  1  0
 16 18  1  0
 10 19  1  0
 19 20  1  0
 19 21  1  0
 21 22  2  0
  6 23  1  0
 23 24  1  0
 23 25  2  0
 25 26  1  0
 25  2  1  0
 21  7  1  0
M  END
>  <cnnaffinity>  (1) 
-5.0774

>  <filename>  (1) 
NS(=O)(=O)Nc1cn(-c2cccnc2)c(=S)[nH]1

$$$$
