
     RDKit          3D

 41 43  0  0  0  0  0  0  0  0999 V2000
    5.4592   -2.3560   28.3722 N   0  0  0  0  0  0  0  0  0  0  0  0
    5.6043   -3.3964   27.0906 S   0  0  0  0  0  0  0  0  0  0  0  0
    6.3081   -4.5499   27.5963 O   0  0  0  0  0  0  0  0  0  0  0  0
    4.2182   -3.4431   26.6517 O   0  0  0  0  0  0  0  0  0  0  0  0
    6.5762   -2.5236   25.9427 C   0  0  0  0  0  0  0  0  0  0  0  0
    5.9417   -1.5198   25.2064 C   0  0  0  0  0  0  0  0  0  0  0  0
    6.6672   -0.7997   24.2807 C   0  0  0  0  0  0  0  0  0  0  0  0
    8.0339   -1.0625   24.0718 C   0  0  0  0  0  0  0  0  0  0  0  0
    8.7352   -0.3605   23.1163 N   0  0  0  0  0  0  0  0  0  0  0  0
   10.1654   -0.1374   23.2039 C   0  0  0  0  0  0  0  0  0  0  0  0
   10.4070    1.0565   22.2783 C   0  0  0  0  0  0  0  0  0  0  0  0
    9.2684    0.9788   21.2560 C   0  0  0  0  0  0  0  0  0  0  0  0
    8.0982    0.2709   21.9659 C   0  0  0  0  0  0  0  0  0  0  0  0
    7.3515   -0.7209   21.0202 C   0  0  0  0  0  0  0  0  0  0  0  0
    6.6288   -0.0304   19.8798 C   0  0  0  0  0  0  0  0  0  0  0  0
    5.4182    0.6389   20.1115 C   0  0  0  0  0  0  0  0  0  0  0  0
    4.7965    1.3140   19.0594 C   0  0  0  0  0  0  0  0  0  0  0  0
    5.4071    1.3084   17.8019 C   0  0  0  0  0  0  0  0  0  0  0  0
    6.5570    0.6707   17.5472 N   0  0  0  0  0  0  0  0  0  0  0  0
    7.1441    0.0267   18.5686 C   0  0  0  0  0  0  0  0  0  0  0  0
    8.0798   -0.4790   18.3228 H   0  0  0  0  0  0  0  0  0  0  0  0
    4.9495    1.8409   16.9678 H   0  0  0  0  0  0  0  0  0  0  0  0
    3.8687    1.8527   19.2037 H   0  0  0  0  0  0  0  0  0  0  0  0
    4.9695    0.6390   21.1092 H   0  0  0  0  0  0  0  0  0  0  0  0
    8.0815   -1.4446   20.6359 H   0  0  0  0  0  0  0  0  0  0  0  0
    6.6275   -1.3016   21.6041 H   0  0  0  0  0  0  0  0  0  0  0  0
    7.3689    1.0173   22.3268 H   0  0  0  0  0  0  0  0  0  0  0  0
    8.9671    1.9631   20.8873 H   0  0  0  0  0  0  0  0  0  0  0  0
    9.5809    0.3747   20.3948 H   0  0  0  0  0  0  0  0  0  0  0  0
   11.3921    0.9978   21.8062 H   0  0  0  0  0  0  0  0  0  0  0  0
   10.3553    1.9910   22.8496 H   0  0  0  0  0  0  0  0  0  0  0  0
   10.7284   -1.0294   22.8801 H   0  0  0  0  0  0  0  0  0  0  0  0
   10.4655    0.0910   24.2368 H   0  0  0  0  0  0  0  0  0  0  0  0
    8.6626   -2.0543   24.8530 C   0  0  0  0  0  0  0  0  0  0  0  0
    7.9427   -2.7899   25.7870 C   0  0  0  0  0  0  0  0  0  0  0  0
    8.4510   -3.5588   26.3704 H   0  0  0  0  0  0  0  0  0  0  0  0
    9.7180   -2.2482   24.6896 H   0  0  0  0  0  0  0  0  0  0  0  0
    6.1644   -0.0411   23.6953 H   0  0  0  0  0  0  0  0  0  0  0  0
    4.8804   -1.3153   25.3287 H   0  0  0  0  0  0  0  0  0  0  0  0
    5.1983   -3.1050   29.0151 H   0  0  0  0  0  0  0  0  0  0  0  0
    4.5804   -1.9824   28.0290 H   0  0  0  0  0  0  0  0  0  0  0  0
  1  2  1  0
  2  3  2  0
  2  4  2  0
  2  5  1  0
  5  6  2  0
  6  7  1  0
  7  8  2  0
  8  9  1  0
  9 10  1  0
 10 11  1  0
 11 12  1  0
 12 13  1  0
 13 14  1  0
 14 15  1  0
 15 16  2  0
 16 17  1  0
 17 18  2  0
 18 19  1  0
 19 20  2  0
 20 21  1  0
 18 22  1  0
 17 23  1  0
 16 24  1  0
 14 25  1  0
 14 26  1  0
 13 27  1  0
 12 28  1  0
 12 29  1  0
 11 30  1  0
 11 31  1  0
 10 32  1  0
 10 33  1  0
  8 34  1  0
 34 35  2  0
 35 36  1  0
 34 37  1  0
  7 38  1  0
  6 39  1  0
  1 40  1  0
  1 41  1  0
 35  5  1  0
 13  9  1  0
 20 15  1  0
M  END
>  <cnnaffinity>  (1) 
-5.36846

>  <filename>  (1) 
NS(=O)(=O)c1ccc(N2CCCC2Cc2cccnc2)cc1

$$$$
