
     RDKit          3D

 24 25  0  0  0  0  0  0  0  0999 V2000
    5.0723    1.9164   17.0172 H   0  0  0  0  0  0  0  0  0  0  0  0
    5.5399    1.3210   17.7999 C   0  0  0  0  0  0  0  0  0  0  0  0
    6.6837    0.7005   17.4697 N   0  0  0  0  0  0  0  0  0  0  0  0
    7.2924   -0.0416   18.4057 C   0  0  0  0  0  0  0  0  0  0  0  0
    8.2197   -0.5415   18.1240 H   0  0  0  0  0  0  0  0  0  0  0  0
    6.7792   -0.1961   19.7072 C   0  0  0  0  0  0  0  0  0  0  0  0
    7.4625   -0.9395   20.7296 N   0  0  0  0  0  0  0  0  0  0  0  0
    8.6302   -0.5055   21.3483 C   0  0  0  0  0  0  0  0  0  0  0  0
    9.1690    0.3435   20.9470 H   0  0  0  0  0  0  0  0  0  0  0  0
    8.8678   -1.2996   22.4118 C   0  0  0  0  0  0  0  0  0  0  0  0
   10.4256   -1.3316   23.2986 S   0  0  0  0  0  0  0  0  0  0  0  0
   11.1691   -0.1161   23.0394 O   0  0  0  0  0  0  0  0  0  0  0  0
   10.2184   -1.9031   24.6102 O   0  0  0  0  0  0  0  0  0  0  0  0
   11.2725   -2.4720   22.4752 N   0  0  0  0  0  0  0  0  0  0  0  0
   12.1876   -2.0395   22.5006 H   0  0  0  0  0  0  0  0  0  0  0  0
   11.2113   -3.2490   23.1181 H   0  0  0  0  0  0  0  0  0  0  0  0
    7.7574   -2.1764   22.4786 N   0  0  0  0  0  0  0  0  0  0  0  0
    7.4955   -2.8761   23.1642 H   0  0  0  0  0  0  0  0  0  0  0  0
    6.8944   -1.9761   21.4473 C   0  0  0  0  0  0  0  0  0  0  0  0
    5.5224   -2.8690   21.1860 S   0  0  0  0  0  0  0  0  0  0  0  0
    5.5761    0.4314   20.0378 C   0  0  0  0  0  0  0  0  0  0  0  0
    5.1577    0.3046   21.0386 H   0  0  0  0  0  0  0  0  0  0  0  0
    4.9557    1.2205   19.0664 C   0  0  0  0  0  0  0  0  0  0  0  0
    4.0384    1.7528   19.2783 H   0  0  0  0  0  0  0  0  0  0  0  0
  1  2  1  0
  2  3  2  0
  3  4  1  0
  4  5  1  0
  4  6  2  0
  6  7  1  0
  7  8  1  0
  8  9  1  0
  8 10  2  0
 10 11  1  0
 11 12  2  0
 11 13  2  0
 11 14  1  0
 14 15  1  0
 14 16  1  0
 10 17  1  0
 17 18  1  0
 17 19  1  0
 19 20  2  0
  6 21  1  0
 21 22  1  0
 21 23  2  0
 23 24  1  0
 23  2  1  0
 19  7  1  0
M  END
>  <cnnaffinity>  (1) 
-4.82401

>  <filename>  (1) 
NS(=O)(=O)c1cn(-c2cccnc2)c(=S)[nH]1

$$$$
