
     RDKit          3D

 27 28  0  0  0  0  0  0  0  0999 V2000
    5.0440    1.7056   17.0705 H   0  0  0  0  0  0  0  0  0  0  0  0
    5.4752    1.2274   17.9498 C   0  0  0  0  0  0  0  0  0  0  0  0
    6.6375    0.5847   17.7620 N   0  0  0  0  0  0  0  0  0  0  0  0
    7.2089    0.0146   18.8148 C   0  0  0  0  0  0  0  0  0  0  0  0
    8.1638   -0.4757   18.6297 H   0  0  0  0  0  0  0  0  0  0  0  0
    6.6283    0.0632   20.0748 C   0  0  0  0  0  0  0  0  0  0  0  0
    7.5503   -0.8782   21.1758 S   0  0  0  0  0  0  0  0  0  0  0  0
    8.9457   -0.5370   21.0036 O   0  0  0  0  0  0  0  0  0  0  0  0
    7.1183   -2.2574   21.1074 O   0  0  0  0  0  0  0  0  0  0  0  0
    7.0186   -0.2350   22.5615 O   0  0  0  0  0  0  0  0  0  0  0  0
    7.5047   -0.7211   23.7869 C   0  0  0  0  0  0  0  0  0  0  0  0
    6.9612   -0.0884   24.9068 C   0  0  0  0  0  0  0  0  0  0  0  0
    6.2176    0.6855   24.7513 H   0  0  0  0  0  0  0  0  0  0  0  0
    7.3720   -0.4794   26.1896 C   0  0  0  0  0  0  0  0  0  0  0  0
    6.9595    0.0006   27.0759 H   0  0  0  0  0  0  0  0  0  0  0  0
    8.2974   -1.5155   26.3518 C   0  0  0  0  0  0  0  0  0  0  0  0
    8.6332   -1.8346   27.3351 H   0  0  0  0  0  0  0  0  0  0  0  0
    8.7949   -2.1588   25.2115 C   0  0  0  0  0  0  0  0  0  0  0  0
    9.6827   -3.3441   25.3640 N   0  0  0  0  0  4  0  0  0  0  0  0
   10.3474   -3.6969   24.4047 O   0  0  0  0  0  0  0  0  0  0  0  0
    9.6936   -3.9061   26.4468 O   0  0  0  0  0  1  0  0  0  0  0  0
    8.4362   -1.7533   23.9207 C   0  0  0  0  0  0  0  0  0  0  0  0
    8.8842   -2.2412   23.0608 H   0  0  0  0  0  0  0  0  0  0  0  0
    5.3963    0.6880   20.2988 C   0  0  0  0  0  0  0  0  0  0  0  0
    4.9096    0.7139   21.2787 H   0  0  0  0  0  0  0  0  0  0  0  0
    4.8182    1.2918   19.1838 C   0  0  0  0  0  0  0  0  0  0  0  0
    3.8766    1.8230   19.2609 H   0  0  0  0  0  0  0  0  0  0  0  0
  1  2  1  0
  2  3  2  0
  3  4  1  0
  4  5  1  0
  4  6  2  0
  6  7  1  0
  7  8  2  0
  7  9  2  0
  7 10  1  0
 10 11  1  0
 11 12  2  0
 12 13  1  0
 12 14  1  0
 14 15  1  0
 14 16  2  0
 16 17  1  0
 16 18  1  0
 18 19  1  0
 19 20  2  0
 19 21  1  0
 18 22  2  0
 22 23  1  0
  6 24  1  0
 24 25  1  0
 24 26  2  0
 26 27  1  0
 26  2  1  0
 22 11  1  0
M  CHG  2  19   1  21  -1
M  END
>  <cnnaffinity>  (1) 
-4.55023

>  <filename>  (1) 
O=[N+]([O-])c1cccc(OS(=O)(=O)c2cccnc2)c1

$$$$
