
     RDKit          3D

 30 32  0  0  0  0  0  0  0  0999 V2000
    8.4090   -2.0078   19.8906 H   0  0  0  0  0  0  0  0  0  0  0  0
    8.1981   -1.6724   20.8783 C   0  0  0  0  0  0  0  0  0  0  0  0
    8.7527   -2.3474   21.8786 N   0  0  0  0  0  0  0  0  0  0  0  0
    8.5507   -1.8877   23.1155 N   0  0  0  0  0  0  0  0  0  0  0  0
    7.8231   -0.7745   23.3104 C   0  0  0  0  0  0  0  0  0  0  0  0
    7.7260   -0.2808   24.6995 C   0  0  0  0  0  0  0  0  0  0  0  0
    8.4020   -0.9258   25.7587 C   0  0  0  0  0  0  0  0  0  0  0  0
    9.0052   -1.8044   25.5491 H   0  0  0  0  0  0  0  0  0  0  0  0
    8.2875   -0.4310   27.0589 C   0  0  0  0  0  0  0  0  0  0  0  0
    8.8079   -0.9164   27.8844 H   0  0  0  0  0  0  0  0  0  0  0  0
    7.5038    0.6999   27.3027 C   0  0  0  0  0  0  0  0  0  0  0  0
    7.3924    1.1107   28.2955 H   0  0  0  0  0  0  0  0  0  0  0  0
    6.8445    1.3287   26.2423 C   0  0  0  0  0  0  0  0  0  0  0  0
    6.0129    2.5296   26.4908 N   0  0  0  0  0  4  0  0  0  0  0  0
    5.4558    3.0424   25.5320 O   0  0  0  0  0  0  0  0  0  0  0  0
    5.9257    2.9450   27.6339 O   0  0  0  0  0  1  0  0  0  0  0  0
    6.9498    0.8544   24.9412 C   0  0  0  0  0  0  0  0  0  0  0  0
    6.4363    1.3594   24.1277 H   0  0  0  0  0  0  0  0  0  0  0  0
    7.1818   -0.0910   22.3308 N   0  0  0  0  0  0  0  0  0  0  0  0
    7.3586   -0.5536   21.0958 C   0  0  0  0  0  0  0  0  0  0  0  0
    6.6393    0.0909   19.9767 C   0  0  0  0  0  0  0  0  0  0  0  0
    7.1694    0.0854   18.6761 C   0  0  0  0  0  0  0  0  0  0  0  0
    8.1217   -0.3980   18.4469 H   0  0  0  0  0  0  0  0  0  0  0  0
    6.5744    0.6582   17.6309 N   0  0  0  0  0  0  0  0  0  0  0  0
    5.4052    1.2798   17.8488 C   0  0  0  0  0  0  0  0  0  0  0  0
    4.9701    1.7766   16.9866 H   0  0  0  0  0  0  0  0  0  0  0  0
    4.7718    1.3177   19.0942 C   0  0  0  0  0  0  0  0  0  0  0  0
    3.8311    1.8480   19.2044 H   0  0  0  0  0  0  0  0  0  0  0  0
    5.3954    0.7103   20.1794 C   0  0  0  0  0  0  0  0  0  0  0  0
    4.9456    0.7062   21.1750 H   0  0  0  0  0  0  0  0  0  0  0  0
  1  2  1  0
  2  3  2  0
  3  4  1  0
  4  5  2  0
  5  6  1  0
  6  7  2  0
  7  8  1  0
  7  9  1  0
  9 10  1  0
  9 11  2  0
 11 12  1  0
 11 13  1  0
 13 14  1  0
 14 15  2  0
 14 16  1  0
 13 17  2  0
 17 18  1  0
  5 19  1  0
 19 20  2  0
 20 21  1  0
 21 22  2  0
 22 23  1  0
 22 24  1  0
 24 25  2  0
 25 26  1  0
 25 27  1  0
 27 28  1  0
 27 29  2  0
 29 30  1  0
 20  2  1  0
 29 21  1  0
 17  6  1  0
M  CHG  2  14   1  16  -1
M  END
>  <cnnaffinity>  (1) 
-5.16406

>  <filename>  (1) 
O=[N+]([O-])c1cccc(-c2nncc(-c3cccnc3)n2)c1

$$$$
