
     RDKit          3D

 30 32  0  0  0  0  0  0  0  0999 V2000
    4.9152    1.7861   16.9884 H   0  0  0  0  0  0  0  0  0  0  0  0
    5.3968    1.2976   17.8289 C   0  0  0  0  0  0  0  0  0  0  0  0
    6.5590    0.6814   17.5616 N   0  0  0  0  0  0  0  0  0  0  0  0
    7.1702    0.0754   18.5864 C   0  0  0  0  0  0  0  0  0  0  0  0
    8.1080   -0.4244   18.3574 H   0  0  0  0  0  0  0  0  0  0  0  0
    6.6639    0.0216   19.8968 C   0  0  0  0  0  0  0  0  0  0  0  0
    7.3905   -0.6967   20.9613 C   0  0  0  0  0  0  0  0  0  0  0  0
    8.7449   -0.7775   21.0718 C   0  0  0  0  0  0  0  0  0  0  0  0
    9.4625   -0.3089   20.4164 H   0  0  0  0  0  0  0  0  0  0  0  0
    9.2350   -1.6758   22.4484 S   0  0  0  0  0  0  0  0  0  0  0  0
    7.5851   -1.9929   22.9163 C   0  0  0  0  0  0  0  0  0  0  0  0
    7.2379   -2.7941   24.1126 C   0  0  0  0  0  0  0  0  0  0  0  0
    5.9271   -2.8053   24.6289 C   0  0  0  0  0  0  0  0  0  0  0  0
    5.1616   -2.2148   24.1698 H   0  0  0  0  0  0  0  0  0  0  0  0
    5.5633   -3.5473   25.7438 C   0  0  0  0  0  0  0  0  0  0  0  0
    4.5415   -3.5285   26.1128 H   0  0  0  0  0  0  0  0  0  0  0  0
    6.5437   -4.3141   26.3761 C   0  0  0  0  0  0  0  0  0  0  0  0
    6.1859   -5.1159   27.5696 N   0  0  0  0  0  4  0  0  0  0  0  0
    5.0323   -5.0868   27.9654 O   0  0  0  0  0  0  0  0  0  0  0  0
    7.0757   -5.7644   28.0931 O   0  0  0  0  0  1  0  0  0  0  0  0
    7.8633   -4.3317   25.8968 C   0  0  0  0  0  0  0  0  0  0  0  0
    8.6123   -4.9307   26.4023 H   0  0  0  0  0  0  0  0  0  0  0  0
    8.1995   -3.5794   24.7781 C   0  0  0  0  0  0  0  0  0  0  0  0
    9.2184   -3.5989   24.4111 H   0  0  0  0  0  0  0  0  0  0  0  0
    6.7415   -1.4080   22.0156 C   0  0  0  0  0  0  0  0  0  0  0  0
    5.6649   -1.5044   22.0173 H   0  0  0  0  0  0  0  0  0  0  0  0
    5.4348    0.6560   20.1472 C   0  0  0  0  0  0  0  0  0  0  0  0
    5.0180    0.6380   21.1585 H   0  0  0  0  0  0  0  0  0  0  0  0
    4.8011    1.3164   19.0969 C   0  0  0  0  0  0  0  0  0  0  0  0
    3.8692    1.8462   19.2536 H   0  0  0  0  0  0  0  0  0  0  0  0
  1  2  1  0
  2  3  2  0
  3  4  1  0
  4  5  1  0
  4  6  2  0
  6  7  1  0
  7  8  2  0
  8  9  1  0
  8 10  1  0
 10 11  1  0
 11 12  1  0
 12 13  2  0
 13 14  1  0
 13 15  1  0
 15 16  1  0
 15 17  2  0
 17 18  1  0
 18 19  2  0
 18 20  1  0
 17 21  1  0
 21 22  1  0
 21 23  2  0
 23 24  1  0
 11 25  2  0
 25 26  1  0
  6 27  1  0
 27 28  1  0
 27 29  2  0
 29 30  1  0
 29  2  1  0
 25  7  1  0
 23 12  1  0
M  CHG  2  18   1  20  -1
M  END
>  <cnnaffinity>  (1) 
-5.03863

>  <filename>  (1) 
O=[N+]([O-])c1ccc(-c2cc(-c3cccnc3)cs2)cc1

$$$$
