
     RDKit          3D

 30 32  0  0  0  0  0  0  0  0999 V2000
    4.9137    1.7992   16.9797 H   0  0  0  0  0  0  0  0  0  0  0  0
    5.3909    1.3030   17.8198 C   0  0  0  0  0  0  0  0  0  0  0  0
    6.5562    0.6887   17.5546 N   0  0  0  0  0  0  0  0  0  0  0  0
    7.1589    0.0616   18.5694 C   0  0  0  0  0  0  0  0  0  0  0  0
    8.1167   -0.4056   18.3416 H   0  0  0  0  0  0  0  0  0  0  0  0
    6.6452    0.0011   19.8795 C   0  0  0  0  0  0  0  0  0  0  0  0
    7.3554   -0.6829   20.9649 C   0  0  0  0  0  0  0  0  0  0  0  0
    7.5327   -0.3437   22.3030 C   0  0  0  0  0  0  0  0  0  0  0  0
    7.1771    0.9210   22.9621 C   0  0  0  0  0  0  0  0  0  0  0  0
    7.3315    2.1544   22.3019 C   0  0  0  0  0  0  0  0  0  0  0  0
    7.7004    2.1682   21.2801 H   0  0  0  0  0  0  0  0  0  0  0  0
    6.9954    3.3472   22.9472 C   0  0  0  0  0  0  0  0  0  0  0  0
    7.1046    4.2956   22.4301 H   0  0  0  0  0  0  0  0  0  0  0  0
    6.5125    3.3387   24.2574 C   0  0  0  0  0  0  0  0  0  0  0  0
    6.2498    4.2566   24.7740 H   0  0  0  0  0  0  0  0  0  0  0  0
    6.3721    2.1095   24.9117 C   0  0  0  0  0  0  0  0  0  0  0  0
    5.8749    2.0772   26.3141 N   0  0  0  0  0  4  0  0  0  0  0  0
    5.5959    3.1328   26.8531 O   0  0  0  0  0  0  0  0  0  0  0  0
    5.7739    0.9820   26.8493 O   0  0  0  0  0  1  0  0  0  0  0  0
    6.6974    0.9087   24.2778 C   0  0  0  0  0  0  0  0  0  0  0  0
    6.5785   -0.0389   24.7971 H   0  0  0  0  0  0  0  0  0  0  0  0
    8.2000   -1.4596   22.8592 C   0  0  0  0  0  0  0  0  0  0  0  0
    8.5275   -1.5791   23.8844 H   0  0  0  0  0  0  0  0  0  0  0  0
    8.4452   -2.3973   21.9583 N   0  0  0  0  0  0  0  0  0  0  0  0
    7.9377   -1.8960   20.8217 N   0  0  0  0  0  0  0  0  0  0  0  0
    7.9453   -2.4508   19.9790 H   0  0  0  0  0  0  0  0  0  0  0  0
    5.4224    0.6445   20.1324 C   0  0  0  0  0  0  0  0  0  0  0  0
    5.0142    0.6374   21.1452 H   0  0  0  0  0  0  0  0  0  0  0  0
    4.7934    1.3126   19.0850 C   0  0  0  0  0  0  0  0  0  0  0  0
    3.8671    1.8476   19.2448 H   0  0  0  0  0  0  0  0  0  0  0  0
  1  2  1  0
  2  3  2  0
  3  4  1  0
  4  5  1  0
  4  6  2  0
  6  7  1  0
  7  8  2  0
  8  9  1  0
  9 10  2  0
 10 11  1  0
 10 12  1  0
 12 13  1  0
 12 14  2  0
 14 15  1  0
 14 16  1  0
 16 17  1  0
 17 18  2  0
 17 19  1  0
 16 20  2  0
 20 21  1  0
  8 22  1  0
 22 23  1  0
 22 24  2  0
 24 25  1  0
 25 26  1  0
  6 27  1  0
 27 28  1  0
 27 29  2  0
 29 30  1  0
 29  2  1  0
 25  7  1  0
 20  9  1  0
M  CHG  2  17   1  19  -1
M  END
>  <cnnaffinity>  (1) 
-5.15452

>  <filename>  (1) 
O=[N+]([O-])c1cccc(-c2cn[nH]c2-c2cccnc2)c1

$$$$
