
     RDKit          3D

 30 32  0  0  0  0  0  0  0  0999 V2000
    4.9680    1.8100   16.9936 H   0  0  0  0  0  0  0  0  0  0  0  0
    5.4100    1.2896   17.8377 C   0  0  0  0  0  0  0  0  0  0  0  0
    6.5811    0.6777   17.6053 N   0  0  0  0  0  0  0  0  0  0  0  0
    7.1905    0.0777   18.6340 C   0  0  0  0  0  0  0  0  0  0  0  0
    8.1491   -0.3909   18.4039 H   0  0  0  0  0  0  0  0  0  0  0  0
    6.6545    0.0404   19.9391 C   0  0  0  0  0  0  0  0  0  0  0  0
    7.3240   -0.6643   20.9950 N   0  0  0  0  0  0  0  0  0  0  0  0
    7.6647   -1.9944   20.9601 C   0  0  0  0  0  0  0  0  0  0  0  0
    7.3536   -2.6071   20.1339 H   0  0  0  0  0  0  0  0  0  0  0  0
    8.2369   -2.4140   22.0541 N   0  0  0  0  0  0  0  0  0  0  0  0
    8.2202   -1.3293   22.8866 C   0  0  0  0  0  0  0  0  0  0  0  0
    8.5718   -1.4013   23.9055 H   0  0  0  0  0  0  0  0  0  0  0  0
    7.6537   -0.2316   22.2836 C   0  0  0  0  0  0  0  0  0  0  0  0
    7.3396    1.0944   22.8415 C   0  0  0  0  0  0  0  0  0  0  0  0
    7.5591    2.2758   22.1086 C   0  0  0  0  0  0  0  0  0  0  0  0
    7.9218    2.1685   21.0909 H   0  0  0  0  0  0  0  0  0  0  0  0
    7.2795    3.5263   22.6690 C   0  0  0  0  0  0  0  0  0  0  0  0
    7.4685    4.4283   22.0913 H   0  0  0  0  0  0  0  0  0  0  0  0
    6.7642    3.6166   23.9676 C   0  0  0  0  0  0  0  0  0  0  0  0
    6.5487    4.5767   24.4266 H   0  0  0  0  0  0  0  0  0  0  0  0
    6.5304    2.4368   24.6898 C   0  0  0  0  0  0  0  0  0  0  0  0
    5.9957    2.5013   26.0798 N   0  0  0  0  0  4  0  0  0  0  0  0
    5.7851    3.6072   26.5478 O   0  0  0  0  0  0  0  0  0  0  0  0
    5.7998    1.4542   26.6778 O   0  0  0  0  0  1  0  0  0  0  0  0
    6.8082    1.1869   24.1396 C   0  0  0  0  0  0  0  0  0  0  0  0
    6.5795    0.2946   24.7136 H   0  0  0  0  0  0  0  0  0  0  0  0
    5.4133    0.6606   20.1561 C   0  0  0  0  0  0  0  0  0  0  0  0
    4.9759    0.6554   21.1551 H   0  0  0  0  0  0  0  0  0  0  0  0
    4.7837    1.3007   19.0868 C   0  0  0  0  0  0  0  0  0  0  0  0
    3.8429    1.8281   19.2172 H   0  0  0  0  0  0  0  0  0  0  0  0
  1  2  1  0
  2  3  2  0
  3  4  1  0
  4  5  1  0
  4  6  2  0
  6  7  1  0
  7  8  1  0
  8  9  1  0
  8 10  2  0
 10 11  1  0
 11 12  1  0
 11 13  2  0
 13 14  1  0
 14 15  2  0
 15 16  1  0
 15 17  1  0
 17 18  1  0
 17 19  2  0
 19 20  1  0
 19 21  1  0
 21 22  1  0
 22 23  2  0
 22 24  1  0
 21 25  2  0
 25 26  1  0
  6 27  1  0
 27 28  1  0
 27 29  2  0
 29 30  1  0
 29  2  1  0
 13  7  1  0
 25 14  1  0
M  CHG  2  22   1  24  -1
M  END
>  <cnnaffinity>  (1) 
-5.08628

>  <filename>  (1) 
O=[N+]([O-])c1cccc(-c2cncn2-c2cccnc2)c1

$$$$
