
     RDKit          3D

 29 31  0  0  0  0  0  0  0  0999 V2000
    5.0072    1.7779   16.9953 H   0  0  0  0  0  0  0  0  0  0  0  0
    5.4243    1.2483   17.8497 C   0  0  0  0  0  0  0  0  0  0  0  0
    6.5849    0.6064   17.6334 N   0  0  0  0  0  0  0  0  0  0  0  0
    7.1691    0.0138   18.6804 C   0  0  0  0  0  0  0  0  0  0  0  0
    8.1306   -0.4634   18.4882 H   0  0  0  0  0  0  0  0  0  0  0  0
    6.5939    0.0128   19.9551 C   0  0  0  0  0  0  0  0  0  0  0  0
    7.5490   -0.7638   21.2498 S   0  0  0  0  0  4  0  0  0  0  0  0
    8.9796   -0.5542   20.8715 O   0  0  0  0  0  0  0  0  0  0  0  0
    7.3953   -2.3434   20.6519 N   0  0  0  0  0  0  0  0  0  0  0  0
    8.3382   -2.4905   20.3086 H   0  0  0  0  0  0  0  0  0  0  0  0
    6.8689   -3.4384   21.3643 C   0  0  0  0  0  0  0  0  0  0  0  0
    7.2121   -4.7335   20.8974 C   0  0  0  0  0  0  0  0  0  0  0  0
    7.9683   -4.8583   20.1429 H   0  0  0  0  0  0  0  0  0  0  0  0
    6.6411   -5.8654   21.4414 C   0  0  0  0  0  0  0  0  0  0  0  0
    6.9490   -6.8315   21.0664 H   0  0  0  0  0  0  0  0  0  0  0  0
    5.7245   -5.7365   22.5051 C   0  0  0  0  0  0  0  0  0  0  0  0
    4.9659   -6.6423   23.3183 C   0  0  0  0  0  0  0  0  0  0  0  0
    4.9055   -7.7110   23.1930 H   0  0  0  0  0  0  0  0  0  0  0  0
    4.3398   -5.9035   24.2771 C   0  0  0  0  0  0  0  0  0  0  0  0
    3.7021   -6.2362   25.0889 H   0  0  0  0  0  0  0  0  0  0  0  0
    4.6492   -4.5716   24.0908 N   0  0  0  0  0  0  0  0  0  0  0  0
    4.3783   -3.8195   24.6944 H   0  0  0  0  0  0  0  0  0  0  0  0
    5.4827   -4.4368   23.0130 C   0  0  0  0  0  0  0  0  0  0  0  0
    6.0388   -3.2758   22.4628 C   0  0  0  0  0  0  0  0  0  0  0  0
    5.8930   -2.2998   22.9067 H   0  0  0  0  0  0  0  0  0  0  0  0
    5.3759    0.6509   20.1857 C   0  0  0  0  0  0  0  0  0  0  0  0
    4.9094    0.6484   21.1739 H   0  0  0  0  0  0  0  0  0  0  0  0
    4.7826    1.2897   19.0942 C   0  0  0  0  0  0  0  0  0  0  0  0
    3.8606    1.8498   19.2128 H   0  0  0  0  0  0  0  0  0  0  0  0
  1  2  1  0
  2  3  2  0
  3  4  1  0
  4  5  1  0
  4  6  2  0
  6  7  1  0
  7  8  2  0
  7  9  1  6
  9 10  1  0
  9 11  1  0
 11 12  2  0
 12 13  1  0
 12 14  1  0
 14 15  1  0
 14 16  2  0
 16 17  1  0
 17 18  1  0
 17 19  2  0
 19 20  1  0
 19 21  1  0
 21 22  1  0
 21 23  1  0
 23 24  2  0
 24 25  1  0
  6 26  1  0
 26 27  1  0
 26 28  2  0
 28 29  1  0
 28  2  1  0
 24 11  1  0
 23 16  1  0
M  END
>  <cnnaffinity>  (1) 
-4.28202

>  <filename>  (1) 
O=[S@](Nc1ccc2cc[nH]c2c1)c1cccnc1

$$$$
