
     RDKit          3D

 30 31  0  0  0  0  0  0  0  0999 V2000
    4.9952    1.7908   16.9935 H   0  0  0  0  0  0  0  0  0  0  0  0
    5.4532    1.3038   17.8541 C   0  0  0  0  0  0  0  0  0  0  0  0
    6.6285    0.6877   17.6367 N   0  0  0  0  0  0  0  0  0  0  0  0
    7.1984    0.0786   18.6809 C   0  0  0  0  0  0  0  0  0  0  0  0
    8.1471   -0.4287   18.4968 H   0  0  0  0  0  0  0  0  0  0  0  0
    6.6531    0.0593   19.9676 C   0  0  0  0  0  0  0  0  0  0  0  0
    7.5502   -0.9581   21.1595 S   0  0  0  0  0  4  0  0  0  0  0  0
    6.6295   -2.0950   21.5013 O   0  0  0  0  0  0  0  0  0  0  0  0
    7.6852    0.2366   22.5607 C   0  0  0  0  0  0  0  0  0  0  0  0
    6.6759    0.5260   22.8752 H   0  0  0  0  0  0  0  0  0  0  0  0
    8.1731   -0.3320   23.3628 H   0  0  0  0  0  0  0  0  0  0  0  0
    8.4624    1.2797   22.0724 O   0  0  0  0  0  0  0  0  0  0  0  0
    8.9906    2.2518   22.9806 C   0  0  0  0  0  0  0  0  0  0  0  0
    8.2509    2.5244   23.7510 H   0  0  0  0  0  0  0  0  0  0  0  0
   10.3479    1.8720   23.5973 C   0  0  0  0  0  0  0  0  0  0  0  0
   10.2673    1.3101   24.5307 H   0  0  0  0  0  0  0  0  0  0  0  0
   10.8581    1.2377   22.8658 H   0  0  0  0  0  0  0  0  0  0  0  0
   11.1406    3.1993   23.7453 C   0  0  0  0  0  0  0  0  0  0  0  0
   12.1566    3.0780   23.3545 H   0  0  0  0  0  0  0  0  0  0  0  0
   11.2417    3.5203   24.7752 H   0  0  0  0  0  0  0  0  0  0  0  0
   10.3501    4.2716   22.9624 C   0  0  0  0  0  0  0  0  0  0  0  0
   11.0052    4.8868   22.3365 H   0  0  0  0  0  0  0  0  0  0  0  0
    9.8231    4.9552   23.6430 H   0  0  0  0  0  0  0  0  0  0  0  0
    9.3736    3.4425   22.1293 C   0  0  0  0  0  0  0  0  0  0  0  0
    9.9306    2.9885   21.2981 H   0  0  0  0  0  0  0  0  0  0  0  0
    8.5136    3.9894   21.7303 H   0  0  0  0  0  0  0  0  0  0  0  0
    5.4216    0.6896   20.1900 C   0  0  0  0  0  0  0  0  0  0  0  0
    4.9402    0.6907   21.1684 H   0  0  0  0  0  0  0  0  0  0  0  0
    4.8189    1.3241   19.1008 C   0  0  0  0  0  0  0  0  0  0  0  0
    3.8763    1.8457   19.2107 H   0  0  0  0  0  0  0  0  0  0  0  0
  1  2  1  0
  2  3  2  0
  3  4  1  0
  4  5  1  0
  4  6  2  0
  6  7  1  0
  7  8  2  0
  7  9  1  1
  9 10  1  0
  9 11  1  0
  9 12  1  0
 12 13  1  0
 13 14  1  0
 13 15  1  0
 15 16  1  0
 15 17  1  0
 15 18  1  0
 18 19  1  0
 18 20  1  0
 18 21  1  0
 21 22  1  0
 21 23  1  0
 21 24  1  0
 24 25  1  0
 24 26  1  0
  6 27  1  0
 27 28  1  0
 27 29  2  0
 29 30  1  0
 29  2  1  0
 24 13  1  0
M  END
>  <cnnaffinity>  (1) 
-4.53515

>  <filename>  (1) 
O=[S@](COC1CCCC1)c1cccnc1

$$$$
