
     RDKit          3D

 28 29  0  0  0  0  0  0  0  0999 V2000
    5.6883    3.1323   22.4990 H   0  0  0  0  0  0  0  0  0  0  0  0
    4.9920    3.0883   23.1672 O   0  0  0  0  0  0  0  0  0  0  0  0
    5.2301    1.9866   23.9265 C   0  0  0  0  0  0  0  0  0  0  0  0
    4.3213    1.7731   24.9581 C   0  0  0  0  0  0  0  0  0  0  0  0
    3.5200    2.4859   25.0903 H   0  0  0  0  0  0  0  0  0  0  0  0
    4.4664    0.6705   25.7944 C   0  0  0  0  0  0  0  0  0  0  0  0
    3.3220    0.4245   27.0694 Cl  0  0  0  0  0  0  0  0  0  0  0  0
    5.5123   -0.2280   25.6194 C   0  0  0  0  0  0  0  0  0  0  0  0
    5.5910   -1.0841   26.2837 H   0  0  0  0  0  0  0  0  0  0  0  0
    6.4351   -0.0183   24.5876 C   0  0  0  0  0  0  0  0  0  0  0  0
    7.2179   -0.7561   24.4432 H   0  0  0  0  0  0  0  0  0  0  0  0
    6.3126    1.0869   23.7361 C   0  0  0  0  0  0  0  0  0  0  0  0
    7.1902    1.4105   22.7181 O   0  0  0  0  0  0  0  0  0  0  0  0
    8.1521    0.4929   22.2468 C   0  0  0  0  0  0  0  0  0  0  0  0
    8.8581    1.0593   21.6440 H   0  0  0  0  0  0  0  0  0  0  0  0
    8.6958    0.0059   23.0629 H   0  0  0  0  0  0  0  0  0  0  0  0
    7.5434   -0.8850   21.1786 S   0  0  0  0  0  4  0  0  0  0  0  0
    6.4867   -1.6298   21.9436 O   0  0  0  0  0  0  0  0  0  0  0  0
    6.6834    0.0624   19.9237 C   0  0  0  0  0  0  0  0  0  0  0  0
    7.1886    0.0707   18.6176 C   0  0  0  0  0  0  0  0  0  0  0  0
    8.1232   -0.4383   18.3873 H   0  0  0  0  0  0  0  0  0  0  0  0
    6.5693    0.6685   17.5940 N   0  0  0  0  0  0  0  0  0  0  0  0
    5.4067    1.2887   17.8480 C   0  0  0  0  0  0  0  0  0  0  0  0
    4.9259    1.7777   17.0007 H   0  0  0  0  0  0  0  0  0  0  0  0
    4.8121    1.3086   19.1156 C   0  0  0  0  0  0  0  0  0  0  0  0
    3.8761    1.8350   19.2567 H   0  0  0  0  0  0  0  0  0  0  0  0
    5.4482    0.6627   20.1763 C   0  0  0  0  0  0  0  0  0  0  0  0
    4.9940    0.6145   21.1680 H   0  0  0  0  0  0  0  0  0  0  0  0
  1  2  1  0
  2  3  1  0
  3  4  2  0
  4  5  1  0
  4  6  1  0
  6  7  1  0
  6  8  2  0
  8  9  1  0
  8 10  1  0
 10 11  1  0
 10 12  2  0
 12 13  1  0
 13 14  1  0
 14 15  1  0
 14 16  1  0
 17 14  1  1
 17 18  2  0
 17 19  1  0
 19 20  2  0
 20 21  1  0
 20 22  1  0
 22 23  2  0
 23 24  1  0
 23 25  1  0
 25 26  1  0
 25 27  2  0
 27 28  1  0
 12  3  1  0
 27 19  1  0
M  END
>  <cnnaffinity>  (1) 
-4.78726

>  <filename>  (1) 
O=[S@](COc1ccc(Cl)cc1O)c1cccnc1

$$$$
