
     RDKit          3D

 31 33  0  0  0  0  0  0  0  0999 V2000
    5.0496    1.8705   16.9002 H   0  0  0  0  0  0  0  0  0  0  0  0
    5.4582    1.3388   17.7563 C   0  0  0  0  0  0  0  0  0  0  0  0
    6.6373    0.7282   17.5601 N   0  0  0  0  0  0  0  0  0  0  0  0
    7.1828    0.0870   18.5982 C   0  0  0  0  0  0  0  0  0  0  0  0
    8.1574   -0.3729   18.4337 H   0  0  0  0  0  0  0  0  0  0  0  0
    6.5481    0.0033   19.8330 C   0  0  0  0  0  0  0  0  0  0  0  0
    7.3771   -0.8174   21.1727 S   0  0  0  0  0  4  0  0  0  0  0  0
    6.3404   -1.3731   22.0775 O   0  0  0  0  0  0  0  0  0  0  0  0
    7.7506    0.5735   22.0512 N   0  0  0  0  0  0  0  0  0  0  0  0
    7.1543    0.4732   22.8719 H   0  0  0  0  0  0  0  0  0  0  0  0
    9.0281    1.1713   22.2677 C   0  0  0  0  0  0  0  0  0  0  0  0
    9.0457    2.5423   22.3718 C   0  0  0  0  0  0  0  0  0  0  0  0
    8.0963    3.0601   22.2712 H   0  0  0  0  0  0  0  0  0  0  0  0
   10.2693    3.2458   22.5287 C   0  0  0  0  0  0  0  0  0  0  0  0
   10.2571    4.3348   22.5879 H   0  0  0  0  0  0  0  0  0  0  0  0
   11.4606    2.5578   22.5502 C   0  0  0  0  0  0  0  0  0  0  0  0
   12.4008    3.0846   22.6833 H   0  0  0  0  0  0  0  0  0  0  0  0
   11.4842    1.1342   22.4302 C   0  0  0  0  0  0  0  0  0  0  0  0
   12.7150    0.4127   22.3590 C   0  0  0  0  0  0  0  0  0  0  0  0
   13.6341    0.9969   22.3161 H   0  0  0  0  0  0  0  0  0  0  0  0
   12.7130   -0.9640   22.3255 C   0  0  0  0  0  0  0  0  0  0  0  0
   13.6297   -1.5367   22.2304 H   0  0  0  0  0  0  0  0  0  0  0  0
   11.4872   -1.6747   22.4302 C   0  0  0  0  0  0  0  0  0  0  0  0
   11.4998   -2.7564   22.4464 H   0  0  0  0  0  0  0  0  0  0  0  0
   10.2828   -1.0173   22.4820 C   0  0  0  0  0  0  0  0  0  0  0  0
    9.3695   -1.5931   22.6053 H   0  0  0  0  0  0  0  0  0  0  0  0
   10.2423    0.4111   22.3800 C   0  0  0  0  0  0  0  0  0  0  0  0
    5.3222    0.6291   20.0526 C   0  0  0  0  0  0  0  0  0  0  0  0
    4.8349    0.5915   21.0300 H   0  0  0  0  0  0  0  0  0  0  0  0
    4.7712    1.3202   18.9766 C   0  0  0  0  0  0  0  0  0  0  0  0
    3.8427    1.8686   19.0788 H   0  0  0  0  0  0  0  0  0  0  0  0
  1  2  1  0
  2  3  2  0
  3  4  1  0
  4  5  1  0
  4  6  2  0
  6  7  1  0
  7  8  2  0
  7  9  1  1
  9 10  1  0
  9 11  1  0
 11 12  2  0
 12 13  1  0
 12 14  1  0
 14 15  1  0
 14 16  2  0
 16 17  1  0
 16 18  1  0
 18 19  2  0
 19 20  1  0
 19 21  1  0
 21 22  1  0
 21 23  2  0
 23 24  1  0
 23 25  1  0
 25 26  1  0
 25 27  2  0
  6 28  1  0
 28 29  1  0
 28 30  2  0
 30 31  1  0
 30  2  1  0
 27 11  1  0
 27 18  1  0
M  END
>  <cnnaffinity>  (1) 
-4.89289

>  <filename>  (1) 
O=[S@](Nc1cccc2ccccc12)c1cccnc1

$$$$
