
     RDKit          3D

 26 28  0  0  0  0  0  0  0  0999 V2000
    5.2244    1.7503   17.0185 H   0  0  0  0  0  0  0  0  0  0  0  0
    5.5439    1.2484   17.9301 C   0  0  0  0  0  0  0  0  0  0  0  0
    6.5782    0.4025   17.8027 N   0  0  0  0  0  0  0  0  0  0  0  0
    6.9942   -0.2400   18.8977 C   0  0  0  0  0  0  0  0  0  0  0  0
    7.8048   -0.9571   18.7741 H   0  0  0  0  0  0  0  0  0  0  0  0
    6.4292   -0.0236   20.1631 C   0  0  0  0  0  0  0  0  0  0  0  0
    7.1133   -0.9480   21.5578 S   0  0  0  0  0  4  0  0  0  0  0  0
    7.5619   -2.2453   20.9374 O   0  0  0  0  0  0  0  0  0  0  0  0
    8.5557    0.1068   21.8373 C   0  0  0  0  0  0  0  0  0  0  0  0
    8.6737    0.6936   23.0637 O   0  0  0  0  0  0  0  0  0  0  0  0
    9.8269    1.4294   23.0219 C   0  0  0  0  0  0  0  0  0  0  0  0
   10.3368    2.2116   24.0607 C   0  0  0  0  0  0  0  0  0  0  0  0
    9.8794    2.1753   25.0450 H   0  0  0  0  0  0  0  0  0  0  0  0
   11.4467    3.0001   23.7586 C   0  0  0  0  0  0  0  0  0  0  0  0
   11.8350    3.6850   24.5095 H   0  0  0  0  0  0  0  0  0  0  0  0
   12.0633    2.9494   22.4860 C   0  0  0  0  0  0  0  0  0  0  0  0
   12.9364    3.5715   22.2954 H   0  0  0  0  0  0  0  0  0  0  0  0
   11.5885    2.1001   21.4872 C   0  0  0  0  0  0  0  0  0  0  0  0
   12.0814    2.0641   20.5168 H   0  0  0  0  0  0  0  0  0  0  0  0
   10.4354    1.3281   21.7590 C   0  0  0  0  0  0  0  0  0  0  0  0
    9.6024    0.3969   21.0307 C   0  0  0  0  0  0  0  0  0  0  0  0
    9.8012   -0.0804   20.0849 H   0  0  0  0  0  0  0  0  0  0  0  0
    5.3333    0.8289   20.2951 C   0  0  0  0  0  0  0  0  0  0  0  0
    4.8439    0.9755   21.2607 H   0  0  0  0  0  0  0  0  0  0  0  0
    4.8826    1.4763   19.1422 C   0  0  0  0  0  0  0  0  0  0  0  0
    4.0339    2.1541   19.1666 H   0  0  0  0  0  0  0  0  0  0  0  0
  1  2  1  0
  2  3  2  0
  3  4  1  0
  4  5  1  0
  4  6  2  0
  7  6  1  6
  7  8  2  0
  7  9  1  0
  9 10  1  0
 10 11  1  0
 11 12  2  0
 12 13  1  0
 12 14  1  0
 14 15  1  0
 14 16  2  0
 16 17  1  0
 16 18  1  0
 18 19  1  0
 18 20  2  0
 20 21  1  0
 21 22  1  0
  6 23  1  0
 23 24  1  0
 23 25  2  0
 25 26  1  0
 25  2  1  0
 21  9  2  0
 20 11  1  0
M  END
>  <cnnaffinity>  (1) 
-4.85404

>  <filename>  (1) 
O=[S@](c1cccnc1)c1cc2ccccc2o1

$$$$
