
     RDKit          3D

 27 28  0  0  0  0  0  0  0  0999 V2000
    6.4617    4.4686   20.8305 H   0  0  0  0  0  0  0  0  0  0  0  0
    6.7795    3.8328   21.6515 C   0  0  0  0  0  0  0  0  0  0  0  0
    7.3900    2.6971   21.3168 N   0  0  0  0  0  0  0  0  0  0  0  0
    7.7870    1.9200   22.3213 C   0  0  0  0  0  0  0  0  0  0  0  0
    8.7528    0.4197   21.8395 S   0  0  0  0  0  4  0  0  0  0  0  0
    9.7090    0.7194   20.7156 O   0  0  0  0  0  0  0  0  0  0  0  0
    7.3739   -0.5632   21.0600 C   0  0  0  0  0  0  0  0  0  0  0  0
    7.9425   -1.4270   20.6918 H   0  0  0  0  0  0  0  0  0  0  0  0
    6.7085   -0.9160   21.8580 H   0  0  0  0  0  0  0  0  0  0  0  0
    6.6070    0.0584   19.9227 C   0  0  0  0  0  0  0  0  0  0  0  0
    7.1408    0.0999   18.6180 C   0  0  0  0  0  0  0  0  0  0  0  0
    8.1027   -0.3746   18.4175 H   0  0  0  0  0  0  0  0  0  0  0  0
    6.5538    0.6940   17.5703 N   0  0  0  0  0  0  0  0  0  0  0  0
    5.3798    1.3020   17.7966 C   0  0  0  0  0  0  0  0  0  0  0  0
    4.9212    1.8117   16.9479 H   0  0  0  0  0  0  0  0  0  0  0  0
    4.7375    1.2821   19.0367 C   0  0  0  0  0  0  0  0  0  0  0  0
    3.7857    1.7799   19.1524 H   0  0  0  0  0  0  0  0  0  0  0  0
    5.3413    0.6232   20.1115 C   0  0  0  0  0  0  0  0  0  0  0  0
    4.8574    0.5939   21.0905 H   0  0  0  0  0  0  0  0  0  0  0  0
    7.5627    2.1301   23.6095 N   0  0  0  0  0  0  0  0  0  0  0  0
    6.9304    3.2763   23.9439 C   0  0  0  0  0  0  0  0  0  0  0  0
    6.6058    3.6157   25.4237 C   0  0  0  0  0  0  0  0  0  0  0  0
    7.2040    4.7765   25.7715 F   0  0  0  0  0  0  0  0  0  0  0  0
    5.2802    3.8164   25.5921 F   0  0  0  0  0  0  0  0  0  0  0  0
    6.9815    2.6783   26.2908 F   0  0  0  0  0  0  0  0  0  0  0  0
    6.5525    4.1986   22.9741 C   0  0  0  0  0  0  0  0  0  0  0  0
    6.1147    5.1519   23.2357 H   0  0  0  0  0  0  0  0  0  0  0  0
  1  2  1  0
  2  3  2  0
  3  4  1  0
  4  5  1  0
  5  6  2  0
  5  7  1  6
  7  8  1  0
  7  9  1  0
  7 10  1  0
 10 11  2  0
 11 12  1  0
 11 13  1  0
 13 14  2  0
 14 15  1  0
 14 16  1  0
 16 17  1  0
 16 18  2  0
 18 19  1  0
  4 20  2  0
 20 21  1  0
 21 22  1  0
 22 23  1  0
 22 24  1  0
 22 25  1  0
 21 26  2  0
 26 27  1  0
 26  2  1  0
 18 10  1  0
M  END
>  <cnnaffinity>  (1) 
-4.60056

>  <filename>  (1) 
O=[S@](Cc1cccnc1)c1nccc(C(F)(F)F)n1

$$$$
