
     RDKit          3D

 23 24  0  0  0  0  0  0  0  0999 V2000
    5.0324    1.8159   16.9884 H   0  0  0  0  0  0  0  0  0  0  0  0
    5.4700    1.2753   17.8247 C   0  0  0  0  0  0  0  0  0  0  0  0
    6.6217    0.5991   17.6431 N   0  0  0  0  0  0  0  0  0  0  0  0
    7.1651   -0.0166   18.7120 C   0  0  0  0  0  0  0  0  0  0  0  0
    8.0862   -0.5755   18.5684 H   0  0  0  0  0  0  0  0  0  0  0  0
    6.5943    0.0297   19.9897 C   0  0  0  0  0  0  0  0  0  0  0  0
    7.4144   -0.8733   21.3438 S   0  0  0  0  0  4  0  0  0  0  0  0
    8.1263   -1.9045   20.5684 O   0  0  0  0  0  0  0  0  0  0  0  0
    8.7972    0.2338   21.8296 C   0  0  0  0  0  0  0  0  0  0  0  0
    9.9159    0.3039   21.0010 C   0  0  0  0  0  0  0  0  0  0  0  0
    9.9629   -0.3309   20.1206 H   0  0  0  0  0  0  0  0  0  0  0  0
   10.9730    1.1655   21.2980 C   0  0  0  0  0  0  0  0  0  0  0  0
   11.8147    1.2777   20.6253 H   0  0  0  0  0  0  0  0  0  0  0  0
   10.9850    1.8918   22.4792 C   0  0  0  0  0  0  0  0  0  0  0  0
   12.5171    2.9629   22.8870 Br  0  0  0  0  0  0  0  0  0  0  0  0
    9.8872    1.8068   23.3396 C   0  0  0  0  0  0  0  0  0  0  0  0
    9.9081    2.3735   24.2656 H   0  0  0  0  0  0  0  0  0  0  0  0
    8.7850    0.9987   23.0084 C   0  0  0  0  0  0  0  0  0  0  0  0
    7.9370    0.9562   23.6853 H   0  0  0  0  0  0  0  0  0  0  0  0
    5.3813    0.7016   20.1726 C   0  0  0  0  0  0  0  0  0  0  0  0
    4.8852    0.7409   21.1459 H   0  0  0  0  0  0  0  0  0  0  0  0
    4.8149    1.3282   19.0604 C   0  0  0  0  0  0  0  0  0  0  0  0
    3.8778    1.8719   19.1371 H   0  0  0  0  0  0  0  0  0  0  0  0
  1  2  1  0
  2  3  2  0
  3  4  1  0
  4  5  1  0
  4  6  2  0
  7  6  1  6
  7  8  2  0
  7  9  1  0
  9 10  2  0
 10 11  1  0
 10 12  1  0
 12 13  1  0
 12 14  2  0
 14 15  1  0
 14 16  1  0
 16 17  1  0
 16 18  2  0
 18 19  1  0
  6 20  1  0
 20 21  1  0
 20 22  2  0
 22 23  1  0
 22  2  1  0
 18  9  1  0
M  END
>  <cnnaffinity>  (1) 
-4.50571

>  <filename>  (1) 
O=[S@@](c1ccc(Br)cc1)c1cccnc1

$$$$
