
     RDKit          3D

 27 28  0  0  0  0  0  0  0  0999 V2000
    4.9160    1.7961   16.9817 H   0  0  0  0  0  0  0  0  0  0  0  0
    5.3885    1.3008   17.8257 C   0  0  0  0  0  0  0  0  0  0  0  0
    6.5496    0.6772   17.5650 N   0  0  0  0  0  0  0  0  0  0  0  0
    7.1503    0.0593   18.5861 C   0  0  0  0  0  0  0  0  0  0  0  0
    8.1170   -0.4007   18.3763 H   0  0  0  0  0  0  0  0  0  0  0  0
    6.6351    0.0009   19.8967 C   0  0  0  0  0  0  0  0  0  0  0  0
    7.3932   -0.6718   21.0068 C   0  0  0  0  0  0  0  0  0  0  0  0
    7.9037   -1.5731   20.6422 H   0  0  0  0  0  0  0  0  0  0  0  0
    6.7395   -0.9703   21.8388 H   0  0  0  0  0  0  0  0  0  0  0  0
    8.7863    0.3353   21.6693 S   0  0  0  0  0  4  0  0  0  0  0  0
    9.5364    0.8504   20.4770 O   0  0  0  0  0  0  0  0  0  0  0  0
    7.8924    1.7828   22.3532 C   0  0  2  0  0  0  0  0  0  0  0  0
    7.3122    2.2443   21.5486 H   0  0  0  0  0  0  0  0  0  0  0  0
    8.9137    2.8010   22.8845 C   0  0  0  0  0  0  0  0  0  0  0  0
    9.2229    3.5444   22.1396 H   0  0  0  0  0  0  0  0  0  0  0  0
    9.8243    2.2999   23.2452 H   0  0  0  0  0  0  0  0  0  0  0  0
    8.2767    3.4871   23.9474 O   0  0  0  0  0  0  0  0  0  0  0  0
    7.1247    2.7941   24.4058 C   0  0  0  0  0  0  0  0  0  0  0  0
    7.2186    2.6101   25.4878 H   0  0  0  0  0  0  0  0  0  0  0  0
    6.2463    3.4425   24.2641 H   0  0  0  0  0  0  0  0  0  0  0  0
    7.0321    1.4916   23.5889 C   0  0  0  0  0  0  0  0  0  0  0  0
    5.9916    1.2321   23.3529 H   0  0  0  0  0  0  0  0  0  0  0  0
    7.4659    0.6557   24.1480 H   0  0  0  0  0  0  0  0  0  0  0  0
    5.4189    0.6500   20.1436 C   0  0  0  0  0  0  0  0  0  0  0  0
    4.9971    0.6388   21.1520 H   0  0  0  0  0  0  0  0  0  0  0  0
    4.7934    1.3188   19.0886 C   0  0  0  0  0  0  0  0  0  0  0  0
    3.8649    1.8516   19.2446 H   0  0  0  0  0  0  0  0  0  0  0  0
  1  2  1  0
  2  3  2  0
  3  4  1  0
  4  5  1  0
  4  6  2  0
  6  7  1  0
  7  8  1  0
  7  9  1  0
 10  7  1  6
 10 11  2  0
 10 12  1  0
 12 13  1  6
 12 14  1  0
 14 15  1  0
 14 16  1  0
 14 17  1  0
 17 18  1  0
 18 19  1  0
 18 20  1  0
 18 21  1  0
 21 22  1  0
 21 23  1  0
  6 24  1  0
 24 25  1  0
 24 26  2  0
 26 27  1  0
 26  2  1  0
 21 12  1  0
M  END
>  <cnnaffinity>  (1) 
-4.15724

>  <filename>  (1) 
O=[S@](Cc1cccnc1)[C@H]1CCOC1

$$$$
