
     RDKit          3D

 26 27  0  0  0  0  0  0  0  0999 V2000
    4.9360    1.7770   16.9955 H   0  0  0  0  0  0  0  0  0  0  0  0
    5.4104    1.2856   17.8425 C   0  0  0  0  0  0  0  0  0  0  0  0
    6.5709    0.6591   17.5971 N   0  0  0  0  0  0  0  0  0  0  0  0
    7.1940    0.0587   18.6201 C   0  0  0  0  0  0  0  0  0  0  0  0
    8.1157   -0.4578   18.3633 H   0  0  0  0  0  0  0  0  0  0  0  0
    6.6891    0.0732   19.9264 C   0  0  0  0  0  0  0  0  0  0  0  0
    7.4929   -0.8612   21.2296 S   0  0  0  0  0  4  0  0  0  0  0  0
    7.8461   -2.1927   20.6475 O   0  0  0  0  0  0  0  0  0  0  0  0
    9.0722    0.0310   21.3343 C   0  0  0  0  0  0  0  0  0  0  0  0
    9.5940   -0.1306   20.3865 H   0  0  0  0  0  0  0  0  0  0  0  0
    8.8764    1.0968   21.4639 H   0  0  0  0  0  0  0  0  0  0  0  0
    9.8827   -0.5436   22.5093 C   0  0  0  0  0  0  0  0  0  0  0  0
    9.2999   -0.4467   23.4315 H   0  0  0  0  0  0  0  0  0  0  0  0
   10.0275   -1.6208   22.3531 H   0  0  0  0  0  0  0  0  0  0  0  0
   11.2233    0.1292   22.6409 C   0  0  0  0  0  0  0  0  0  0  0  0
   11.4575    1.5578   23.5869 S   0  0  0  0  0  0  0  0  0  0  0  0
   13.1012    1.6804   23.1053 C   0  0  0  0  0  0  0  0  0  0  0  0
   13.7056    2.4996   23.4678 H   0  0  0  0  0  0  0  0  0  0  0  0
   13.4627    0.6703   22.2713 C   0  0  0  0  0  0  0  0  0  0  0  0
   14.4535    0.5633   21.8408 H   0  0  0  0  0  0  0  0  0  0  0  0
   12.3746   -0.2166   22.0018 C   0  0  0  0  0  0  0  0  0  0  0  0
   12.4395   -1.0629   21.3238 H   0  0  0  0  0  0  0  0  0  0  0  0
    5.4542    0.6792   20.1752 C   0  0  0  0  0  0  0  0  0  0  0  0
    5.0082    0.6340   21.1721 H   0  0  0  0  0  0  0  0  0  0  0  0
    4.8123    1.3105   19.1086 C   0  0  0  0  0  0  0  0  0  0  0  0
    3.8759    1.8344   19.2532 H   0  0  0  0  0  0  0  0  0  0  0  0
  1  2  1  0
  2  3  2  0
  3  4  1  0
  4  5  1  0
  4  6  2  0
  6  7  1  0
  7  8  2  0
  7  9  1  1
  9 10  1  0
  9 11  1  0
  9 12  1  0
 12 13  1  0
 12 14  1  0
 12 15  1  0
 15 16  1  0
 16 17  1  0
 17 18  1  0
 17 19  2  0
 19 20  1  0
 19 21  1  0
 21 22  1  0
  6 23  1  0
 23 24  1  0
 23 25  2  0
 25 26  1  0
 25  2  1  0
 21 15  2  0
M  END
>  <cnnaffinity>  (1) 
-4.76103

>  <filename>  (1) 
O=[S@](CCc1cccs1)c1cccnc1

$$$$
