
     RDKit          3D

 35 36  0  0  0  0  0  0  0  0999 V2000
    4.9991    1.6165   16.7763 H   0  0  0  0  0  0  0  0  0  0  0  0
    5.4186    1.2890   17.7281 C   0  0  0  0  0  0  0  0  0  0  0  0
    6.6798    0.8396   17.6959 N   0  0  0  0  0  0  0  0  0  0  0  0
    7.2281    0.4434   18.8480 C   0  0  0  0  0  0  0  0  0  0  0  0
    8.2694    0.1245   18.8110 H   0  0  0  0  0  0  0  0  0  0  0  0
    6.5304    0.4410   20.0605 C   0  0  0  0  0  0  0  0  0  0  0  0
    7.4075   -0.2059   21.4836 S   0  0  0  0  0  4  0  0  0  0  0  0
    8.8264    0.2714   21.3237 O   0  0  0  0  0  0  0  0  0  0  0  0
    7.4623   -1.9355   20.8837 C   0  0  0  0  0  0  0  0  0  0  0  0
    8.2630   -1.8993   20.1397 H   0  0  0  0  0  0  0  0  0  0  0  0
    6.5062   -2.1553   20.3942 H   0  0  0  0  0  0  0  0  0  0  0  0
    7.7623   -2.9849   21.9572 C   0  0  0  0  0  0  0  0  0  0  0  0
    6.9480   -2.9910   22.6927 H   0  0  0  0  0  0  0  0  0  0  0  0
    7.7279   -3.9597   21.4502 H   0  0  0  0  0  0  0  0  0  0  0  0
    9.0976   -2.8490   22.7020 C   0  0  0  0  0  0  0  0  0  0  0  0
    9.0851   -1.9181   23.2844 H   0  0  0  0  0  0  0  0  0  0  0  0
    9.9342   -2.7546   21.9951 H   0  0  0  0  0  0  0  0  0  0  0  0
    9.3948   -4.0302   23.6572 C   0  0  0  0  0  0  0  0  0  0  0  0
    9.2558   -4.9804   23.1259 H   0  0  0  0  0  0  0  0  0  0  0  0
   10.4558   -4.0147   23.9439 H   0  0  0  0  0  0  0  0  0  0  0  0
    8.5650   -4.0358   24.9267 C   0  0  0  0  0  0  0  0  0  0  0  0
    8.8156   -3.0762   25.9249 C   0  0  0  0  0  0  0  0  0  0  0  0
    9.6285   -2.3676   25.7806 H   0  0  0  0  0  0  0  0  0  0  0  0
    8.0400   -3.0215   27.0834 C   0  0  0  0  0  0  0  0  0  0  0  0
    8.2434   -2.2501   27.8222 H   0  0  0  0  0  0  0  0  0  0  0  0
    7.0056   -3.9437   27.2770 C   0  0  0  0  0  0  0  0  0  0  0  0
    6.3916   -3.9160   28.1731 H   0  0  0  0  0  0  0  0  0  0  0  0
    6.7586   -4.9202   26.3071 C   0  0  0  0  0  0  0  0  0  0  0  0
    5.9641   -5.6458   26.4652 H   0  0  0  0  0  0  0  0  0  0  0  0
    7.5359   -4.9645   25.1440 C   0  0  0  0  0  0  0  0  0  0  0  0
    7.3436   -5.7285   24.3936 H   0  0  0  0  0  0  0  0  0  0  0  0
    5.2247    0.9325   20.1041 C   0  0  0  0  0  0  0  0  0  0  0  0
    4.6779    1.0021   21.0451 H   0  0  0  0  0  0  0  0  0  0  0  0
    4.6572    1.3577   18.8988 C   0  0  0  0  0  0  0  0  0  0  0  0
    3.6484    1.7484   18.8592 H   0  0  0  0  0  0  0  0  0  0  0  0
  1  2  1  0
  2  3  2  0
  3  4  1  0
  4  5  1  0
  4  6  2  0
  6  7  1  0
  7  8  2  0
  7  9  1  6
  9 10  1  0
  9 11  1  0
  9 12  1  0
 12 13  1  0
 12 14  1  0
 12 15  1  0
 15 16  1  0
 15 17  1  0
 15 18  1  0
 18 19  1  0
 18 20  1  0
 18 21  1  0
 21 22  2  0
 22 23  1  0
 22 24  1  0
 24 25  1  0
 24 26  2  0
 26 27  1  0
 26 28  1  0
 28 29  1  0
 28 30  2  0
 30 31  1  0
  6 32  1  0
 32 33  1  0
 32 34  2  0
 34 35  1  0
 34  2  1  0
 30 21  1  0
M  END
>  <cnnaffinity>  (1) 
-4.45361

>  <filename>  (1) 
O=[S@](CCCCc1ccccc1)c1cccnc1

$$$$
