
     RDKit          3D

 27 28  0  0  0  0  0  0  0  0999 V2000
    4.9562    1.7877   16.9925 H   0  0  0  0  0  0  0  0  0  0  0  0
    5.4369    1.2818   17.8253 C   0  0  0  0  0  0  0  0  0  0  0  0
    6.6035    0.6621   17.5684 N   0  0  0  0  0  0  0  0  0  0  0  0
    7.2181    0.0556   18.5911 C   0  0  0  0  0  0  0  0  0  0  0  0
    8.1641   -0.4425   18.3680 H   0  0  0  0  0  0  0  0  0  0  0  0
    6.7225    0.0283   19.9177 C   0  0  0  0  0  0  0  0  0  0  0  0
    7.4933   -0.5781   20.9706 N   0  0  0  0  0  0  0  0  0  0  0  0
    7.8246   -1.5264   20.7702 H   0  0  0  0  0  0  0  0  0  0  0  0
    6.8093   -0.7565   22.5524 S   0  0  0  0  0  4  0  0  0  0  0  0
    6.6799   -2.2297   22.6350 O   0  0  0  0  0  0  0  0  0  0  0  0
    8.2036   -0.0830   23.6116 C   0  0  0  0  0  0  0  0  0  0  0  0
    8.0221    1.1899   23.9602 N   0  0  0  0  0  0  0  0  0  0  0  0
    8.9698    1.8126   24.6747 C   0  0  0  0  0  0  0  0  0  0  0  0
    8.7835    2.8609   24.9046 H   0  0  0  0  0  0  0  0  0  0  0  0
   10.1309    1.1759   25.0992 C   0  0  0  0  0  0  0  0  0  0  0  0
   10.8499    1.7191   25.7011 H   0  0  0  0  0  0  0  0  0  0  0  0
   10.3391   -0.1580   24.7534 C   0  0  0  0  0  0  0  0  0  0  0  0
   11.2555   -0.6566   25.0756 H   0  0  0  0  0  0  0  0  0  0  0  0
    9.3632   -0.8181   23.9829 C   0  0  0  0  0  0  0  0  0  0  0  0
    9.5241   -2.2672   23.5983 C   0  0  0  0  0  0  0  0  0  0  0  0
   10.7523   -2.7465   23.8629 F   0  0  0  0  0  0  0  0  0  0  0  0
    9.3351   -2.4371   22.2709 F   0  0  0  0  0  0  0  0  0  0  0  0
    8.6547   -3.0406   24.2564 F   0  0  0  0  0  0  0  0  0  0  0  0
    5.4886    0.6508   20.1588 C   0  0  0  0  0  0  0  0  0  0  0  0
    5.0566    0.6390   21.1603 H   0  0  0  0  0  0  0  0  0  0  0  0
    4.8475    1.2853   19.0925 C   0  0  0  0  0  0  0  0  0  0  0  0
    3.9048    1.7938   19.2515 H   0  0  0  0  0  0  0  0  0  0  0  0
  1  2  1  0
  2  3  2  0
  3  4  1  0
  4  5  1  0
  4  6  2  0
  6  7  1  0
  7  8  1  0
  9  7  1  6
  9 10  2  0
  9 11  1  0
 11 12  2  0
 12 13  1  0
 13 14  1  0
 13 15  2  0
 15 16  1  0
 15 17  1  0
 17 18  1  0
 17 19  2  0
 19 20  1  0
 20 21  1  0
 20 22  1  0
 20 23  1  0
  6 24  1  0
 24 25  1  0
 24 26  2  0
 26 27  1  0
 26  2  1  0
 19 11  1  0
M  END
>  <cnnaffinity>  (1) 
-5.25476

>  <filename>  (1) 
O=[S@](Nc1cccnc1)c1ncccc1C(F)(F)F

$$$$
