
     RDKit          3D

 39 41  0  0  0  0  0  0  0  0999 V2000
    5.8954   -2.2941   21.4275 O   0  0  0  0  0  0  0  0  0  0  0  0
    6.8527   -1.6187   21.7446 C   0  0  0  0  0  0  0  0  0  0  0  0
    7.5661   -1.7844   23.1176 C   0  0  0  0  0  0  0  0  0  0  0  0
    7.0751   -0.9313   24.2026 O   0  0  0  0  0  0  0  0  0  0  0  0
    7.5385    0.3262   24.3092 C   0  0  0  0  0  0  0  0  0  0  0  0
    8.2673    0.8249   23.4636 O   0  0  0  0  0  0  0  0  0  0  0  0
    7.0587    1.0895   25.5682 C   0  0  0  0  0  0  0  0  0  0  0  0
    7.4053    2.4479   25.6923 C   0  0  0  0  0  0  0  0  0  0  0  0
    6.9578    3.1559   26.8123 C   0  0  0  0  0  0  0  0  0  0  0  0
    6.1827    2.4939   27.7650 C   0  0  0  0  0  0  0  0  0  0  0  0
    5.8745    1.1328   27.5717 C   0  0  0  0  0  0  0  0  0  0  0  0
    5.0115    0.3629   28.5579 C   0  0  0  0  0  0  0  0  0  0  0  0
    5.1504   -1.0310   28.7185 C   0  0  0  0  0  0  0  0  0  0  0  0
    4.3602   -1.7012   29.6568 C   0  0  0  0  0  0  0  0  0  0  0  0
    3.4338   -1.1019   30.4179 N   0  0  0  0  0  0  0  0  0  0  0  0
    3.2821    0.2165   30.2571 C   0  0  0  0  0  0  0  0  0  0  0  0
    4.0286    0.9871   29.3594 C   0  0  0  0  0  0  0  0  0  0  0  0
    3.8106    2.0486   29.2981 H   0  0  0  0  0  0  0  0  0  0  0  0
    2.5248    0.6916   30.8785 H   0  0  0  0  0  0  0  0  0  0  0  0
    4.4724   -2.7749   29.7899 H   0  0  0  0  0  0  0  0  0  0  0  0
    5.8533   -1.5895   28.1073 H   0  0  0  0  0  0  0  0  0  0  0  0
    6.3320    0.4550   26.5058 N   0  0  0  0  0  0  0  0  0  0  0  0
    5.8213    3.0052   28.6516 H   0  0  0  0  0  0  0  0  0  0  0  0
    7.2006    4.2117   26.9409 H   0  0  0  0  0  0  0  0  0  0  0  0
    8.0104    2.9260   24.9292 H   0  0  0  0  0  0  0  0  0  0  0  0
    7.3499   -2.7902   23.4694 H   0  0  0  0  0  0  0  0  0  0  0  0
    8.6471   -1.6456   22.9927 H   0  0  0  0  0  0  0  0  0  0  0  0
    7.4398   -0.6805   20.9119 N   0  0  0  0  0  0  0  0  0  0  0  0
    6.7152   -0.0473   19.8409 C   0  0  0  0  0  0  0  0  0  0  0  0
    5.4967    0.5896   20.1012 C   0  0  0  0  0  0  0  0  0  0  0  0
    4.8622    1.2752   19.0582 C   0  0  0  0  0  0  0  0  0  0  0  0
    5.4648    1.2944   17.7980 C   0  0  0  0  0  0  0  0  0  0  0  0
    6.6321    0.6840   17.5319 N   0  0  0  0  0  0  0  0  0  0  0  0
    7.2429    0.0391   18.5355 C   0  0  0  0  0  0  0  0  0  0  0  0
    8.1970   -0.4363   18.3057 H   0  0  0  0  0  0  0  0  0  0  0  0
    4.9965    1.8212   16.9693 H   0  0  0  0  0  0  0  0  0  0  0  0
    3.9305    1.8039   19.2199 H   0  0  0  0  0  0  0  0  0  0  0  0
    5.0816    0.5463   21.1101 H   0  0  0  0  0  0  0  0  0  0  0  0
    8.0289   -0.0337   21.4230 H   0  0  0  0  0  0  0  0  0  0  0  0
  1  2  2  0
  2  3  1  0
  3  4  1  0
  4  5  1  0
  5  6  2  0
  5  7  1  0
  7  8  2  0
  8  9  1  0
  9 10  2  0
 10 11  1  0
 11 12  1  0
 12 13  2  0
 13 14  1  0
 14 15  2  0
 15 16  1  0
 16 17  2  0
 17 18  1  0
 16 19  1  0
 14 20  1  0
 13 21  1  0
 11 22  2  0
 10 23  1  0
  9 24  1  0
  8 25  1  0
  3 26  1  0
  3 27  1  0
  2 28  1  0
 28 29  1  0
 29 30  2  0
 30 31  1  0
 31 32  2  0
 32 33  1  0
 33 34  2  0
 34 35  1  0
 32 36  1  0
 31 37  1  0
 30 38  1  0
 28 39  1  0
 22  7  1  0
 34 29  1  0
 17 12  1  0
M  END
>  <cnnaffinity>  (1) 
-5.10586

>  <filename>  (1) 
O=C(COC(=O)c1cccc(-c2ccncc2)n1)Nc1cccnc1

$$$$
