
     RDKit          3D

 31 33  0  0  0  0  0  0  0  0999 V2000
    4.9157    1.7751   16.9999 H   0  0  0  0  0  0  0  0  0  0  0  0
    5.4045    1.2903   17.8424 C   0  0  0  0  0  0  0  0  0  0  0  0
    6.5697    0.6750   17.5855 N   0  0  0  0  0  0  0  0  0  0  0  0
    7.1796    0.0644   18.6101 C   0  0  0  0  0  0  0  0  0  0  0  0
    8.1191   -0.4301   18.3675 H   0  0  0  0  0  0  0  0  0  0  0  0
    6.6617   -0.0011   19.9187 C   0  0  0  0  0  0  0  0  0  0  0  0
    7.3986   -0.7277   20.9946 C   0  0  0  0  0  0  0  0  0  0  0  0
    6.3902   -1.6449   22.1087 S   0  0  0  0  0  0  0  0  0  0  0  0
    7.5512   -2.3367   23.2132 C   0  0  0  0  0  0  0  0  0  0  0  0
    6.8803   -3.1497   24.3134 C   0  0  0  0  0  0  0  0  0  0  0  0
    5.7577   -2.8886   24.6949 O   0  0  0  0  0  0  0  0  0  0  0  0
    7.6650   -4.3009   24.9247 C   0  0  0  0  0  0  0  0  0  0  0  0
    8.5351   -5.1204   24.1829 C   0  0  0  0  0  0  0  0  0  0  0  0
    8.7100   -4.9520   23.1249 H   0  0  0  0  0  0  0  0  0  0  0  0
    9.1790   -6.1827   24.8265 C   0  0  0  0  0  0  0  0  0  0  0  0
    9.8540   -6.8178   24.2589 H   0  0  0  0  0  0  0  0  0  0  0  0
    9.0089   -6.4872   26.1170 N   0  0  0  0  0  0  0  0  0  0  0  0
    8.1743   -5.7100   26.8221 C   0  0  0  0  0  0  0  0  0  0  0  0
    8.0350   -5.9623   27.8718 H   0  0  0  0  0  0  0  0  0  0  0  0
    7.4842   -4.6225   26.2805 C   0  0  0  0  0  0  0  0  0  0  0  0
    6.8065   -4.0429   26.8996 H   0  0  0  0  0  0  0  0  0  0  0  0
    8.8867   -2.1199   23.1302 C   0  0  0  0  0  0  0  0  0  0  0  0
    9.5848   -2.5441   23.8463 H   0  0  0  0  0  0  0  0  0  0  0  0
    9.5661   -1.3011   22.1067 C   0  0  0  0  0  0  0  0  0  0  0  0
   10.7791   -1.1755   22.1177 O   0  0  0  0  0  0  0  0  0  0  0  0
    8.7418   -0.6544   21.0793 C   0  0  0  0  0  0  0  0  0  0  0  0
    9.3256   -0.0540   20.3871 H   0  0  0  0  0  0  0  0  0  0  0  0
    5.4397    0.6537   20.1593 C   0  0  0  0  0  0  0  0  0  0  0  0
    5.0067    0.6391   21.1617 H   0  0  0  0  0  0  0  0  0  0  0  0
    4.8075    1.3131   19.1072 C   0  0  0  0  0  0  0  0  0  0  0  0
    3.8751    1.8440   19.2619 H   0  0  0  0  0  0  0  0  0  0  0  0
  1  2  1  0
  2  3  2  0
  3  4  1  0
  4  5  1  0
  4  6  2  0
  6  7  1  0
  7  8  1  0
  8  9  1  0
  9 10  1  0
 10 11  2  0
 10 12  1  0
 12 13  2  0
 13 14  1  0
 13 15  1  0
 15 16  1  0
 15 17  2  0
 17 18  1  0
 18 19  1  0
 18 20  2  0
 20 21  1  0
  9 22  2  0
 22 23  1  0
 22 24  1  0
 24 25  2  0
 24 26  1  0
 26 27  1  0
  6 28  1  0
 28 29  1  0
 28 30  2  0
 30 31  1  0
 30  2  1  0
 26  7  2  0
 20 12  1  0
M  END
>  <cnnaffinity>  (1) 
-5.15719

>  <filename>  (1) 
O=C(c1ccncc1)c1cc(=O)cc(-c2cccnc2)s1

$$$$
