
     RDKit          3D

 40 42  0  0  0  0  0  0  0  0999 V2000
    4.9166    1.8110   16.9688 H   0  0  0  0  0  0  0  0  0  0  0  0
    5.3830    1.3057   17.8132 C   0  0  0  0  0  0  0  0  0  0  0  0
    6.5427    0.6835   17.5537 N   0  0  0  0  0  0  0  0  0  0  0  0
    7.1554    0.0767   18.5768 C   0  0  0  0  0  0  0  0  0  0  0  0
    8.1038   -0.4060   18.3436 H   0  0  0  0  0  0  0  0  0  0  0  0
    6.6683    0.0652   19.9032 C   0  0  0  0  0  0  0  0  0  0  0  0
    7.3945   -0.6198   21.0138 C   0  0  0  0  0  0  0  0  0  0  0  0
    7.6853   -1.9769   20.8969 C   0  0  0  0  0  0  0  0  0  0  0  0
    7.2991   -2.4887   20.0179 H   0  0  0  0  0  0  0  0  0  0  0  0
    8.3300   -2.7165   21.8006 N   0  0  0  0  0  0  0  0  0  0  0  0
    8.6621   -2.1140   22.9533 C   0  0  0  0  0  0  0  0  0  0  0  0
    9.1584   -2.7469   23.6910 H   0  0  0  0  0  0  0  0  0  0  0  0
    8.3504   -0.7881   23.2357 C   0  0  0  0  0  0  0  0  0  0  0  0
    8.5591   -0.3324   24.1928 H   0  0  0  0  0  0  0  0  0  0  0  0
    7.7166   -0.0341   22.2514 C   0  0  0  0  0  0  0  0  0  0  0  0
    7.4370    1.3126   22.4968 N   0  0  0  0  0  0  0  0  0  0  0  0
    7.4551    1.9003   21.6800 H   0  0  0  0  0  0  0  0  0  0  0  0
    6.7819    1.7658   23.6234 C   0  0  0  0  0  0  0  0  0  0  0  0
    6.4166    1.0030   24.5004 O   0  0  0  0  0  0  0  0  0  0  0  0
    6.5270    3.2805   23.6933 C   0  0  0  0  0  0  0  0  0  0  0  0
    7.2475    3.7897   23.0327 H   0  0  0  0  0  0  0  0  0  0  0  0
    5.0918    3.6184   23.1950 C   0  0  0  0  0  0  0  0  0  0  0  0
    4.9499    3.2988   22.1499 H   0  0  0  0  0  0  0  0  0  0  0  0
    4.3793    3.0331   23.7947 H   0  0  0  0  0  0  0  0  0  0  0  0
    4.7726    5.1189   23.3371 C   0  0  0  0  0  0  0  0  0  0  0  0
    3.7419    5.3210   23.0163 H   0  0  0  0  0  0  0  0  0  0  0  0
    5.4166    5.6933   22.6534 H   0  0  0  0  0  0  0  0  0  0  0  0
    4.9891    5.6203   24.7759 C   0  0  0  0  0  0  0  0  0  0  0  0
    4.7943    6.7000   24.8426 H   0  0  0  0  0  0  0  0  0  0  0  0
    4.2551    5.1427   25.4430 H   0  0  0  0  0  0  0  0  0  0  0  0
    6.4075    5.2967   25.2726 C   0  0  0  0  0  0  0  0  0  0  0  0
    6.5290    5.6180   26.3152 H   0  0  0  0  0  0  0  0  0  0  0  0
    7.1410    5.8789   24.6941 H   0  0  0  0  0  0  0  0  0  0  0  0
    6.7302    3.8002   25.1413 C   0  0  0  0  0  0  0  0  0  0  0  0
    7.7535    3.6032   25.4877 H   0  0  0  0  0  0  0  0  0  0  0  0
    6.0770    3.2082   25.7978 H   0  0  0  0  0  0  0  0  0  0  0  0
    5.4343    0.6823   20.1379 C   0  0  0  0  0  0  0  0  0  0  0  0
    5.0184    0.6423   21.1453 H   0  0  0  0  0  0  0  0  0  0  0  0
    4.7865    1.3209   19.0782 C   0  0  0  0  0  0  0  0  0  0  0  0
    3.8536    1.8476   19.2257 H   0  0  0  0  0  0  0  0  0  0  0  0
  1  2  1  0
  2  3  2  0
  3  4  1  0
  4  5  1  0
  4  6  2  0
  6  7  1  0
  7  8  2  0
  8  9  1  0
  8 10  1  0
 10 11  2  0
 11 12  1  0
 11 13  1  0
 13 14  1  0
 13 15  2  0
 15 16  1  0
 16 17  1  0
 16 18  1  0
 18 19  2  0
 18 20  1  0
 20 21  1  0
 20 22  1  0
 22 23  1  0
 22 24  1  0
 22 25  1  0
 25 26  1  0
 25 27  1  0
 25 28  1  0
 28 29  1  0
 28 30  1  0
 28 31  1  0
 31 32  1  0
 31 33  1  0
 31 34  1  0
 34 35  1  0
 34 36  1  0
  6 37  1  0
 37 38  1  0
 37 39  2  0
 39 40  1  0
 39  2  1  0
 15  7  1  0
 34 20  1  0
M  END
>  <cnnaffinity>  (1) 
-5.20954

>  <filename>  (1) 
O=C(Nc1ccncc1-c1cccnc1)C1CCCCC1

$$$$
