
     RDKit          3D

 39 41  0  0  0  0  0  0  0  0999 V2000
    5.1223    1.6272   16.5784 H   0  0  0  0  0  0  0  0  0  0  0  0
    5.5221    1.0981   17.4392 C   0  0  0  0  0  0  0  0  0  0  0  0
    6.7985    0.6928   17.3437 N   0  0  0  0  0  0  0  0  0  0  0  0
    7.3345    0.0674   18.3995 C   0  0  0  0  0  0  0  0  0  0  0  0
    8.3752   -0.2437   18.3090 H   0  0  0  0  0  0  0  0  0  0  0  0
    6.6237   -0.2060   19.5892 C   0  0  0  0  0  0  0  0  0  0  0  0
    7.2771   -0.7959   20.7097 N   0  0  0  0  0  0  0  0  0  0  0  0
    7.9816   -0.2229   21.1438 H   0  0  0  0  0  0  0  0  0  0  0  0
    6.7383   -1.7104   21.5775 C   0  0  0  0  0  0  0  0  0  0  0  0
    5.7113   -2.3276   21.3538 O   0  0  0  0  0  0  0  0  0  0  0  0
    7.6346   -1.9340   22.8091 C   0  0  0  0  0  0  0  0  0  0  0  0
    7.6665   -0.8449   23.8938 C   0  0  0  0  0  0  0  0  0  0  0  0
    8.0266   -1.3153   24.8198 H   0  0  0  0  0  0  0  0  0  0  0  0
    6.6460   -0.5050   24.1001 H   0  0  0  0  0  0  0  0  0  0  0  0
    8.5393    0.4003   23.6906 C   0  0  0  0  0  0  0  0  0  0  0  0
    9.5502    0.1555   23.3360 H   0  0  0  0  0  0  0  0  0  0  0  0
    8.6539    0.8740   24.6742 H   0  0  0  0  0  0  0  0  0  0  0  0
    7.9095    1.3020   22.7618 O   0  0  0  0  0  0  0  0  0  0  0  0
    8.2035    2.6194   22.6901 C   0  0  0  0  0  0  0  0  0  0  0  0
    9.4420    3.2552   23.0613 C   0  0  0  0  0  0  0  0  0  0  0  0
   10.2500    2.6671   23.4740 H   0  0  0  0  0  0  0  0  0  0  0  0
    9.5298    4.6547   22.8199 C   0  0  0  0  0  0  0  0  0  0  0  0
    9.9555    5.3193   23.5843 H   0  0  0  0  0  0  0  0  0  0  0  0
    8.0502    5.0888   22.2726 C   0  0  0  0  0  0  0  0  0  0  0  0
    8.2025    5.4375   20.7981 H   0  0  0  0  0  0  0  0  0  0  0  0
    8.0482    5.2536   21.9588 C   0  0  0  0  0  0  0  0  0  0  0  0
    7.4116    6.1743   22.5107 H   0  0  0  0  0  0  0  0  0  0  0  0
    7.2277    3.5222   22.1574 C   0  0  0  0  0  0  0  0  0  0  0  0
    6.2556    3.4216   22.7218 H   0  0  0  0  0  0  0  0  0  0  0  0
    8.8918   -2.7677   22.6338 C   0  0  0  0  0  0  0  0  0  0  0  0
    9.7556   -2.4984   23.2410 H   0  0  0  0  0  0  0  0  0  0  0  0
    9.1418   -3.1227   21.6367 H   0  0  0  0  0  0  0  0  0  0  0  0
    7.6957   -3.3574   23.3145 C   0  0  0  0  0  0  0  0  0  0  0  0
    7.1093   -4.1066   22.7863 H   0  0  0  0  0  0  0  0  0  0  0  0
    7.7235   -3.5010   24.3935 H   0  0  0  0  0  0  0  0  0  0  0  0
    5.2804    0.1785   19.6565 C   0  0  0  0  0  0  0  0  0  0  0  0
    4.7109   -0.0441   20.5592 H   0  0  0  0  0  0  0  0  0  0  0  0
    4.7287    0.8628   18.5667 C   0  0  0  0  0  0  0  0  0  0  0  0
    3.7083    1.2293   18.5910 H   0  0  0  0  0  0  0  0  0  0  0  0
  1  2  1  0
  2  3  2  0
  3  4  1  0
  4  5  1  0
  4  6  2  0
  6  7  1  0
  7  8  1  0
  7  9  1  0
  9 10  2  0
  9 11  1  0
 11 12  1  0
 12 13  1  0
 12 14  1  0
 12 15  1  0
 15 16  1  0
 15 17  1  0
 15 18  1  0
 18 19  1  0
 19 20  2  0
 20 21  1  0
 20 22  1  0
 22 23  1  0
 22 24  2  0
 24 25  1  0
 24 26  1  0
 26 27  1  0
 26 28  2  0
 28 29  1  0
 11 30  1  0
 30 31  1  0
 30 32  1  0
 30 33  1  0
 33 34  1  0
 33 35  1  0
  6 36  1  0
 36 37  1  0
 36 38  2  0
 38 39  1  0
 38  2  1  0
 33 11  1  0
 28 19  1  0
M  END
>  <cnnaffinity>  (1) 
-5.36771

>  <filename>  (1) 
O=C(Nc1cccnc1)C1(CCOc2ccccc2)CC1

$$$$
