
     RDKit          3D

 36 38  0  0  0  0  0  0  0  0999 V2000
   10.1412   -1.8216   21.7223 O   0  0  0  0  0  0  0  0  0  0  0  0
    9.7562   -1.3071   22.7655 C   0  0  0  0  0  0  0  0  0  0  0  0
    8.6418   -1.7759   23.4022 N   0  0  0  0  0  0  0  0  0  0  0  0
    7.5834   -2.4462   22.6516 C   0  0  0  0  0  0  0  0  0  0  0  0
    6.8353   -1.5305   21.6907 C   0  0  0  0  0  0  0  0  0  0  0  0
    7.3538   -0.9870   20.5821 C   0  0  0  0  0  0  0  0  0  0  0  0
    6.6502   -0.0957   19.6315 C   0  0  0  0  0  0  0  0  0  0  0  0
    5.4558    0.5904   19.9158 C   0  0  0  0  0  0  0  0  0  0  0  0
    4.8635    1.3577   18.9084 C   0  0  0  0  0  0  0  0  0  0  0  0
    5.4765    1.4264   17.6531 C   0  0  0  0  0  0  0  0  0  0  0  0
    6.6290    0.7996   17.3629 N   0  0  0  0  0  0  0  0  0  0  0  0
    7.1902    0.0797   18.3400 C   0  0  0  0  0  0  0  0  0  0  0  0
    8.1364   -0.3987   18.0840 H   0  0  0  0  0  0  0  0  0  0  0  0
    5.0306    2.0052   16.8452 H   0  0  0  0  0  0  0  0  0  0  0  0
    3.9524    1.9168   19.0853 H   0  0  0  0  0  0  0  0  0  0  0  0
    5.0101    0.5411   20.9117 H   0  0  0  0  0  0  0  0  0  0  0  0
    8.3864   -1.2182   20.3104 H   0  0  0  0  0  0  0  0  0  0  0  0
    5.8002   -1.3173   21.9404 H   0  0  0  0  0  0  0  0  0  0  0  0
    8.0443   -3.2861   22.1108 H   0  0  0  0  0  0  0  0  0  0  0  0
    6.8877   -2.8520   23.3921 H   0  0  0  0  0  0  0  0  0  0  0  0
    8.4436   -1.3595   24.2988 H   0  0  0  0  0  0  0  0  0  0  0  0
   10.4110   -0.0389   23.3998 C   0  0  0  0  0  0  0  0  0  0  0  0
   10.3372    0.1037   24.7199 N   0  0  0  0  0  0  0  0  0  0  0  0
   10.9005    1.1833   25.3165 C   0  0  0  0  0  0  0  0  0  0  0  0
   11.5324    2.1692   24.6058 C   0  0  0  0  0  0  0  0  0  0  0  0
   11.5645    2.1069   23.2022 C   0  0  0  0  0  0  0  0  0  0  0  0
   12.1359    3.1278   22.4111 C   0  0  0  0  0  0  0  0  0  0  0  0
   12.0476    3.0230   21.0502 C   0  0  0  0  0  0  0  0  0  0  0  0
   11.4333    1.9989   20.4215 N   0  0  0  0  0  0  0  0  0  0  0  0
   10.9312    1.0199   21.1472 C   0  0  0  0  0  0  0  0  0  0  0  0
   10.9731    0.9904   22.5631 C   0  0  0  0  0  0  0  0  0  0  0  0
   10.4739    0.1718   20.6341 H   0  0  0  0  0  0  0  0  0  0  0  0
   12.4872    3.7678   20.3940 H   0  0  0  0  0  0  0  0  0  0  0  0
   12.6290    3.9703   22.8810 H   0  0  0  0  0  0  0  0  0  0  0  0
   11.9880    3.0248   25.0650 H   0  0  0  0  0  0  0  0  0  0  0  0
   10.7962    1.2380   26.3992 H   0  0  0  0  0  0  0  0  0  0  0  0
  1  2  2  0
  2  3  1  0
  3  4  1  0
  4  5  1  0
  5  6  2  3
  6  7  1  0
  7  8  2  0
  8  9  1  0
  9 10  2  0
 10 11  1  0
 11 12  2  0
 12 13  1  0
 10 14  1  0
  9 15  1  0
  8 16  1  0
  6 17  1  0
  5 18  1  0
  4 19  1  0
  4 20  1  0
  3 21  1  0
  2 22  1  0
 22 23  2  0
 23 24  1  0
 24 25  2  0
 25 26  1  0
 26 27  2  0
 27 28  1  0
 28 29  2  0
 29 30  1  0
 30 31  2  0
 30 32  1  0
 28 33  1  0
 27 34  1  0
 25 35  1  0
 24 36  1  0
 12  7  1  0
 31 22  1  0
 31 26  1  0
M  END
>  <cnnaffinity>  (1) 
-5.86984

>  <filename>  (1) 
O=C(NCC=Cc1cccnc1)c1nccc2ccncc12

$$$$
