
     RDKit          3D

 35 36  0  0  0  0  0  0  0  0999 V2000
    5.9355   -2.2397   21.5025 O   0  0  0  0  0  0  0  0  0  0  0  0
    6.8890   -1.5525   21.7921 C   0  0  0  0  0  0  0  0  0  0  0  0
    7.5930   -1.6646   23.1412 C   0  0  0  0  0  0  0  0  0  0  0  0
    6.7540   -0.7917   24.5116 S   0  0  0  0  0  0  0  0  0  0  0  0
    7.1266    0.9572   24.1954 C   0  0  0  0  0  0  0  0  0  0  0  0
    8.4853    1.4210   24.7447 C   0  0  0  0  0  0  0  0  0  0  0  0
    8.7467    2.9015   24.5410 C   0  0  0  0  0  0  0  0  0  0  0  0
    8.3957    3.8258   25.5449 C   0  0  0  0  0  0  0  0  0  0  0  0
    8.5703    5.2026   25.3635 C   0  0  0  0  0  0  0  0  0  0  0  0
    9.1627    5.6782   24.1885 C   0  0  0  0  0  0  0  0  0  0  0  0
    9.5520    4.7863   23.1896 C   0  0  0  0  0  0  0  0  0  0  0  0
    9.3063    3.4202   23.3566 C   0  0  0  0  0  0  0  0  0  0  0  0
    9.6960    2.3661   22.0083 Cl  0  0  0  0  0  0  0  0  0  0  0  0
   10.0476    5.1372   22.2909 H   0  0  0  0  0  0  0  0  0  0  0  0
    9.3135    6.7442   24.0323 H   0  0  0  0  0  0  0  0  0  0  0  0
    8.2439    5.9024   26.1288 H   0  0  0  0  0  0  0  0  0  0  0  0
    7.9811    3.4600   26.4862 H   0  0  0  0  0  0  0  0  0  0  0  0
    9.2856    0.8425   24.2718 H   0  0  0  0  0  0  0  0  0  0  0  0
    8.5336    1.1898   25.8144 H   0  0  0  0  0  0  0  0  0  0  0  0
    7.0269    1.1593   23.1228 H   0  0  0  0  0  0  0  0  0  0  0  0
    6.3251    1.4977   24.7084 H   0  0  0  0  0  0  0  0  0  0  0  0
    7.5680   -2.7216   23.4179 H   0  0  0  0  0  0  0  0  0  0  0  0
    8.6388   -1.3470   23.0762 H   0  0  0  0  0  0  0  0  0  0  0  0
    7.4499   -0.6310   20.9285 N   0  0  0  0  0  0  0  0  0  0  0  0
    6.7242    0.0116   19.8712 C   0  0  0  0  0  0  0  0  0  0  0  0
    5.4792    0.6154   20.1061 C   0  0  0  0  0  0  0  0  0  0  0  0
    4.8375    1.2742   19.0493 C   0  0  0  0  0  0  0  0  0  0  0  0
    5.4557    1.2895   17.7949 C   0  0  0  0  0  0  0  0  0  0  0  0
    6.6413    0.7072   17.5485 N   0  0  0  0  0  0  0  0  0  0  0  0
    7.2592    0.0955   18.5676 C   0  0  0  0  0  0  0  0  0  0  0  0
    8.2157   -0.3825   18.3542 H   0  0  0  0  0  0  0  0  0  0  0  0
    4.9846    1.7875   16.9516 H   0  0  0  0  0  0  0  0  0  0  0  0
    3.8894    1.7855   19.1895 H   0  0  0  0  0  0  0  0  0  0  0  0
    5.0402    0.5657   21.1036 H   0  0  0  0  0  0  0  0  0  0  0  0
    8.2920   -0.1724   21.2393 H   0  0  0  0  0  0  0  0  0  0  0  0
  1  2  2  0
  2  3  1  0
  3  4  1  0
  4  5  1  0
  5  6  1  0
  6  7  1  0
  7  8  2  0
  8  9  1  0
  9 10  2  0
 10 11  1  0
 11 12  2  0
 12 13  1  0
 11 14  1  0
 10 15  1  0
  9 16  1  0
  8 17  1  0
  6 18  1  0
  6 19  1  0
  5 20  1  0
  5 21  1  0
  3 22  1  0
  3 23  1  0
  2 24  1  0
 24 25  1  0
 25 26  2  0
 26 27  1  0
 27 28  2  0
 28 29  1  0
 29 30  2  0
 30 31  1  0
 28 32  1  0
 27 33  1  0
 26 34  1  0
 24 35  1  0
 12  7  1  0
 30 25  1  0
M  END
>  <cnnaffinity>  (1) 
-5.00248

>  <filename>  (1) 
O=C(CSCCc1ccccc1Cl)Nc1cccnc1

$$$$
