
     RDKit          3D

 27 28  0  0  0  0  0  0  0  0999 V2000
    5.3207    1.7395   16.8586 H   0  0  0  0  0  0  0  0  0  0  0  0
    5.6879    1.2525   17.7608 C   0  0  0  0  0  0  0  0  0  0  0  0
    6.8278    0.5571   17.6351 N   0  0  0  0  0  0  0  0  0  0  0  0
    7.3019   -0.0401   18.7313 C   0  0  0  0  0  0  0  0  0  0  0  0
    8.2310   -0.5932   18.5919 H   0  0  0  0  0  0  0  0  0  0  0  0
    6.6711   -0.0000   19.9800 C   0  0  0  0  0  0  0  0  0  0  0  0
    7.2817   -0.7464   21.1177 C   0  0  0  0  0  0  0  0  0  0  0  0
    6.6384   -1.2907   21.9780 O   0  0  0  0  0  0  0  0  0  0  0  0
    8.6688   -0.7248   21.0690 N   0  0  0  0  0  0  0  0  0  0  0  0
    9.0764    0.0572   20.5954 H   0  0  0  0  0  0  0  0  0  0  0  0
    9.4718   -1.4257   21.9457 C   0  0  0  0  0  0  0  0  0  0  0  0
    9.0756   -2.3738   22.5782 O   0  0  0  0  0  0  0  0  0  0  0  0
   10.9159   -0.9700   21.9830 C   0  0  0  0  0  0  0  0  0  0  0  0
   11.9261   -1.9519   22.0177 C   0  0  0  0  0  0  0  0  0  0  0  0
   11.6280   -2.9913   22.1330 H   0  0  0  0  0  0  0  0  0  0  0  0
   13.2773   -1.6131   21.9846 C   0  0  0  0  0  0  0  0  0  0  0  0
   14.0162   -2.4069   21.9063 H   0  0  0  0  0  0  0  0  0  0  0  0
   13.6578   -0.2677   22.0432 C   0  0  0  0  0  0  0  0  0  0  0  0
   14.7036    0.0235   22.0046 H   0  0  0  0  0  0  0  0  0  0  0  0
   12.6743    0.7270   22.0963 C   0  0  0  0  0  0  0  0  0  0  0  0
   12.9469    1.7764   22.1336 H   0  0  0  0  0  0  0  0  0  0  0  0
   11.3219    0.3770   22.0507 C   0  0  0  0  0  0  0  0  0  0  0  0
   10.1742    1.6976   22.0973 Cl  0  0  0  0  0  0  0  0  0  0  0  0
    5.4712    0.7215   20.1001 C   0  0  0  0  0  0  0  0  0  0  0  0
    4.9456    0.7817   21.0574 H   0  0  0  0  0  0  0  0  0  0  0  0
    4.9850    1.3693   18.9659 C   0  0  0  0  0  0  0  0  0  0  0  0
    4.0769    1.9635   19.0003 H   0  0  0  0  0  0  0  0  0  0  0  0
  1  2  1  0
  2  3  2  0
  3  4  1  0
  4  5  1  0
  4  6  2  0
  6  7  1  0
  7  8  2  0
  7  9  1  0
  9 10  1  0
  9 11  1  0
 11 12  2  0
 11 13  1  0
 13 14  2  0
 14 15  1  0
 14 16  1  0
 16 17  1  0
 16 18  2  0
 18 19  1  0
 18 20  1  0
 20 21  1  0
 20 22  2  0
 22 23  1  0
  6 24  1  0
 24 25  1  0
 24 26  2  0
 26 27  1  0
 26  2  1  0
 22 13  1  0
M  END
>  <cnnaffinity>  (1) 
-5.21942

>  <filename>  (1) 
O=C(NC(=O)c1ccccc1Cl)c1cccnc1

$$$$
