
     RDKit          3D

 39 40  0  0  0  0  0  0  0  0999 V2000
    6.6811    0.9749   22.5517 O   0  0  0  0  0  0  0  0  0  0  0  0
    7.2025   -0.0430   22.1633 C   0  0  0  0  0  0  0  0  0  0  0  0
    7.9448   -0.9116   22.9637 N   0  0  0  0  0  0  0  0  0  0  0  0
    7.8925   -0.7286   24.4341 C   0  0  0  0  0  0  0  0  0  0  0  0
    8.5207   -1.8766   25.2385 C   0  0  0  0  0  0  0  0  0  0  0  0
    9.7054   -2.0991   25.2902 O   0  0  0  0  0  0  0  0  0  0  0  0
    7.5732   -2.5910   25.8657 O   0  0  0  0  0  0  0  0  0  0  0  0
    7.9490   -3.7539   26.6345 C   0  0  0  0  0  0  0  0  0  0  0  0
    8.6944   -4.8130   25.7923 C   0  0  0  0  0  0  0  0  0  0  0  0
    8.5382   -6.2408   26.3768 C   0  0  0  0  0  0  0  0  0  0  0  0
    8.1984   -6.2013   27.8766 C   0  0  0  0  0  0  0  0  0  0  0  0
    6.8426   -5.5065   28.1264 C   0  0  0  0  0  0  0  0  0  0  0  0
    6.6350   -4.3079   27.1735 C   0  0  0  0  0  0  0  0  0  0  0  0
    6.0677   -3.5006   27.6447 H   0  0  0  0  0  0  0  0  0  0  0  0
    6.0558   -4.6329   26.2998 H   0  0  0  0  0  0  0  0  0  0  0  0
    6.7839   -5.1733   29.1688 H   0  0  0  0  0  0  0  0  0  0  0  0
    6.0154   -6.2143   27.9828 H   0  0  0  0  0  0  0  0  0  0  0  0
    8.1872   -7.2058   28.3103 H   0  0  0  0  0  0  0  0  0  0  0  0
    8.9917   -5.6362   28.3885 H   0  0  0  0  0  0  0  0  0  0  0  0
    9.4398   -6.8387   26.2075 H   0  0  0  0  0  0  0  0  0  0  0  0
    7.7349   -6.7594   25.8391 H   0  0  0  0  0  0  0  0  0  0  0  0
    8.3119   -4.7874   24.7667 H   0  0  0  0  0  0  0  0  0  0  0  0
    9.7450   -4.5227   25.7332 H   0  0  0  0  0  0  0  0  0  0  0  0
    8.6024   -3.4395   27.4595 H   0  0  0  0  0  0  0  0  0  0  0  0
    8.4752    0.1649   24.6799 H   0  0  0  0  0  0  0  0  0  0  0  0
    6.8642   -0.5688   24.7865 H   0  0  0  0  0  0  0  0  0  0  0  0
    7.7843   -1.8536   22.6295 H   0  0  0  0  0  0  0  0  0  0  0  0
    7.1874   -0.5565   20.8682 N   0  0  0  0  0  0  0  0  0  0  0  0
    6.5754    0.0647   19.7535 C   0  0  0  0  0  0  0  0  0  0  0  0
    5.3753    0.7664   19.9267 C   0  0  0  0  0  0  0  0  0  0  0  0
    4.7967    1.3878   18.8171 C   0  0  0  0  0  0  0  0  0  0  0  0
    5.4284    1.2893   17.5721 C   0  0  0  0  0  0  0  0  0  0  0  0
    6.5636    0.5957   17.3809 N   0  0  0  0  0  0  0  0  0  0  0  0
    7.1146   -0.0030   18.4460 C   0  0  0  0  0  0  0  0  0  0  0  0
    8.0367   -0.5539   18.2597 H   0  0  0  0  0  0  0  0  0  0  0  0
    5.0040    1.7830   16.6996 H   0  0  0  0  0  0  0  0  0  0  0  0
    3.8901    1.9761   18.9242 H   0  0  0  0  0  0  0  0  0  0  0  0
    4.9467    0.8353   20.9235 H   0  0  0  0  0  0  0  0  0  0  0  0
    8.0414   -1.0695   20.7025 H   0  0  0  0  0  0  0  0  0  0  0  0
  1  2  2  0
  2  3  1  0
  3  4  1  0
  4  5  1  0
  5  6  2  0
  5  7  1  0
  7  8  1  0
  8  9  1  0
  9 10  1  0
 10 11  1  0
 11 12  1  0
 12 13  1  0
 13 14  1  0
 13 15  1  0
 12 16  1  0
 12 17  1  0
 11 18  1  0
 11 19  1  0
 10 20  1  0
 10 21  1  0
  9 22  1  0
  9 23  1  0
  8 24  1  0
  4 25  1  0
  4 26  1  0
  3 27  1  0
  2 28  1  0
 28 29  1  0
 29 30  2  0
 30 31  1  0
 31 32  2  0
 32 33  1  0
 33 34  2  0
 34 35  1  0
 32 36  1  0
 31 37  1  0
 30 38  1  0
 28 39  1  0
 13  8  1  0
 34 29  1  0
M  END
>  <cnnaffinity>  (1) 
-4.25249

>  <filename>  (1) 
O=C(NCC(=O)OC1CCCCC1)Nc1cccnc1

$$$$
