
     RDKit          3D

 35 37  0  0  0  0  0  0  0  0999 V2000
    4.9288    1.7742   17.0115 H   0  0  0  0  0  0  0  0  0  0  0  0
    5.4124    1.2799   17.8560 C   0  0  0  0  0  0  0  0  0  0  0  0
    6.5770    0.6627   17.6036 N   0  0  0  0  0  0  0  0  0  0  0  0
    7.1923    0.0420   18.6220 C   0  0  0  0  0  0  0  0  0  0  0  0
    8.1369   -0.4323   18.3674 H   0  0  0  0  0  0  0  0  0  0  0  0
    6.7001   -0.0308   19.9632 C   0  0  0  0  0  0  0  0  0  0  0  0
    7.3698   -0.6999   20.9725 N   0  0  0  0  0  0  0  0  0  0  0  0
    8.6334   -1.4238   20.9960 C   0  0  0  0  0  0  0  0  0  0  0  0
    9.5184   -0.8077   20.7719 H   0  0  0  0  0  0  0  0  0  0  0  0
    8.6509   -2.3188   20.3729 H   0  0  0  0  0  0  0  0  0  0  0  0
    8.3836   -1.7167   22.5063 C   0  0  0  0  0  0  0  0  0  0  0  0
    9.1229   -1.2602   23.1620 H   0  0  0  0  0  0  0  0  0  0  0  0
    8.1850   -3.1772   22.8404 C   0  0  0  0  0  0  0  0  0  0  0  0
    7.4376   -3.8526   22.1661 O   0  0  0  0  0  0  0  0  0  0  0  0
    8.9005   -3.7994   24.0353 C   0  0  0  0  0  0  0  0  0  0  0  0
    9.2423   -4.7945   23.7354 H   0  0  0  0  0  0  0  0  0  0  0  0
    9.7895   -3.2225   24.3120 H   0  0  0  0  0  0  0  0  0  0  0  0
    7.9487   -3.9053   25.2090 C   0  0  0  0  0  0  0  0  0  0  0  0
    7.7522   -2.8086   26.0521 C   0  0  0  0  0  0  0  0  0  0  0  0
    8.3171   -1.8979   25.8772 H   0  0  0  0  0  0  0  0  0  0  0  0
    6.8463   -2.8690   27.1088 C   0  0  0  0  0  0  0  0  0  0  0  0
    6.6997   -2.0188   27.7672 H   0  0  0  0  0  0  0  0  0  0  0  0
    6.1127   -4.0397   27.3359 C   0  0  0  0  0  0  0  0  0  0  0  0
    5.0071   -4.0765   28.6684 Cl  0  0  0  0  0  0  0  0  0  0  0  0
    6.2842   -5.1433   26.4832 C   0  0  0  0  0  0  0  0  0  0  0  0
    5.3945   -6.6134   26.7060 Cl  0  0  0  0  0  0  0  0  0  0  0  0
    7.1960   -5.0632   25.4223 C   0  0  0  0  0  0  0  0  0  0  0  0
    7.3049   -5.9210   24.7656 H   0  0  0  0  0  0  0  0  0  0  0  0
    7.0591   -0.8964   22.3827 C   0  0  0  0  0  0  0  0  0  0  0  0
    6.1449   -1.4759   22.5650 H   0  0  0  0  0  0  0  0  0  0  0  0
    7.0390    0.0343   22.9712 H   0  0  0  0  0  0  0  0  0  0  0  0
    5.4667    0.6276   20.1913 C   0  0  0  0  0  0  0  0  0  0  0  0
    5.0200    0.6224   21.1856 H   0  0  0  0  0  0  0  0  0  0  0  0
    4.8347    1.2869   19.1291 C   0  0  0  0  0  0  0  0  0  0  0  0
    3.9040    1.8189   19.2741 H   0  0  0  0  0  0  0  0  0  0  0  0
  1  2  1  0
  2  3  2  0
  3  4  1  0
  4  5  1  0
  4  6  2  0
  6  7  1  0
  7  8  1  0
  8  9  1  0
  8 10  1  0
  8 11  1  0
 11 12  1  0
 11 13  1  0
 13 14  2  0
 13 15  1  0
 15 16  1  0
 15 17  1  0
 15 18  1  0
 18 19  2  0
 19 20  1  0
 19 21  1  0
 21 22  1  0
 21 23  2  0
 23 24  1  0
 23 25  1  0
 25 26  1  0
 25 27  2  0
 27 28  1  0
 11 29  1  0
 29 30  1  0
 29 31  1  0
  6 32  1  0
 32 33  1  0
 32 34  2  0
 34 35  1  0
 34  2  1  0
 29  7  1  0
 27 18  1  0
M  END
>  <cnnaffinity>  (1) 
-5.47242

>  <filename>  (1) 
O=C(Cc1ccc(Cl)c(Cl)c1)C1CN(c2cccnc2)C1

$$$$
