
     RDKit          3D

 31 32  0  0  0  0  0  0  0  0999 V2000
    9.4380   -1.8330   23.3708 H   0  0  0  0  0  0  0  0  0  0  0  0
    8.6921   -1.2134   23.2395 O   0  0  0  0  0  0  0  0  0  0  0  0
    7.6177   -2.0594   22.8509 N   0  0  0  0  0  0  0  0  0  0  0  0
    6.8024   -1.6886   21.7331 C   0  0  0  0  0  0  0  0  0  0  0  0
    5.7292   -2.2164   21.5031 O   0  0  0  0  0  0  0  0  0  0  0  0
    7.3748   -0.7371   20.9230 N   0  0  0  0  0  0  0  0  0  0  0  0
    8.2652   -0.3920   21.2549 H   0  0  0  0  0  0  0  0  0  0  0  0
    6.6775   -0.0344   19.8965 C   0  0  0  0  0  0  0  0  0  0  0  0
    7.2177    0.0528   18.5963 C   0  0  0  0  0  0  0  0  0  0  0  0
    8.1702   -0.4339   18.3927 H   0  0  0  0  0  0  0  0  0  0  0  0
    6.6273    0.6904   17.5773 N   0  0  0  0  0  0  0  0  0  0  0  0
    5.4526    1.2945   17.8254 C   0  0  0  0  0  0  0  0  0  0  0  0
    4.9812    1.7921   16.9794 H   0  0  0  0  0  0  0  0  0  0  0  0
    4.8411    1.2875   19.0834 C   0  0  0  0  0  0  0  0  0  0  0  0
    3.9000    1.8073   19.2197 H   0  0  0  0  0  0  0  0  0  0  0  0
    5.4545    0.6023   20.1417 C   0  0  0  0  0  0  0  0  0  0  0  0
    5.0167    0.5693   21.1396 H   0  0  0  0  0  0  0  0  0  0  0  0
    7.1416   -2.8984   23.8971 C   0  0  0  0  0  0  0  0  0  0  0  0
    7.2191   -2.5968   25.1987 C   0  0  0  0  0  0  0  0  0  0  0  0
    7.5875   -1.6287   25.5257 H   0  0  0  0  0  0  0  0  0  0  0  0
    6.7418   -3.5728   26.2587 C   0  0  0  0  0  0  0  0  0  0  0  0
    7.4160   -3.5474   27.1241 H   0  0  0  0  0  0  0  0  0  0  0  0
    5.7665   -3.2395   26.6422 H   0  0  0  0  0  0  0  0  0  0  0  0
    6.6165   -4.9570   25.7928 N   0  0  0  0  0  0  0  0  0  0  0  0
    7.5603   -5.3086   25.6439 H   0  0  0  0  0  0  0  0  0  0  0  0
    5.9268   -5.0233   24.5032 C   0  0  0  0  0  0  0  0  0  0  0  0
    4.9129   -4.6212   24.6278 H   0  0  0  0  0  0  0  0  0  0  0  0
    5.8156   -6.0668   24.1856 H   0  0  0  0  0  0  0  0  0  0  0  0
    6.6385   -4.2357   23.4026 C   0  0  0  0  0  0  0  0  0  0  0  0
    5.9605   -4.0839   22.5657 H   0  0  0  0  0  0  0  0  0  0  0  0
    7.5110   -4.7858   23.0266 H   0  0  0  0  0  0  0  0  0  0  0  0
  1  2  1  0
  2  3  1  0
  3  4  1  0
  4  5  2  0
  4  6  1  0
  6  7  1  0
  6  8  1  0
  8  9  2  0
  9 10  1  0
  9 11  1  0
 11 12  2  0
 12 13  1  0
 12 14  1  0
 14 15  1  0
 14 16  2  0
 16 17  1  0
  3 18  1  0
 18 19  2  0
 19 20  1  0
 19 21  1  0
 21 22  1  0
 21 23  1  0
 21 24  1  0
 24 25  1  0
 24 26  1  0
 26 27  1  0
 26 28  1  0
 26 29  1  0
 29 30  1  0
 29 31  1  0
 16  8  1  0
 29 18  1  0
M  END
>  <cnnaffinity>  (1) 
-4.39095

>  <filename>  (1) 
O=C(Nc1cccnc1)N(O)C1=CCNCC1

$$$$
