
     RDKit          3D

 41 43  0  0  0  0  0  0  0  0999 V2000
    7.4262   -2.1833   20.7978 O   0  0  0  0  0  0  0  0  0  0  0  0
    7.1132   -1.0368   21.0965 C   0  0  0  0  0  0  0  0  0  0  0  0
    6.6277   -0.1460   20.0457 C   0  0  0  0  0  0  0  0  0  0  0  0
    5.5190    0.6925   20.2330 C   0  0  0  0  0  0  0  0  0  0  0  0
    5.0249    1.3733   19.1231 C   0  0  0  0  0  0  0  0  0  0  0  0
    5.6536    1.2255   17.8837 C   0  0  0  0  0  0  0  0  0  0  0  0
    6.7644    0.4820   17.7355 N   0  0  0  0  0  0  0  0  0  0  0  0
    7.2484   -0.1817   18.7980 C   0  0  0  0  0  0  0  0  0  0  0  0
    8.1527   -0.7668   18.6556 H   0  0  0  0  0  0  0  0  0  0  0  0
    5.2235    1.7137   17.0120 H   0  0  0  0  0  0  0  0  0  0  0  0
    4.1462    2.0037   19.1997 H   0  0  0  0  0  0  0  0  0  0  0  0
    5.0224    0.7866   21.2002 H   0  0  0  0  0  0  0  0  0  0  0  0
    7.1098   -0.6354   22.4280 N   0  0  0  0  0  0  0  0  0  0  0  0
    7.1411    0.7916   22.7141 C   0  0  0  0  0  0  0  0  0  0  0  0
    8.4408    1.1001   23.4076 C   0  0  0  0  0  0  0  0  0  0  0  0
    8.4856    1.1942   24.8041 C   0  0  0  0  0  0  0  0  0  0  0  0
    9.7010    1.4045   25.4567 C   0  0  0  0  0  0  0  0  0  0  0  0
   10.8773    1.5481   24.7186 C   0  0  0  0  0  0  0  0  0  0  0  0
   10.8418    1.4542   23.3257 C   0  0  0  0  0  0  0  0  0  0  0  0
    9.6314    1.2049   22.6694 C   0  0  0  0  0  0  0  0  0  0  0  0
    9.6168    0.9299   20.7801 Br  0  0  0  0  0  0  0  0  0  0  0  0
   11.7611    1.5466   22.7547 H   0  0  0  0  0  0  0  0  0  0  0  0
   11.8196    1.7045   25.2307 H   0  0  0  0  0  0  0  0  0  0  0  0
    9.7296    1.4374   26.5376 H   0  0  0  0  0  0  0  0  0  0  0  0
    7.5782    1.0707   25.3875 H   0  0  0  0  0  0  0  0  0  0  0  0
    7.0918    1.3654   21.7835 H   0  0  0  0  0  0  0  0  0  0  0  0
    6.2783    1.0803   23.3238 H   0  0  0  0  0  0  0  0  0  0  0  0
    7.3132   -1.5679   23.5520 C   0  0  0  0  0  0  0  0  0  0  0  0
    6.2883   -2.7028   23.4878 C   0  0  0  0  0  0  0  0  0  0  0  0
    7.0449   -4.0205   23.5144 C   0  0  0  0  0  0  0  0  0  0  0  0
    8.4959   -3.6934   23.1765 C   0  0  0  0  0  0  0  0  0  0  0  0
    8.7041   -2.2190   23.5293 C   0  0  0  0  0  0  0  0  0  0  0  0
    9.1601   -2.1426   24.5268 H   0  0  0  0  0  0  0  0  0  0  0  0
    9.3664   -1.7334   22.7994 H   0  0  0  0  0  0  0  0  0  0  0  0
    9.1696   -4.3429   23.7502 H   0  0  0  0  0  0  0  0  0  0  0  0
    8.6725   -3.8360   22.1022 H   0  0  0  0  0  0  0  0  0  0  0  0
    6.9816   -4.4580   24.5199 H   0  0  0  0  0  0  0  0  0  0  0  0
    6.6079   -4.7196   22.7914 H   0  0  0  0  0  0  0  0  0  0  0  0
    5.6992   -2.6297   22.5701 H   0  0  0  0  0  0  0  0  0  0  0  0
    5.5958   -2.6599   24.3319 H   0  0  0  0  0  0  0  0  0  0  0  0
    7.1849   -1.0327   24.5060 H   0  0  0  0  0  0  0  0  0  0  0  0
  1  2  2  0
  2  3  1  0
  3  4  2  0
  4  5  1  0
  5  6  2  0
  6  7  1  0
  7  8  2  0
  8  9  1  0
  6 10  1  0
  5 11  1  0
  4 12  1  0
  2 13  1  0
 13 14  1  0
 14 15  1  0
 15 16  2  0
 16 17  1  0
 17 18  2  0
 18 19  1  0
 19 20  2  0
 20 21  1  0
 19 22  1  0
 18 23  1  0
 17 24  1  0
 16 25  1  0
 14 26  1  0
 14 27  1  0
 13 28  1  0
 28 29  1  0
 29 30  1  0
 30 31  1  0
 31 32  1  0
 32 33  1  0
 32 34  1  0
 31 35  1  0
 31 36  1  0
 30 37  1  0
 30 38  1  0
 29 39  1  0
 29 40  1  0
 28 41  1  0
  8  3  1  0
 20 15  1  0
 32 28  1  0
M  END
>  <cnnaffinity>  (1) 
-5.67414

>  <filename>  (1) 
O=C(c1cccnc1)N(Cc1ccccc1Br)C1CCCC1

$$$$
