
     RDKit          3D

 32 34  0  0  0  0  0  0  0  0999 V2000
    5.0086    1.8321   16.9750 H   0  0  0  0  0  0  0  0  0  0  0  0
    5.4661    1.3164   17.8152 C   0  0  0  0  0  0  0  0  0  0  0  0
    6.6325    0.7009   17.5606 N   0  0  0  0  0  0  0  0  0  0  0  0
    7.2093    0.0448   18.5783 C   0  0  0  0  0  0  0  0  0  0  0  0
    8.1459   -0.4750   18.3603 H   0  0  0  0  0  0  0  0  0  0  0  0
    6.6804   -0.0191   19.8798 C   0  0  0  0  0  0  0  0  0  0  0  0
    7.3348   -0.8015   20.9969 C   0  0  0  0  0  0  0  0  0  0  0  0
    6.7587   -2.2296   21.1723 C   0  0  0  0  0  0  0  0  0  0  0  0
    5.9672   -2.6852   20.3659 O   0  0  0  0  0  0  0  0  0  0  0  0
    7.1268   -2.9576   22.2769 N   0  0  0  0  0  0  0  0  0  0  0  0
    8.0204   -2.7505   22.7016 H   0  0  0  0  0  0  0  0  0  0  0  0
    6.6973   -4.3463   22.3928 C   0  0  0  0  0  0  0  0  0  0  0  0
    5.6230   -4.3711   22.6006 H   0  0  0  0  0  0  0  0  0  0  0  0
    6.8538   -4.9021   21.4546 H   0  0  0  0  0  0  0  0  0  0  0  0
    7.4254   -4.9735   23.4667 N   0  0  0  0  0  0  0  0  0  0  0  0
    7.3156   -4.6338   24.7864 C   0  0  0  0  0  0  0  0  0  0  0  0
    6.5319   -3.9808   25.1544 H   0  0  0  0  0  0  0  0  0  0  0  0
    8.2395   -5.1986   25.5179 N   0  0  0  0  0  0  0  0  0  0  0  0
    8.9918   -5.9508   24.6467 C   0  0  0  0  0  0  0  0  0  0  0  0
    9.8517   -6.5150   24.9781 H   0  0  0  0  0  0  0  0  0  0  0  0
    8.5010   -5.8388   23.3799 C   0  0  0  0  0  0  0  0  0  0  0  0
    8.8125   -6.2903   22.4510 H   0  0  0  0  0  0  0  0  0  0  0  0
    7.7276    0.0031   22.2309 C   0  0  0  0  0  0  0  0  0  0  0  0
    7.4675    1.0626   22.2482 H   0  0  0  0  0  0  0  0  0  0  0  0
    7.6662   -0.4789   23.2044 H   0  0  0  0  0  0  0  0  0  0  0  0
    8.7889   -0.4373   21.2754 C   0  0  0  0  0  0  0  0  0  0  0  0
    9.2249    0.3468   20.6519 H   0  0  0  0  0  0  0  0  0  0  0  0
    9.5017   -1.2047   21.5677 H   0  0  0  0  0  0  0  0  0  0  0  0
    5.4559    0.6192   20.1110 C   0  0  0  0  0  0  0  0  0  0  0  0
    5.0271    0.5750   21.1124 H   0  0  0  0  0  0  0  0  0  0  0  0
    4.8353    1.2988   19.0639 C   0  0  0  0  0  0  0  0  0  0  0  0
    3.8866    1.8035   19.2033 H   0  0  0  0  0  0  0  0  0  0  0  0
  1  2  1  0
  2  3  2  0
  3  4  1  0
  4  5  1  0
  4  6  2  0
  6  7  1  0
  7  8  1  0
  8  9  2  0
  8 10  1  0
 10 11  1  0
 10 12  1  0
 12 13  1  0
 12 14  1  0
 12 15  1  0
 15 16  1  0
 16 17  1  0
 16 18  2  0
 18 19  1  0
 19 20  1  0
 19 21  2  0
 21 22  1  0
  7 23  1  0
 23 24  1  0
 23 25  1  0
 23 26  1  0
 26 27  1  0
 26 28  1  0
  6 29  1  0
 29 30  1  0
 29 31  2  0
 31 32  1  0
 31  2  1  0
 26  7  1  0
 21 15  1  0
M  END
>  <cnnaffinity>  (1) 
-4.68973

>  <filename>  (1) 
O=C(NCn1ccnc1)C1(c2cccnc2)CC1

$$$$
