
     RDKit          3D

 36 38  0  0  0  0  0  0  0  0999 V2000
    7.7182   -4.2566   24.3102 O   0  0  0  0  0  0  0  0  0  0  0  0
    6.6800   -3.6646   24.5775 C   0  0  0  0  0  0  0  0  0  0  0  0
    5.7786   -4.1961   25.7050 C   0  0  0  0  0  0  0  0  0  0  0  0
    4.6139   -5.0442   25.2177 C   0  0  0  0  0  0  0  0  0  0  0  0
    3.3990   -4.4289   24.9150 C   0  0  0  0  0  0  0  0  0  0  0  0
    2.3618   -5.2084   24.4012 C   0  0  0  0  0  0  0  0  0  0  0  0
    0.6994   -4.4012   23.9171 Br  0  0  0  0  0  0  0  0  0  0  0  0
    2.5607   -6.5848   24.2259 C   0  0  0  0  0  0  0  0  0  0  0  0
    3.7125   -7.1954   24.5578 N   0  0  0  0  0  0  0  0  0  0  0  0
    4.7153   -6.4429   25.0499 C   0  0  0  0  0  0  0  0  0  0  0  0
    5.6460   -6.9377   25.3106 H   0  0  0  0  0  0  0  0  0  0  0  0
    1.7570   -7.1825   23.8002 H   0  0  0  0  0  0  0  0  0  0  0  0
    3.2685   -3.3588   25.0674 H   0  0  0  0  0  0  0  0  0  0  0  0
    5.3826   -3.3438   26.2660 H   0  0  0  0  0  0  0  0  0  0  0  0
    6.3870   -4.7868   26.3989 H   0  0  0  0  0  0  0  0  0  0  0  0
    6.3852   -2.5005   23.9097 N   0  0  0  0  0  0  0  0  0  0  0  0
    7.2042   -1.9969   22.9532 C   0  0  0  0  0  0  0  0  0  0  0  0
    8.5873   -2.0924   23.0597 C   0  0  0  0  0  0  0  0  0  0  0  0
    9.3824   -1.4640   22.1050 C   0  0  0  0  0  0  0  0  0  0  0  0
    8.7109   -0.8037   21.0714 C   0  0  0  0  0  0  0  0  0  0  0  0
    7.3091   -0.7627   21.0354 C   0  0  0  0  0  0  0  0  0  0  0  0
    6.6270   -0.0371   19.9665 C   0  0  0  0  0  0  0  0  0  0  0  0
    5.4112    0.6206   20.1871 C   0  0  0  0  0  0  0  0  0  0  0  0
    4.8221    1.2812   19.1149 C   0  0  0  0  0  0  0  0  0  0  0  0
    5.4432    1.2706   17.8652 C   0  0  0  0  0  0  0  0  0  0  0  0
    6.6146    0.6476   17.6513 N   0  0  0  0  0  0  0  0  0  0  0  0
    7.1949    0.0183   18.6868 C   0  0  0  0  0  0  0  0  0  0  0  0
    8.1468   -0.4684   18.5000 H   0  0  0  0  0  0  0  0  0  0  0  0
    4.9560    1.7885   17.0451 H   0  0  0  0  0  0  0  0  0  0  0  0
    3.8905    1.8205   19.2337 H   0  0  0  0  0  0  0  0  0  0  0  0
    4.9401    0.6425   21.1701 H   0  0  0  0  0  0  0  0  0  0  0  0
    6.5739   -1.3577   21.9807 N   0  0  0  0  0  0  0  0  0  0  0  0
    9.2526   -0.2848   20.2932 H   0  0  0  0  0  0  0  0  0  0  0  0
   10.4717   -1.4624   22.1701 H   0  0  0  0  0  0  0  0  0  0  0  0
    8.9983   -2.6178   23.9148 H   0  0  0  0  0  0  0  0  0  0  0  0
    5.4435   -2.1293   23.9192 H   0  0  0  0  0  0  0  0  0  0  0  0
  1  2  2  0
  2  3  1  0
  3  4  1  0
  4  5  2  0
  5  6  1  0
  6  7  1  0
  6  8  2  0
  8  9  1  0
  9 10  2  0
 10 11  1  0
  8 12  1  0
  5 13  1  0
  3 14  1  0
  3 15  1  0
  2 16  1  0
 16 17  1  0
 17 18  2  0
 18 19  1  0
 19 20  2  0
 20 21  1  0
 21 22  1  0
 22 23  2  0
 23 24  1  0
 24 25  2  0
 25 26  1  0
 26 27  2  0
 27 28  1  0
 25 29  1  0
 24 30  1  0
 23 31  1  0
 21 32  2  0
 20 33  1  0
 19 34  1  0
 18 35  1  0
 16 36  1  0
 10  4  1  0
 32 17  1  0
 27 22  1  0
M  END
>  <cnnaffinity>  (1) 
-5.58288

>  <filename>  (1) 
O=C(Cc1cncc(Br)c1)Nc1cccc(-c2cccnc2)n1

$$$$
