
     RDKit          3D

 30 32  0  0  0  0  0  0  0  0999 V2000
    7.8088    0.9104   22.8601 O   0  0  0  0  0  0  0  0  0  0  0  0
    8.2723    0.4261   21.8523 C   0  0  0  0  0  0  0  0  0  0  0  0
    9.5008    0.7592   21.3361 N   0  0  0  0  0  0  0  0  0  0  0  0
   10.4619    1.5740   21.9723 C   0  0  0  0  0  0  0  0  0  0  0  0
   10.6140    1.4920   23.3705 C   0  0  0  0  0  0  0  0  0  0  0  0
   11.5369    2.2898   24.0386 C   0  0  0  0  0  0  0  0  0  0  0  0
   12.2988    3.2067   23.2877 C   0  0  0  0  0  0  0  0  0  0  0  0
   13.4634    4.4162   23.7670 S   0  0  0  0  0  0  0  0  0  0  0  0
   13.7267    4.7856   22.0867 C   0  0  0  0  0  0  0  0  0  0  0  0
   13.0084    4.1557   21.2261 N   0  0  0  0  0  0  0  0  0  0  0  0
   12.1775    3.2537   21.8771 C   0  0  0  0  0  0  0  0  0  0  0  0
   11.2587    2.4252   21.2207 C   0  0  0  0  0  0  0  0  0  0  0  0
   11.1914    2.5249   20.1464 H   0  0  0  0  0  0  0  0  0  0  0  0
   14.4906    5.5049   21.8081 H   0  0  0  0  0  0  0  0  0  0  0  0
   11.6325    2.1882   25.1201 H   0  0  0  0  0  0  0  0  0  0  0  0
    9.9732    0.8021   23.9039 H   0  0  0  0  0  0  0  0  0  0  0  0
    9.7349    0.4516   20.4116 H   0  0  0  0  0  0  0  0  0  0  0  0
    7.4473   -0.6172   20.9948 C   0  0  0  0  0  0  0  0  0  0  0  0
    6.6271   -1.3010   21.8320 F   0  0  0  0  0  0  0  0  0  0  0  0
    8.3156   -1.5413   20.4622 F   0  0  0  0  0  0  0  0  0  0  0  0
    6.6518   -0.0000   19.8676 C   0  0  0  0  0  0  0  0  0  0  0  0
    5.4399    0.6492   20.1323 C   0  0  0  0  0  0  0  0  0  0  0  0
    4.8004    1.3087   19.0817 C   0  0  0  0  0  0  0  0  0  0  0  0
    5.3972    1.2982   17.8178 C   0  0  0  0  0  0  0  0  0  0  0  0
    6.5439    0.6568   17.5484 N   0  0  0  0  0  0  0  0  0  0  0  0
    7.1499    0.0234   18.5557 C   0  0  0  0  0  0  0  0  0  0  0  0
    8.0782   -0.4838   18.2974 H   0  0  0  0  0  0  0  0  0  0  0  0
    4.9407    1.8291   16.9834 H   0  0  0  0  0  0  0  0  0  0  0  0
    3.8742    1.8529   19.2325 H   0  0  0  0  0  0  0  0  0  0  0  0
    5.0226    0.6415   21.1395 H   0  0  0  0  0  0  0  0  0  0  0  0
  1  2  2  0
  2  3  1  0
  3  4  1  0
  4  5  2  0
  5  6  1  0
  6  7  2  0
  7  8  1  0
  8  9  1  0
  9 10  2  0
 10 11  1  0
 11 12  2  0
 12 13  1  0
  9 14  1  0
  6 15  1  0
  5 16  1  0
  3 17  1  0
  2 18  1  0
 18 19  1  0
 18 20  1  0
 18 21  1  0
 21 22  2  0
 22 23  1  0
 23 24  2  0
 24 25  1  0
 25 26  2  0
 26 27  1  0
 24 28  1  0
 23 29  1  0
 22 30  1  0
 12  4  1  0
 26 21  1  0
 11  7  1  0
M  END
>  <cnnaffinity>  (1) 
-5.39261

>  <filename>  (1) 
O=C(Nc1ccc2scnc2c1)C(F)(F)c1cccnc1

$$$$
