
     RDKit          3D

 40 41  0  0  0  0  0  0  0  0999 V2000
    7.7779   -3.3486   25.1577 O   0  0  0  0  0  0  0  0  0  0  0  0
    7.4423   -3.6915   24.0426 C   0  0  0  0  0  0  0  0  0  0  0  0
    7.0276   -5.1022   23.6753 C   0  0  0  0  0  0  0  0  0  0  0  0
    5.5544   -5.4670   23.9872 C   0  0  0  0  0  0  0  0  0  0  0  0
    5.2256   -5.3483   25.4880 C   0  0  0  0  0  0  0  0  0  0  0  0
    3.7772   -5.7568   25.8017 C   0  0  0  0  0  0  0  0  0  0  0  0
    2.7700   -4.9777   24.9435 C   0  0  0  0  0  0  0  0  0  0  0  0
    3.0887   -5.1333   23.4503 C   0  0  0  0  0  0  0  0  0  0  0  0
    4.5278   -4.6783   23.1458 C   0  0  0  0  0  0  0  0  0  0  0  0
    4.6032   -3.6031   23.3721 H   0  0  0  0  0  0  0  0  0  0  0  0
    4.7368   -4.7941   22.0740 H   0  0  0  0  0  0  0  0  0  0  0  0
    2.9786   -6.1910   23.1713 H   0  0  0  0  0  0  0  0  0  0  0  0
    2.3631   -4.5864   22.8393 H   0  0  0  0  0  0  0  0  0  0  0  0
    2.8158   -3.9116   25.2117 H   0  0  0  0  0  0  0  0  0  0  0  0
    1.7450   -5.3038   25.1591 H   0  0  0  0  0  0  0  0  0  0  0  0
    3.6559   -6.8323   25.6046 H   0  0  0  0  0  0  0  0  0  0  0  0
    3.5667   -5.6134   26.8685 H   0  0  0  0  0  0  0  0  0  0  0  0
    5.9276   -5.9660   26.0626 H   0  0  0  0  0  0  0  0  0  0  0  0
    5.3947   -4.3116   25.8097 H   0  0  0  0  0  0  0  0  0  0  0  0
    5.4490   -6.5282   23.7078 H   0  0  0  0  0  0  0  0  0  0  0  0
    7.2308   -5.2631   22.6112 H   0  0  0  0  0  0  0  0  0  0  0  0
    7.7002   -5.7537   24.2453 H   0  0  0  0  0  0  0  0  0  0  0  0
    7.4358   -2.8296   22.9461 N   0  0  0  0  0  0  0  0  0  0  0  0
    7.6441   -1.4437   23.1510 N   0  0  0  0  0  0  0  0  0  0  0  0
    7.3933   -0.4111   22.2847 C   0  0  0  0  0  0  0  0  0  0  0  0
    7.3004    1.1172   22.9166 S   0  0  0  0  0  0  0  0  0  0  0  0
    7.2597   -0.7727   20.9686 N   0  0  0  0  0  0  0  0  0  0  0  0
    6.6342   -0.0318   19.9220 C   0  0  0  0  0  0  0  0  0  0  0  0
    5.4277    0.6409   20.1480 C   0  0  0  0  0  0  0  0  0  0  0  0
    4.8150    1.3092   19.0841 C   0  0  0  0  0  0  0  0  0  0  0  0
    5.4368    1.2944   17.8322 C   0  0  0  0  0  0  0  0  0  0  0  0
    6.5961    0.6579   17.5978 N   0  0  0  0  0  0  0  0  0  0  0  0
    7.1770    0.0127   18.6188 C   0  0  0  0  0  0  0  0  0  0  0  0
    8.1329   -0.4740   18.4101 H   0  0  0  0  0  0  0  0  0  0  0  0
    4.9813    1.8056   16.9845 H   0  0  0  0  0  0  0  0  0  0  0  0
    3.8830    1.8489   19.2236 H   0  0  0  0  0  0  0  0  0  0  0  0
    5.0158    0.6502   21.1556 H   0  0  0  0  0  0  0  0  0  0  0  0
    7.8489   -1.5474   20.6962 H   0  0  0  0  0  0  0  0  0  0  0  0
    7.6066   -1.1030   24.1113 H   0  0  0  0  0  0  0  0  0  0  0  0
    6.7314   -3.0909   22.2632 H   0  0  0  0  0  0  0  0  0  0  0  0
  1  2  2  0
  2  3  1  0
  3  4  1  0
  4  5  1  0
  5  6  1  0
  6  7  1  0
  7  8  1  0
  8  9  1  0
  9 10  1  0
  9 11  1  0
  8 12  1  0
  8 13  1  0
  7 14  1  0
  7 15  1  0
  6 16  1  0
  6 17  1  0
  5 18  1  0
  5 19  1  0
  4 20  1  0
  3 21  1  0
  3 22  1  0
  2 23  1  0
 23 24  1  0
 24 25  1  0
 25 26  2  0
 25 27  1  0
 27 28  1  0
 28 29  2  0
 29 30  1  0
 30 31  2  0
 31 32  1  0
 32 33  2  0
 33 34  1  0
 31 35  1  0
 30 36  1  0
 29 37  1  0
 27 38  1  0
 24 39  1  0
 23 40  1  0
  9  4  1  0
 33 28  1  0
M  END
>  <cnnaffinity>  (1) 
-4.93529

>  <filename>  (1) 
O=C(CC1CCCCC1)NNC(=S)Nc1cccnc1

$$$$
