
     RDKit          3D

 27 28  0  0  0  0  0  0  0  0999 V2000
    4.9268    1.7766   17.0002 H   0  0  0  0  0  0  0  0  0  0  0  0
    5.4078    1.2870   17.8480 C   0  0  0  0  0  0  0  0  0  0  0  0
    6.5707    0.6658   17.5984 N   0  0  0  0  0  0  0  0  0  0  0  0
    7.1895    0.0732   18.6256 C   0  0  0  0  0  0  0  0  0  0  0  0
    8.1217   -0.4371   18.3950 H   0  0  0  0  0  0  0  0  0  0  0  0
    6.6905    0.0713   19.9318 C   0  0  0  0  0  0  0  0  0  0  0  0
    7.5571   -0.8773   21.1829 S   0  0  0  0  0  4  0  0  0  0  0  0
    6.5040   -1.7060   21.8647 O   0  0  0  0  0  0  0  0  0  0  0  0
    7.9044    0.4630   22.3545 C   0  0  0  0  0  0  0  0  0  0  0  0
    6.9747    0.9144   22.7002 H   0  0  0  0  0  0  0  0  0  0  0  0
    8.5713    1.1887   21.8915 H   0  0  0  0  0  0  0  0  0  0  0  0
    8.6727   -0.1897   23.4846 C   0  0  0  0  0  0  0  0  0  0  0  0
    9.8768   -0.2687   23.3802 O   0  0  0  0  0  0  0  0  0  0  0  0
    7.9609   -0.6955   24.7364 C   0  0  0  0  0  0  0  0  0  0  0  0
    6.5630   -0.7612   24.8718 C   0  0  0  0  0  0  0  0  0  0  0  0
    5.8966   -0.4754   24.0702 H   0  0  0  0  0  0  0  0  0  0  0  0
    5.9983   -1.2614   26.0502 C   0  0  0  0  0  0  0  0  0  0  0  0
    4.9224   -1.3186   26.1452 H   0  0  0  0  0  0  0  0  0  0  0  0
    6.7048   -1.6911   27.1023 N   0  0  0  0  0  0  0  0  0  0  0  0
    8.0384   -1.6204   26.9829 C   0  0  0  0  0  0  0  0  0  0  0  0
    8.6061   -1.9697   27.8344 H   0  0  0  0  0  0  0  0  0  0  0  0
    8.7020   -1.1410   25.8493 C   0  0  0  0  0  0  0  0  0  0  0  0
    9.7839   -1.1220   25.8435 H   0  0  0  0  0  0  0  0  0  0  0  0
    5.4487    0.6657   20.1805 C   0  0  0  0  0  0  0  0  0  0  0  0
    4.9845    0.6172   21.1684 H   0  0  0  0  0  0  0  0  0  0  0  0
    4.8120    1.3057   19.1148 C   0  0  0  0  0  0  0  0  0  0  0  0
    3.8780    1.8355   19.2582 H   0  0  0  0  0  0  0  0  0  0  0  0
  1  2  1  0
  2  3  2  0
  3  4  1  0
  4  5  1  0
  4  6  2  0
  6  7  1  0
  7  8  2  0
  7  9  1  1
  9 10  1  0
  9 11  1  0
  9 12  1  0
 12 13  2  0
 12 14  1  0
 14 15  2  0
 15 16  1  0
 15 17  1  0
 17 18  1  0
 17 19  2  0
 19 20  1  0
 20 21  1  0
 20 22  2  0
 22 23  1  0
  6 24  1  0
 24 25  1  0
 24 26  2  0
 26 27  1  0
 26  2  1  0
 22 14  1  0
M  END
>  <cnnaffinity>  (1) 
-4.45604

>  <filename>  (1) 
O=C(C[S@@](=O)c1cccnc1)c1ccncc1

$$$$
