
     RDKit          3D

 35 36  0  0  0  0  0  0  0  0999 V2000
    5.2051    2.1138   16.9474 H   0  0  0  0  0  0  0  0  0  0  0  0
    5.4322    1.3851   17.7239 C   0  0  0  0  0  0  0  0  0  0  0  0
    6.4104    0.5115   17.4401 N   0  0  0  0  0  0  0  0  0  0  0  0
    6.7467   -0.3675   18.3893 C   0  0  0  0  0  0  0  0  0  0  0  0
    7.5420   -1.0650   18.1277 H   0  0  0  0  0  0  0  0  0  0  0  0
    6.1511   -0.4035   19.6551 C   0  0  0  0  0  0  0  0  0  0  0  0
    6.6587   -1.3574   20.6558 C   0  0  0  0  0  0  0  0  0  0  0  0
    5.7363   -2.5070   21.3718 S   0  0  0  0  0  0  0  0  0  0  0  0
    7.9908   -1.2899   20.9652 N   0  0  0  0  0  0  0  0  0  0  0  0
    8.2707   -1.9557   21.6707 H   0  0  0  0  0  0  0  0  0  0  0  0
    8.8985   -0.2744   20.7024 C   0  0  0  0  0  0  0  0  0  0  0  0
    8.6038    0.7361   20.1037 O   0  0  0  0  0  0  0  0  0  0  0  0
   10.3494   -0.5903   21.1591 C   0  0  0  0  0  0  0  0  0  0  0  0
   10.6292   -1.5158   20.6540 H   0  0  0  0  0  0  0  0  0  0  0  0
   10.9279    0.2354   20.7478 H   0  0  0  0  0  0  0  0  0  0  0  0
   10.6883   -0.7724   22.5857 N   0  0  0  0  0  0  0  0  0  0  0  0
   11.5418   -1.3297   22.6454 H   0  0  0  0  0  0  0  0  0  0  0  0
   10.9598    0.4877   23.2692 C   0  0  0  0  0  0  0  0  0  0  0  0
   10.0001    0.9897   23.4614 H   0  0  0  0  0  0  0  0  0  0  0  0
   11.9203    1.4733   22.5579 C   0  0  0  0  0  0  0  0  0  0  0  0
   12.7821    0.9102   22.1691 H   0  0  0  0  0  0  0  0  0  0  0  0
   11.4656    2.0008   21.7151 H   0  0  0  0  0  0  0  0  0  0  0  0
   12.3957    2.4274   23.6574 C   0  0  0  0  0  0  0  0  0  0  0  0
   11.7514    3.3129   23.7207 H   0  0  0  0  0  0  0  0  0  0  0  0
   13.4159    2.7897   23.4910 H   0  0  0  0  0  0  0  0  0  0  0  0
   12.2899    1.5979   24.9513 C   0  0  0  0  0  0  0  0  0  0  0  0
   13.2636    1.3775   25.3766 H   0  0  0  0  0  0  0  0  0  0  0  0
   11.6496    2.1127   25.6620 H   0  0  0  0  0  0  0  0  0  0  0  0
   11.7055    0.2458   24.5638 C   0  0  0  0  0  0  0  0  0  0  0  0
   11.1303   -0.2636   25.3450 H   0  0  0  0  0  0  0  0  0  0  0  0
   12.5672   -0.3763   24.3140 H   0  0  0  0  0  0  0  0  0  0  0  0
    5.0744    0.4572   19.9157 C   0  0  0  0  0  0  0  0  0  0  0  0
    4.5350    0.4194   20.8652 H   0  0  0  0  0  0  0  0  0  0  0  0
    4.7216    1.3814   18.9294 C   0  0  0  0  0  0  0  0  0  0  0  0
    3.9204    2.0975   19.0858 H   0  0  0  0  0  0  0  0  0  0  0  0
  1  2  1  0
  2  3  2  0
  3  4  1  0
  4  5  1  0
  4  6  2  0
  6  7  1  0
  7  8  2  0
  7  9  1  0
  9 10  1  0
  9 11  1  0
 11 12  2  0
 11 13  1  0
 13 14  1  0
 13 15  1  0
 13 16  1  0
 16 17  1  0
 16 18  1  0
 18 19  1  0
 18 20  1  0
 20 21  1  0
 20 22  1  0
 20 23  1  0
 23 24  1  0
 23 25  1  0
 23 26  1  0
 26 27  1  0
 26 28  1  0
 26 29  1  0
 29 30  1  0
 29 31  1  0
  6 32  1  0
 32 33  1  0
 32 34  2  0
 34 35  1  0
 34  2  1  0
 29 18  1  0
M  END
>  <cnnaffinity>  (1) 
-4.53544

>  <filename>  (1) 
O=C(CNC1CCCC1)NC(=S)c1cccnc1

$$$$
