
     RDKit          3D

 37 39  0  0  0  0  0  0  0  0999 V2000
    4.9472    1.8416   16.5305 H   0  0  0  0  0  0  0  0  0  0  0  0
    5.3991    1.3649   17.3980 C   0  0  0  0  0  0  0  0  0  0  0  0
    6.5421    0.6937   17.1828 N   0  0  0  0  0  0  0  0  0  0  0  0
    7.1335    0.1056   18.2324 C   0  0  0  0  0  0  0  0  0  0  0  0
    8.0537   -0.4354   18.0162 H   0  0  0  0  0  0  0  0  0  0  0  0
    6.6242    0.1696   19.5495 C   0  0  0  0  0  0  0  0  0  0  0  0
    7.2725   -0.4462   20.6614 N   0  0  0  0  0  0  0  0  0  0  0  0
    7.4818   -1.4318   20.6077 H   0  0  0  0  0  0  0  0  0  0  0  0
    7.3058    0.0736   21.9360 C   0  0  0  0  0  0  0  0  0  0  0  0
    7.0133    1.2184   22.2157 O   0  0  0  0  0  0  0  0  0  0  0  0
    7.7992   -0.9086   23.0608 C   0  0  0  0  0  0  0  0  0  0  0  0
    7.8711   -2.1948   22.5744 F   0  0  0  0  0  0  0  0  0  0  0  0
    9.0903   -0.5463   23.3552 F   0  0  0  0  0  0  0  0  0  0  0  0
    6.9473   -0.9002   24.3396 C   0  0  0  0  0  0  0  0  0  0  0  0
    5.9028   -1.0618   24.0636 H   0  0  0  0  0  0  0  0  0  0  0  0
    7.0259    0.0987   24.7791 H   0  0  0  0  0  0  0  0  0  0  0  0
    7.3678   -1.9498   25.3471 C   0  0  0  0  0  0  0  0  0  0  0  0
    8.6154   -1.8020   26.0209 C   0  0  0  0  0  0  0  0  0  0  0  0
    9.2415   -0.9343   25.8192 H   0  0  0  0  0  0  0  0  0  0  0  0
    9.0707   -2.7899   26.8555 C   0  0  0  0  0  0  0  0  0  0  0  0
   10.0012   -2.6588   27.3832 H   0  0  0  0  0  0  0  0  0  0  0  0
    8.3399   -3.9956   27.0553 C   0  0  0  0  0  0  0  0  0  0  0  0
    8.8698   -5.0872   27.8135 C   0  0  0  0  0  0  0  0  0  0  0  0
    9.8904   -5.0212   28.1784 H   0  0  0  0  0  0  0  0  0  0  0  0
    8.1116   -6.2084   28.0580 C   0  0  0  0  0  0  0  0  0  0  0  0
    8.5042   -7.0195   28.6701 H   0  0  0  0  0  0  0  0  0  0  0  0
    6.8036   -6.3096   27.5007 C   0  0  0  0  0  0  0  0  0  0  0  0
    6.2255   -7.2120   27.6814 H   0  0  0  0  0  0  0  0  0  0  0  0
    6.2949   -5.3036   26.7088 C   0  0  0  0  0  0  0  0  0  0  0  0
    5.3026   -5.3869   26.2778 H   0  0  0  0  0  0  0  0  0  0  0  0
    7.0512   -4.1201   26.4515 C   0  0  0  0  0  0  0  0  0  0  0  0
    6.5951   -3.0673   25.5930 C   0  0  0  0  0  0  0  0  0  0  0  0
    5.6163   -3.1745   25.1310 H   0  0  0  0  0  0  0  0  0  0  0  0
    5.4204    0.8490   19.7506 C   0  0  0  0  0  0  0  0  0  0  0  0
    5.0013    0.8910   20.7539 H   0  0  0  0  0  0  0  0  0  0  0  0
    4.7957    1.4523   18.6563 C   0  0  0  0  0  0  0  0  0  0  0  0
    3.8680    1.9994   18.7781 H   0  0  0  0  0  0  0  0  0  0  0  0
  1  2  1  0
  2  3  2  0
  3  4  1  0
  4  5  1  0
  4  6  2  0
  6  7  1  0
  7  8  1  0
  7  9  1  0
  9 10  2  0
  9 11  1  0
 11 12  1  0
 11 13  1  0
 11 14  1  0
 14 15  1  0
 14 16  1  0
 14 17  1  0
 17 18  2  0
 18 19  1  0
 18 20  1  0
 20 21  1  0
 20 22  2  0
 22 23  1  0
 23 24  1  0
 23 25  2  0
 25 26  1  0
 25 27  1  0
 27 28  1  0
 27 29  2  0
 29 30  1  0
 29 31  1  0
 31 32  2  0
 32 33  1  0
  6 34  1  0
 34 35  1  0
 34 36  2  0
 36 37  1  0
 36  2  1  0
 32 17  1  0
 31 22  1  0
M  END
>  <cnnaffinity>  (1) 
-5.0815

>  <filename>  (1) 
O=C(Nc1cccnc1)C(F)(F)Cc1ccc2ccccc2c1

$$$$
