
     RDKit          3D

 34 36  0  0  0  0  0  0  0  0999 V2000
    6.1675   -0.9292   24.7599 O   0  0  0  0  0  0  0  0  0  0  0  0
    7.2603   -1.3188   25.1397 C   0  0  0  0  0  0  0  0  0  0  0  0
    7.5912   -1.4261   26.6176 C   0  0  0  0  0  0  0  0  0  0  0  0
    7.5671   -2.8597   27.0733 C   0  0  0  0  0  0  0  0  0  0  0  0
    8.7596   -3.5942   27.0845 C   0  0  0  0  0  0  0  0  0  0  0  0
    8.7690   -4.9212   27.5386 C   0  0  0  0  0  0  0  0  0  0  0  0
    7.5910   -5.5048   28.0145 C   0  0  0  0  0  0  0  0  0  0  0  0
    7.6099   -7.0822   28.7554 Cl  0  0  0  0  0  0  0  0  0  0  0  0
    6.3959   -4.7867   27.9597 C   0  0  0  0  0  0  0  0  0  0  0  0
    6.3718   -3.4660   27.4959 C   0  0  0  0  0  0  0  0  0  0  0  0
    4.7329   -2.4740   27.5666 Br  0  0  0  0  0  0  0  0  0  0  0  0
    5.4859   -5.2544   28.3181 H   0  0  0  0  0  0  0  0  0  0  0  0
    9.6914   -5.4952   27.5509 H   0  0  0  0  0  0  0  0  0  0  0  0
    9.6804   -3.1092   26.7713 H   0  0  0  0  0  0  0  0  0  0  0  0
    8.5878   -1.0100   26.7983 H   0  0  0  0  0  0  0  0  0  0  0  0
    6.8691   -0.8408   27.1924 H   0  0  0  0  0  0  0  0  0  0  0  0
    8.2455   -1.5931   24.2348 N   0  0  0  0  0  0  0  0  0  0  0  0
    8.0650   -1.4216   22.8970 C   0  0  0  0  0  0  0  0  0  0  0  0
    8.8454   -1.9455   22.0007 N   0  0  0  0  0  0  0  0  0  0  0  0
    8.4099   -1.4938   20.7741 N   0  0  0  0  0  0  0  0  0  0  0  0
    7.3713   -0.7126   20.9627 C   0  0  0  0  0  0  0  0  0  0  0  0
    6.6487    0.0018   19.9135 C   0  0  0  0  0  0  0  0  0  0  0  0
    5.4419    0.6600   20.1620 C   0  0  0  0  0  0  0  0  0  0  0  0
    4.8225    1.3040   19.0945 C   0  0  0  0  0  0  0  0  0  0  0  0
    5.4081    1.2923   17.8253 C   0  0  0  0  0  0  0  0  0  0  0  0
    6.5689    0.6565   17.5835 N   0  0  0  0  0  0  0  0  0  0  0  0
    7.1731    0.0338   18.6130 C   0  0  0  0  0  0  0  0  0  0  0  0
    8.1208   -0.4583   18.4199 H   0  0  0  0  0  0  0  0  0  0  0  0
    4.9052    1.8215   17.0192 H   0  0  0  0  0  0  0  0  0  0  0  0
    3.8857    1.8287   19.2343 H   0  0  0  0  0  0  0  0  0  0  0  0
    4.9866    0.6720   21.1513 H   0  0  0  0  0  0  0  0  0  0  0  0
    7.1021   -0.6717   22.3050 N   0  0  0  0  0  0  0  0  0  0  0  0
    6.4281   -0.0762   22.7760 H   0  0  0  0  0  0  0  0  0  0  0  0
    9.1015   -2.0210   24.5536 H   0  0  0  0  0  0  0  0  0  0  0  0
  1  2  2  0
  2  3  1  0
  3  4  1  0
  4  5  2  0
  5  6  1  0
  6  7  2  0
  7  8  1  0
  7  9  1  0
  9 10  2  0
 10 11  1  0
  9 12  1  0
  6 13  1  0
  5 14  1  0
  3 15  1  0
  3 16  1  0
  2 17  1  0
 17 18  1  0
 18 19  2  0
 19 20  1  0
 20 21  2  0
 21 22  1  0
 22 23  2  0
 23 24  1  0
 24 25  2  0
 25 26  1  0
 26 27  2  0
 27 28  1  0
 25 29  1  0
 24 30  1  0
 23 31  1  0
 21 32  1  0
 32 33  1  0
 17 34  1  0
 10  4  1  0
 32 18  1  0
 27 22  1  0
M  END
>  <cnnaffinity>  (1) 
-5.40748

>  <filename>  (1) 
O=C(Cc1ccc(Cl)cc1Br)Nc1nnc(-c2cccnc2)[nH]1

$$$$
