
     RDKit          3D

 35 37  0  0  0  0  0  0  0  0999 V2000
    5.8528   -2.2991   21.4479 O   0  0  0  0  0  0  0  0  0  0  0  0
    6.8076   -1.6231   21.7652 C   0  0  0  0  0  0  0  0  0  0  0  0
    7.5332   -1.8011   23.1387 C   0  0  0  0  0  0  0  0  0  0  0  0
    7.2496   -0.8776   24.2581 N   0  0  0  0  0  0  0  0  0  0  0  0
    7.7030    0.4046   24.3322 C   0  0  0  0  0  0  0  0  0  0  0  0
    8.3543    0.8874   23.4116 O   0  0  0  0  0  0  0  0  0  0  0  0
    7.3300    1.1996   25.5792 C   0  0  0  0  0  0  0  0  0  0  0  0
    7.0858    0.6447   26.8243 C   0  0  0  0  0  0  0  0  0  0  0  0
    6.7984    1.4530   27.9029 N   0  0  0  0  0  0  0  0  0  0  0  0
    6.5456    0.9987   29.1434 N   0  0  0  0  0  0  0  0  0  0  0  0
    6.3227    2.1046   29.8551 C   0  0  0  0  0  0  0  0  0  0  0  0
    6.4221    3.2782   29.1007 C   0  0  0  0  0  0  0  0  0  0  0  0
    6.7312    2.8429   27.8155 C   0  0  0  0  0  0  0  0  0  0  0  0
    6.9697    3.4296   26.5405 C   0  0  0  0  0  0  0  0  0  0  0  0
    7.2742    2.6331   25.4649 C   0  0  0  0  0  0  0  0  0  0  0  0
    7.4808    3.0883   24.4969 H   0  0  0  0  0  0  0  0  0  0  0  0
    6.9065    4.5030   26.4607 H   0  0  0  0  0  0  0  0  0  0  0  0
    6.2904    4.2971   29.4259 H   0  0  0  0  0  0  0  0  0  0  0  0
    6.0961    2.0179   30.9091 H   0  0  0  0  0  0  0  0  0  0  0  0
    7.1196   -0.3971   27.1199 H   0  0  0  0  0  0  0  0  0  0  0  0
    6.5713   -1.1525   24.9443 H   0  0  0  0  0  0  0  0  0  0  0  0
    7.3045   -2.8152   23.4771 H   0  0  0  0  0  0  0  0  0  0  0  0
    8.6057   -1.7437   22.9399 H   0  0  0  0  0  0  0  0  0  0  0  0
    7.4056   -0.6826   20.9357 N   0  0  0  0  0  0  0  0  0  0  0  0
    6.7008   -0.0551   19.8489 C   0  0  0  0  0  0  0  0  0  0  0  0
    5.4828    0.5910   20.0956 C   0  0  0  0  0  0  0  0  0  0  0  0
    4.8510    1.2779   19.0513 C   0  0  0  0  0  0  0  0  0  0  0  0
    5.4623    1.2932   17.7943 C   0  0  0  0  0  0  0  0  0  0  0  0
    6.6292    0.6724   17.5361 N   0  0  0  0  0  0  0  0  0  0  0  0
    7.2356    0.0298   18.5455 C   0  0  0  0  0  0  0  0  0  0  0  0
    8.1895   -0.4522   18.3228 H   0  0  0  0  0  0  0  0  0  0  0  0
    5.0062    1.8327   16.9672 H   0  0  0  0  0  0  0  0  0  0  0  0
    3.9211    1.8177   19.2129 H   0  0  0  0  0  0  0  0  0  0  0  0
    5.0537    0.5446   21.0954 H   0  0  0  0  0  0  0  0  0  0  0  0
    7.9487   -0.0201   21.4846 H   0  0  0  0  0  0  0  0  0  0  0  0
  1  2  2  0
  2  3  1  0
  3  4  1  0
  4  5  1  0
  5  6  2  0
  5  7  1  0
  7  8  2  0
  8  9  1  0
  9 10  1  0
 10 11  2  0
 11 12  1  0
 12 13  2  0
 13 14  1  0
 14 15  2  0
 15 16  1  0
 14 17  1  0
 12 18  1  0
 11 19  1  0
  8 20  1  0
  4 21  1  0
  3 22  1  0
  3 23  1  0
  2 24  1  0
 24 25  1  0
 25 26  2  0
 26 27  1  0
 27 28  2  0
 28 29  1  0
 29 30  2  0
 30 31  1  0
 28 32  1  0
 27 33  1  0
 26 34  1  0
 24 35  1  0
 15  7  1  0
 30 25  1  0
 13  9  1  0
M  END
>  <cnnaffinity>  (1) 
-4.94481

>  <filename>  (1) 
O=C(CNC(=O)c1ccc2ccnn2c1)Nc1cccnc1

$$$$
