
     RDKit          3D

 25 26  0  0  0  0  0  0  0  0999 V2000
    8.1928   -1.6182   20.5813 O   0  0  0  0  0  0  0  0  0  0  0  0
    7.4557   -0.7142   20.9332 C   0  0  0  0  0  0  0  0  0  0  0  0
    7.3830   -0.2507   22.2133 N   0  0  0  0  0  0  0  0  0  0  0  0
    8.0363   -0.8250   23.3200 C   0  0  0  0  0  0  0  0  0  0  0  0
    9.3194   -1.3737   23.1735 C   0  0  0  0  0  0  0  0  0  0  0  0
    9.8987   -2.0676   24.2336 C   0  0  0  0  0  0  0  0  0  0  0  0
    9.2476   -2.1738   25.4641 C   0  0  0  0  0  0  0  0  0  0  0  0
    8.0139   -1.5313   25.6424 C   0  0  0  0  0  0  0  0  0  0  0  0
    7.2360   -1.5840   27.1857 Cl  0  0  0  0  0  0  0  0  0  0  0  0
    7.4106   -0.8611   24.5784 C   0  0  0  0  0  0  0  0  0  0  0  0
    6.2078   -0.2771   24.7348 F   0  0  0  0  0  0  0  0  0  0  0  0
    9.6834   -2.7405   26.2801 H   0  0  0  0  0  0  0  0  0  0  0  0
   10.8552   -2.5563   24.0985 H   0  0  0  0  0  0  0  0  0  0  0  0
    9.8188   -1.2529   22.2201 H   0  0  0  0  0  0  0  0  0  0  0  0
    6.6889    0.4566   22.3849 H   0  0  0  0  0  0  0  0  0  0  0  0
    6.6105    0.0208   19.9605 C   0  0  0  0  0  0  0  0  0  0  0  0
    5.3949    0.6818   20.1974 C   0  0  0  0  0  0  0  0  0  0  0  0
    4.7947    1.3213   19.1143 C   0  0  0  0  0  0  0  0  0  0  0  0
    5.4294    1.2948   17.8668 C   0  0  0  0  0  0  0  0  0  0  0  0
    6.5898    0.6618   17.6380 N   0  0  0  0  0  0  0  0  0  0  0  0
    7.1488    0.0369   18.6718 C   0  0  0  0  0  0  0  0  0  0  0  0
    8.0855   -0.4896   18.4915 H   0  0  0  0  0  0  0  0  0  0  0  0
    4.9761    1.7939   17.0135 H   0  0  0  0  0  0  0  0  0  0  0  0
    3.8627    1.8597   19.2332 H   0  0  0  0  0  0  0  0  0  0  0  0
    4.9144    0.6980   21.1820 H   0  0  0  0  0  0  0  0  0  0  0  0
  1  2  2  0
  2  3  1  0
  3  4  1  0
  4  5  2  0
  5  6  1  0
  6  7  2  0
  7  8  1  0
  8  9  1  0
  8 10  2  0
 10 11  1  0
  7 12  1  0
  6 13  1  0
  5 14  1  0
  3 15  1  0
  2 16  1  0
 16 17  2  0
 17 18  1  0
 18 19  2  0
 19 20  1  0
 20 21  2  0
 21 22  1  0
 19 23  1  0
 18 24  1  0
 17 25  1  0
 10  4  1  0
 21 16  1  0
M  END
>  <cnnaffinity>  (1) 
-4.87297

>  <filename>  (1) 
O=C(Nc1cccc(Cl)c1F)c1cccnc1

$$$$
