
     RDKit          3D

 28 29  0  0  0  0  0  0  0  0999 V2000
    8.6694   -0.7420   20.8725 O   0  0  0  0  0  0  0  0  0  0  0  0
    7.4537   -0.7340   20.9653 C   0  0  0  0  0  0  0  0  0  0  0  0
    6.7671   -1.3859   21.9523 N   0  0  0  0  0  0  0  0  0  0  0  0
    7.3439   -2.1842   22.9691 C   0  0  0  0  0  0  0  0  0  0  0  0
    8.4569   -2.9877   22.6880 C   0  0  0  0  0  0  0  0  0  0  0  0
    9.0438   -3.7554   23.7010 C   0  0  0  0  0  0  0  0  0  0  0  0
    8.5009   -3.7044   24.9829 C   0  0  0  0  0  0  0  0  0  0  0  0
    9.0780   -4.4166   25.9587 F   0  0  0  0  0  0  0  0  0  0  0  0
    7.3729   -2.9340   25.2811 C   0  0  0  0  0  0  0  0  0  0  0  0
    6.8735   -2.9433   26.7027 C   0  0  0  0  0  0  0  0  0  0  0  0
    7.8515   -2.5553   27.5383 F   0  0  0  0  0  0  0  0  0  0  0  0
    5.8297   -2.1109   26.8732 F   0  0  0  0  0  0  0  0  0  0  0  0
    6.4745   -4.1663   27.0938 F   0  0  0  0  0  0  0  0  0  0  0  0
    6.7926   -2.1665   24.2558 C   0  0  0  0  0  0  0  0  0  0  0  0
    5.9325   -1.5330   24.4637 H   0  0  0  0  0  0  0  0  0  0  0  0
    9.9249   -4.3661   23.5365 H   0  0  0  0  0  0  0  0  0  0  0  0
    8.8525   -2.9669   21.6780 H   0  0  0  0  0  0  0  0  0  0  0  0
    5.7732   -1.2550   21.9716 H   0  0  0  0  0  0  0  0  0  0  0  0
    6.6058   -0.0314   19.9570 C   0  0  0  0  0  0  0  0  0  0  0  0
    5.3889    0.6307   20.1908 C   0  0  0  0  0  0  0  0  0  0  0  0
    4.7873    1.2986   19.1212 C   0  0  0  0  0  0  0  0  0  0  0  0
    5.4062    1.2729   17.8670 C   0  0  0  0  0  0  0  0  0  0  0  0
    6.5665    0.6440   17.6368 N   0  0  0  0  0  0  0  0  0  0  0  0
    7.1505    0.0282   18.6668 C   0  0  0  0  0  0  0  0  0  0  0  0
    8.1157   -0.4244   18.4531 H   0  0  0  0  0  0  0  0  0  0  0  0
    4.9679    1.7754   17.0058 H   0  0  0  0  0  0  0  0  0  0  0  0
    3.8654    1.8555   19.2386 H   0  0  0  0  0  0  0  0  0  0  0  0
    4.9324    0.6927   21.1822 H   0  0  0  0  0  0  0  0  0  0  0  0
  1  2  2  0
  2  3  1  0
  3  4  1  0
  4  5  2  0
  5  6  1  0
  6  7  2  0
  7  8  1  0
  7  9  1  0
  9 10  1  0
 10 11  1  0
 10 12  1  0
 10 13  1  0
  9 14  2  0
 14 15  1  0
  6 16  1  0
  5 17  1  0
  3 18  1  0
  2 19  1  0
 19 20  2  0
 20 21  1  0
 21 22  2  0
 22 23  1  0
 23 24  2  0
 24 25  1  0
 22 26  1  0
 21 27  1  0
 20 28  1  0
 14  4  1  0
 24 19  1  0
M  END
>  <cnnaffinity>  (1) 
-4.9208

>  <filename>  (1) 
O=C(Nc1ccc(F)c(C(F)(F)F)c1)c1cccnc1

$$$$
