
     RDKit          3D

 31 32  0  0  0  0  0  0  0  0999 V2000
    2.8058   -7.1995   23.6987 H   0  0  0  0  0  0  0  0  0  0  0  0
    3.3090   -6.7285   24.3892 O   0  0  0  0  0  0  0  0  0  0  0  0
    3.9639   -5.8643   23.6117 C   0  0  0  0  0  0  0  0  0  0  0  0
    3.7777   -5.9117   22.4140 O   0  0  0  0  0  0  0  0  0  0  0  0
    4.9408   -4.8274   24.3610 C   0  0  0  0  0  0  0  0  0  0  0  0
    5.0286   -4.8265   25.5706 O   0  0  0  0  0  0  0  0  0  0  0  0
    5.6575   -3.9294   23.4725 C   0  0  0  0  0  0  0  0  0  0  0  0
    5.4696   -4.0092   22.4143 H   0  0  0  0  0  0  0  0  0  0  0  0
    6.6426   -3.0770   23.8779 C   0  0  0  0  0  0  0  0  0  0  0  0
    7.0888   -3.1113   25.1136 O   0  0  0  0  0  0  0  0  0  0  0  0
    8.0148   -2.7622   25.0841 H   0  0  0  0  0  0  0  0  0  0  0  0
    7.2674   -2.1587   22.9324 C   0  0  0  0  0  0  0  0  0  0  0  0
    6.6591   -1.5751   21.8266 C   0  0  0  0  0  0  0  0  0  0  0  0
    5.6019   -1.7199   21.6197 H   0  0  0  0  0  0  0  0  0  0  0  0
    7.3882   -0.7566   20.9158 C   0  0  0  0  0  0  0  0  0  0  0  0
    6.6853   -0.0172   19.8201 C   0  0  0  0  0  0  0  0  0  0  0  0
    7.1839    0.0499   18.5027 C   0  0  0  0  0  0  0  0  0  0  0  0
    8.1102   -0.4631   18.2490 H   0  0  0  0  0  0  0  0  0  0  0  0
    6.5815    0.6921   17.4917 N   0  0  0  0  0  0  0  0  0  0  0  0
    5.4311    1.3273   17.7701 C   0  0  0  0  0  0  0  0  0  0  0  0
    4.9568    1.8390   16.9349 H   0  0  0  0  0  0  0  0  0  0  0  0
    4.8437    1.3406   19.0416 C   0  0  0  0  0  0  0  0  0  0  0  0
    3.9103    1.8752   19.1995 H   0  0  0  0  0  0  0  0  0  0  0  0
    5.4790    0.6556   20.0799 C   0  0  0  0  0  0  0  0  0  0  0  0
    5.0620    0.6537   21.0907 H   0  0  0  0  0  0  0  0  0  0  0  0
    8.7403   -0.6315   21.0883 C   0  0  0  0  0  0  0  0  0  0  0  0
    9.3570   -0.0272   20.4331 H   0  0  0  0  0  0  0  0  0  0  0  0
    9.3444   -1.2425   22.1543 N   0  0  0  0  0  0  0  0  0  0  0  0
   10.3103   -1.1348   22.4267 H   0  0  0  0  0  0  0  0  0  0  0  0
    8.6698   -1.8963   23.1593 C   0  0  0  0  0  0  0  0  0  0  0  0
    9.3292   -2.2068   24.1585 O   0  0  0  0  0  0  0  0  0  0  0  0
  1  2  1  0
  2  3  1  0
  3  4  2  0
  3  5  1  0
  5  6  2  0
  5  7  1  0
  7  8  1  0
  7  9  2  3
  9 10  1  0
 10 11  1  0
  9 12  1  0
 12 13  2  0
 13 14  1  0
 13 15  1  0
 15 16  1  0
 16 17  2  0
 17 18  1  0
 17 19  1  0
 19 20  2  0
 20 21  1  0
 20 22  1  0
 22 23  1  0
 22 24  2  0
 24 25  1  0
 15 26  2  0
 26 27  1  0
 26 28  1  0
 28 29  1  0
 28 30  1  0
 30 31  2  0
 30 12  1  0
 24 16  1  0
M  END
>  <cnnaffinity>  (1) 
-4.70146

>  <filename>  (1) 
O=C(O)C(=O)C=C(O)c1cc(-c2cccnc2)c[nH]c1=O

$$$$
