
     RDKit          3D

 35 36  0  0  0  0  0  0  0  0999 V2000
    9.2732   -2.8639   20.9461 O   0  0  0  0  0  0  0  0  0  0  0  0
    8.6962   -3.1068   21.9959 C   0  0  0  0  0  0  0  0  0  0  0  0
    9.4847   -3.4016   23.2707 C   0  0  0  0  0  0  0  0  0  0  0  0
   10.7219   -2.6457   23.3205 O   0  0  0  0  0  0  0  0  0  0  0  0
   10.5741   -1.3022   23.5906 C   0  0  0  0  0  0  0  0  0  0  0  0
   11.5788   -0.4015   23.2188 C   0  0  0  0  0  0  0  0  0  0  0  0
   11.4901    0.9592   23.5472 C   0  0  0  0  0  0  0  0  0  0  0  0
   13.1369    2.3982   23.0350 I   0  0  0  0  0  0  0  0  0  0  0  0
   10.3777    1.4212   24.2546 C   0  0  0  0  0  0  0  0  0  0  0  0
    9.3633    0.5386   24.6398 C   0  0  0  0  0  0  0  0  0  0  0  0
    9.4565   -0.8061   24.2739 C   0  0  0  0  0  0  0  0  0  0  0  0
    8.6679   -1.4931   24.5493 H   0  0  0  0  0  0  0  0  0  0  0  0
    8.5239    0.8789   25.2474 H   0  0  0  0  0  0  0  0  0  0  0  0
   10.3304    2.4755   24.5080 H   0  0  0  0  0  0  0  0  0  0  0  0
   12.4291   -0.7921   22.6767 H   0  0  0  0  0  0  0  0  0  0  0  0
    8.8542   -3.1813   24.1361 H   0  0  0  0  0  0  0  0  0  0  0  0
    9.6787   -4.4712   23.3107 H   0  0  0  0  0  0  0  0  0  0  0  0
    7.3272   -2.9296   22.0712 N   0  0  0  0  0  0  0  0  0  0  0  0
    6.6219   -2.1550   21.0604 C   0  0  0  0  0  0  0  0  0  0  0  0
    7.2573   -0.7672   20.9766 C   0  0  0  0  0  0  0  0  0  0  0  0
    6.6110    0.0124   19.8654 C   0  0  0  0  0  0  0  0  0  0  0  0
    5.4126    0.6782   20.1028 C   0  0  0  0  0  0  0  0  0  0  0  0
    4.8236    1.3470   19.0350 C   0  0  0  0  0  0  0  0  0  0  0  0
    5.4433    1.3373   17.7792 C   0  0  0  0  0  0  0  0  0  0  0  0
    6.6028    0.6944   17.5452 N   0  0  0  0  0  0  0  0  0  0  0  0
    7.1741    0.0454   18.5768 C   0  0  0  0  0  0  0  0  0  0  0  0
    8.1067   -0.4866   18.4077 H   0  0  0  0  0  0  0  0  0  0  0  0
    4.9628    1.8635   16.9619 H   0  0  0  0  0  0  0  0  0  0  0  0
    3.8907    1.8795   19.1715 H   0  0  0  0  0  0  0  0  0  0  0  0
    4.9609    0.6655   21.0939 H   0  0  0  0  0  0  0  0  0  0  0  0
    7.1218   -0.2557   21.9359 H   0  0  0  0  0  0  0  0  0  0  0  0
    8.3348   -0.8550   20.7956 H   0  0  0  0  0  0  0  0  0  0  0  0
    5.5646   -2.0650   21.3290 H   0  0  0  0  0  0  0  0  0  0  0  0
    6.6700   -2.6563   20.0879 H   0  0  0  0  0  0  0  0  0  0  0  0
    6.9329   -2.9434   23.0064 H   0  0  0  0  0  0  0  0  0  0  0  0
  1  2  2  0
  2  3  1  0
  3  4  1  0
  4  5  1  0
  5  6  2  0
  6  7  1  0
  7  8  1  0
  7  9  2  0
  9 10  1  0
 10 11  2  0
 11 12  1  0
 10 13  1  0
  9 14  1  0
  6 15  1  0
  3 16  1  0
  3 17  1  0
  2 18  1  0
 18 19  1  0
 19 20  1  0
 20 21  1  0
 21 22  2  0
 22 23  1  0
 23 24  2  0
 24 25  1  0
 25 26  2  0
 26 27  1  0
 24 28  1  0
 23 29  1  0
 22 30  1  0
 20 31  1  0
 20 32  1  0
 19 33  1  0
 19 34  1  0
 18 35  1  0
 11  5  1  0
 26 21  1  0
M  END
>  <cnnaffinity>  (1) 
-5.24019

>  <filename>  (1) 
O=C(COc1cccc(I)c1)NCCc1cccnc1

$$$$
