
     RDKit          3D

 27 28  0  0  0  0  0  0  0  0999 V2000
    6.6974   -1.3821   21.6009 H   0  0  0  0  0  0  0  0  0  0  0  0
    7.3225   -0.7147   21.0056 C   0  0  0  0  0  0  0  0  0  0  0  0
    8.6011   -0.4980   21.3614 C   0  0  0  0  0  0  0  0  0  0  0  0
    9.3626   -1.1312   22.4393 C   0  0  0  0  0  0  0  0  0  0  0  0
    8.8321   -2.3470   23.1428 C   0  0  0  0  0  0  0  0  0  0  0  0
    7.9470   -3.0580   22.7221 O   0  0  0  0  0  0  0  0  0  0  0  0
    9.5650   -2.6782   24.4790 C   0  0  0  0  0  0  0  0  0  0  0  0
    9.6415   -1.6033   25.2810 F   0  0  0  0  0  0  0  0  0  0  0  0
    8.9391   -3.6496   25.1522 F   0  0  0  0  0  0  0  0  0  0  0  0
   10.8136   -3.0946   24.2165 F   0  0  0  0  0  0  0  0  0  0  0  0
   10.4906   -0.5659   22.7020 N   0  0  0  0  0  0  0  0  0  0  0  0
   10.6879    0.5488   21.7696 C   0  0  0  0  0  0  0  0  0  0  0  0
   11.6503    0.4315   21.2630 H   0  0  0  0  0  0  0  0  0  0  0  0
   10.7321    1.4856   22.3353 H   0  0  0  0  0  0  0  0  0  0  0  0
    9.4915    0.5662   20.7819 C   0  0  0  0  0  0  0  0  0  0  0  0
    8.9876    1.5362   20.7087 H   0  0  0  0  0  0  0  0  0  0  0  0
    9.7272    0.2747   19.7555 H   0  0  0  0  0  0  0  0  0  0  0  0
    6.6480   -0.0069   19.8993 C   0  0  0  0  0  0  0  0  0  0  0  0
    7.1665    0.0658   18.5917 C   0  0  0  0  0  0  0  0  0  0  0  0
    8.1084   -0.4294   18.3714 H   0  0  0  0  0  0  0  0  0  0  0  0
    6.5616    0.6857   17.5719 N   0  0  0  0  0  0  0  0  0  0  0  0
    5.3994    1.2995   17.8337 C   0  0  0  0  0  0  0  0  0  0  0  0
    4.9159    1.7875   16.9908 H   0  0  0  0  0  0  0  0  0  0  0  0
    4.8010    1.3133   19.0996 C   0  0  0  0  0  0  0  0  0  0  0  0
    3.8709    1.8475   19.2530 H   0  0  0  0  0  0  0  0  0  0  0  0
    5.4248    0.6364   20.1477 C   0  0  0  0  0  0  0  0  0  0  0  0
    5.0079    0.6222   21.1578 H   0  0  0  0  0  0  0  0  0  0  0  0
  1  2  1  0
  2  3  2  3
  3  4  1  0
  4  5  1  0
  5  6  2  0
  5  7  1  0
  7  8  1  0
  7  9  1  0
  7 10  1  0
  4 11  2  0
 11 12  1  0
 12 13  1  0
 12 14  1  0
 12 15  1  0
 15 16  1  0
 15 17  1  0
  2 18  1  0
 18 19  2  0
 19 20  1  0
 19 21  1  0
 21 22  2  0
 22 23  1  0
 22 24  1  0
 24 25  1  0
 24 26  2  0
 26 27  1  0
 15  3  1  0
 26 18  1  0
M  END
>  <cnnaffinity>  (1) 
-4.75703

>  <filename>  (1) 
O=C(C1=NCCC1=Cc1cccnc1)C(F)(F)F

$$$$
