
     RDKit          3D

 32 34  0  0  0  0  0  0  0  0999 V2000
    4.9526    1.7987   16.9840 H   0  0  0  0  0  0  0  0  0  0  0  0
    5.4198    1.2958   17.8260 C   0  0  0  0  0  0  0  0  0  0  0  0
    6.5787    0.6726   17.5710 N   0  0  0  0  0  0  0  0  0  0  0  0
    7.1877    0.0521   18.5894 C   0  0  0  0  0  0  0  0  0  0  0  0
    8.1210   -0.4429   18.3278 H   0  0  0  0  0  0  0  0  0  0  0  0
    6.6833   -0.0012   19.9058 C   0  0  0  0  0  0  0  0  0  0  0  0
    7.3583   -0.7480   20.9873 C   0  0  0  0  0  0  0  0  0  0  0  0
    6.8283   -1.2911   22.1013 C   0  0  0  0  0  0  0  0  0  0  0  0
    5.8276   -1.3133   22.4751 H   0  0  0  0  0  0  0  0  0  0  0  0
    7.8404   -1.9108   22.8340 N   0  0  0  0  0  0  0  0  0  0  0  0
    7.6215   -2.4059   24.1533 C   0  0  0  0  0  0  0  0  0  0  0  0
    6.8350   -1.8813   24.9050 O   0  0  0  0  0  0  0  0  0  0  0  0
    8.2919   -3.5577   24.4053 N   0  0  0  0  0  0  0  0  0  0  0  0
    9.0987   -3.6885   23.8208 H   0  0  0  0  0  0  0  0  0  0  0  0
    8.2180   -4.2489   25.6146 C   0  0  0  0  0  0  0  0  0  0  0  0
    7.0060   -4.3918   26.2904 C   0  0  0  0  0  0  0  0  0  0  0  0
    6.1007   -3.9432   25.9093 H   0  0  0  0  0  0  0  0  0  0  0  0
    7.0315   -5.0591   27.5092 C   0  0  0  0  0  0  0  0  0  0  0  0
    6.1068   -5.2232   28.0574 H   0  0  0  0  0  0  0  0  0  0  0  0
    8.1480   -5.5101   28.0958 N   0  0  0  0  0  0  0  0  0  0  0  0
    9.2966   -5.3449   27.4292 C   0  0  0  0  0  0  0  0  0  0  0  0
   10.1983   -5.6645   27.9462 H   0  0  0  0  0  0  0  0  0  0  0  0
    9.3858   -4.7705   26.1621 C   0  0  0  0  0  0  0  0  0  0  0  0
   10.3254   -4.6907   25.6249 H   0  0  0  0  0  0  0  0  0  0  0  0
    9.0410   -1.7066   22.2056 C   0  0  0  0  0  0  0  0  0  0  0  0
   10.5672   -2.1170   22.6998 S   0  0  0  0  0  0  0  0  0  0  0  0
    8.7260   -1.0413   21.0690 N   0  0  0  0  0  0  0  0  0  0  0  0
    9.5027   -0.6886   20.5317 H   0  0  0  0  0  0  0  0  0  0  0  0
    5.4565    0.6583   20.1410 C   0  0  0  0  0  0  0  0  0  0  0  0
    5.0141    0.6759   21.1386 H   0  0  0  0  0  0  0  0  0  0  0  0
    4.8192    1.3132   19.0869 C   0  0  0  0  0  0  0  0  0  0  0  0
    3.8816    1.8402   19.2240 H   0  0  0  0  0  0  0  0  0  0  0  0
  1  2  1  0
  2  3  2  0
  3  4  1  0
  4  5  1  0
  4  6  2  0
  6  7  1  0
  7  8  2  0
  8  9  1  0
  8 10  1  0
 10 11  1  0
 11 12  2  0
 11 13  1  0
 13 14  1  0
 13 15  1  0
 15 16  2  0
 16 17  1  0
 16 18  1  0
 18 19  1  0
 18 20  2  0
 20 21  1  0
 21 22  1  0
 21 23  2  0
 23 24  1  0
 10 25  1  0
 25 26  2  0
 25 27  1  0
 27 28  1  0
  6 29  1  0
 29 30  1  0
 29 31  2  0
 31 32  1  0
 31  2  1  0
 27  7  1  0
 23 15  1  0
M  END
>  <cnnaffinity>  (1) 
-5.44584

>  <filename>  (1) 
O=C(Nc1ccncc1)n1cc(-c2cccnc2)[nH]c1=S

$$$$
