
     RDKit          3D

 33 35  0  0  0  0  0  0  0  0999 V2000
    7.1313    0.2917   25.0918 O   0  0  0  0  0  0  0  0  0  0  0  0
    6.9606    1.1486   24.2606 C   0  0  0  0  0  0  0  0  0  0  0  0
    6.4084    2.5142   24.6103 C   0  0  0  0  0  0  0  0  0  0  0  0
    4.9263    2.5491   24.3321 C   0  0  0  0  0  0  0  0  0  0  0  0
    4.0647    1.8355   25.1756 C   0  0  0  0  0  0  0  0  0  0  0  0
    2.6910    1.8577   24.9365 C   0  0  0  0  0  0  0  0  0  0  0  0
    2.1409    2.4983   23.8938 N   0  0  0  0  0  0  0  0  0  0  0  0
    2.9606    3.1286   23.0431 C   0  0  0  0  0  0  0  0  0  0  0  0
    4.3508    3.1734   23.2171 C   0  0  0  0  0  0  0  0  0  0  0  0
    5.3163    4.0062   22.0223 Cl  0  0  0  0  0  0  0  0  0  0  0  0
    2.5009    3.6123   22.1816 H   0  0  0  0  0  0  0  0  0  0  0  0
    2.0063    1.3264   25.5950 H   0  0  0  0  0  0  0  0  0  0  0  0
    4.4748    1.2733   26.0076 H   0  0  0  0  0  0  0  0  0  0  0  0
    6.6305    2.6442   25.6721 H   0  0  0  0  0  0  0  0  0  0  0  0
    6.9445    3.2725   24.0415 H   0  0  0  0  0  0  0  0  0  0  0  0
    7.2191    0.9854   22.9199 N   0  0  0  0  0  0  0  0  0  0  0  0
    7.6179   -0.2065   22.3635 C   0  0  0  0  0  0  0  0  0  0  0  0
    8.2569   -1.1496   22.9850 N   0  0  0  0  0  0  0  0  0  0  0  0
    8.4012   -2.1962   22.1045 N   0  0  0  0  0  0  0  0  0  0  0  0
    7.8453   -1.8307   20.9921 C   0  0  0  0  0  0  0  0  0  0  0  0
    7.3558   -0.5497   21.0449 N   0  0  0  0  0  0  0  0  0  0  0  0
    6.6687    0.0974   19.9591 C   0  0  0  0  0  0  0  0  0  0  0  0
    5.4216    0.6939   20.1711 C   0  0  0  0  0  0  0  0  0  0  0  0
    4.7804    1.3140   19.0918 C   0  0  0  0  0  0  0  0  0  0  0  0
    5.3986    1.2935   17.8397 C   0  0  0  0  0  0  0  0  0  0  0  0
    6.5681    0.6777   17.6053 N   0  0  0  0  0  0  0  0  0  0  0  0
    7.1852    0.0985   18.6400 C   0  0  0  0  0  0  0  0  0  0  0  0
    8.1303   -0.3960   18.4112 H   0  0  0  0  0  0  0  0  0  0  0  0
    4.9497    1.7918   16.9863 H   0  0  0  0  0  0  0  0  0  0  0  0
    3.8316    1.8276   19.2155 H   0  0  0  0  0  0  0  0  0  0  0  0
    4.9447    0.6309   21.1495 H   0  0  0  0  0  0  0  0  0  0  0  0
    7.6599   -2.4534   20.1446 H   0  0  0  0  0  0  0  0  0  0  0  0
    6.9261    1.7168   22.2991 H   0  0  0  0  0  0  0  0  0  0  0  0
  1  2  2  0
  2  3  1  0
  3  4  1  0
  4  5  2  0
  5  6  1  0
  6  7  2  0
  7  8  1  0
  8  9  2  0
  9 10  1  0
  8 11  1  0
  6 12  1  0
  5 13  1  0
  3 14  1  0
  3 15  1  0
  2 16  1  0
 16 17  1  0
 17 18  2  0
 18 19  1  0
 19 20  2  0
 20 21  1  0
 21 22  1  0
 22 23  2  0
 23 24  1  0
 24 25  2  0
 25 26  1  0
 26 27  2  0
 27 28  1  0
 25 29  1  0
 24 30  1  0
 23 31  1  0
 20 32  1  0
 16 33  1  0
  9  4  1  0
 21 17  1  0
 27 22  1  0
M  END
>  <cnnaffinity>  (1) 
-5.43931

>  <filename>  (1) 
O=C(Cc1ccncc1Cl)Nc1nncn1-c1cccnc1

$$$$
