
     RDKit          3D

 31 33  0  0  0  0  0  0  0  0999 V2000
    4.9440    1.8007   16.9843 H   0  0  0  0  0  0  0  0  0  0  0  0
    5.4055    1.2930   17.8283 C   0  0  0  0  0  0  0  0  0  0  0  0
    6.5645    0.6670   17.5677 N   0  0  0  0  0  0  0  0  0  0  0  0
    7.1635    0.0329   18.5807 C   0  0  0  0  0  0  0  0  0  0  0  0
    8.1137   -0.4502   18.3621 H   0  0  0  0  0  0  0  0  0  0  0  0
    6.6490   -0.0104   19.8864 C   0  0  0  0  0  0  0  0  0  0  0  0
    7.4049   -0.6887   20.9314 C   0  0  0  0  0  0  0  0  0  0  0  0
    8.1419   -1.8357   20.7313 N   0  0  0  0  0  0  0  0  0  0  0  0
    8.5956   -2.1661   21.9153 C   0  0  0  0  0  0  0  0  0  0  0  0
    9.2079   -3.0298   22.1317 H   0  0  0  0  0  0  0  0  0  0  0  0
    8.2251   -1.2732   22.8764 N   0  0  0  0  0  0  0  0  0  0  0  0
    8.3422   -1.2786   23.8780 H   0  0  0  0  0  0  0  0  0  0  0  0
    7.4820   -0.3202   22.2642 C   0  0  0  0  0  0  0  0  0  0  0  0
    7.0159    0.7851   22.9833 N   0  0  0  0  0  0  0  0  0  0  0  0
    6.8825    1.6545   22.4976 H   0  0  0  0  0  0  0  0  0  0  0  0
    6.6504    0.7918   24.3079 C   0  0  0  0  0  0  0  0  0  0  0  0
    6.8159   -0.1750   25.0346 O   0  0  0  0  0  0  0  0  0  0  0  0
    6.0711    2.1349   24.8000 C   0  0  0  0  0  0  0  0  0  0  0  0
    5.3953    3.1074   24.0151 C   0  0  0  0  0  0  0  0  0  0  0  0
    5.1866    3.0138   22.9535 H   0  0  0  0  0  0  0  0  0  0  0  0
    4.9073    4.2794   24.6144 C   0  0  0  0  0  0  0  0  0  0  0  0
    4.3791    5.0352   24.0291 H   0  0  0  0  0  0  0  0  0  0  0  0
    5.0400    4.5592   25.9170 N   0  0  0  0  0  0  0  0  0  0  0  0
    5.6795    3.6559   26.6712 C   0  0  0  0  0  0  0  0  0  0  0  0
    5.7707    3.8949   27.7319 H   0  0  0  0  0  0  0  0  0  0  0  0
    6.1966    2.4539   26.1678 C   0  0  0  0  0  0  0  0  0  0  0  0
    6.6800    1.7629   26.8505 H   0  0  0  0  0  0  0  0  0  0  0  0
    5.4273    0.6422   20.1396 C   0  0  0  0  0  0  0  0  0  0  0  0
    4.9856    0.6207   21.1375 H   0  0  0  0  0  0  0  0  0  0  0  0
    4.7987    1.3076   19.0905 C   0  0  0  0  0  0  0  0  0  0  0  0
    3.8660    1.8438   19.2329 H   0  0  0  0  0  0  0  0  0  0  0  0
  1  2  1  0
  2  3  2  0
  3  4  1  0
  4  5  1  0
  4  6  2  0
  6  7  1  0
  7  8  1  0
  8  9  2  0
  9 10  1  0
  9 11  1  0
 11 12  1  0
 11 13  1  0
 13 14  1  0
 14 15  1  0
 14 16  1  0
 16 17  2  0
 16 18  1  0
 18 19  2  0
 19 20  1  0
 19 21  1  0
 21 22  1  0
 21 23  2  0
 23 24  1  0
 24 25  1  0
 24 26  2  0
 26 27  1  0
  6 28  1  0
 28 29  1  0
 28 30  2  0
 30 31  1  0
 30  2  1  0
 13  7  2  0
 26 18  1  0
M  END
>  <cnnaffinity>  (1) 
-4.89049

>  <filename>  (1) 
O=C(Nc1[nH]cnc1-c1cccnc1)c1ccncc1

$$$$
