
     RDKit          3D

 38 39  0  0  0  0  0  0  0  0999 V2000
    9.9323   -3.4368   24.2367 O   0  0  0  0  0  0  0  0  0  0  0  0
    9.2164   -3.8536   23.3429 C   0  0  0  0  0  0  0  0  0  0  0  0
    8.6495   -5.2712   23.3519 C   0  0  0  0  0  0  0  0  0  0  0  0
    7.2372   -5.2939   23.8846 C   0  0  0  0  0  0  0  0  0  0  0  0
    6.9946   -5.3145   25.2665 C   0  0  0  0  0  0  0  0  0  0  0  0
    5.6904   -5.2600   25.7601 C   0  0  0  0  0  0  0  0  0  0  0  0
    4.6053   -5.1717   24.8696 C   0  0  0  0  0  0  0  0  0  0  0  0
    3.1842   -5.1627   25.3920 C   0  0  0  0  0  0  0  0  0  0  0  0
    3.0872   -4.5902   26.6073 F   0  0  0  0  0  0  0  0  0  0  0  0
    2.6933   -6.4130   25.5105 F   0  0  0  0  0  0  0  0  0  0  0  0
    2.3467   -4.4959   24.5719 F   0  0  0  0  0  0  0  0  0  0  0  0
    4.8438   -5.1560   23.4847 C   0  0  0  0  0  0  0  0  0  0  0  0
    6.1521   -5.2130   23.0053 C   0  0  0  0  0  0  0  0  0  0  0  0
    6.3434   -5.1943   21.9340 H   0  0  0  0  0  0  0  0  0  0  0  0
    4.0171   -5.0986   22.7810 H   0  0  0  0  0  0  0  0  0  0  0  0
    5.5214   -5.2791   26.8357 H   0  0  0  0  0  0  0  0  0  0  0  0
    7.8373   -5.3614   25.9558 H   0  0  0  0  0  0  0  0  0  0  0  0
    9.3124   -5.8359   24.0080 H   0  0  0  0  0  0  0  0  0  0  0  0
    8.6960   -5.7319   22.3570 H   0  0  0  0  0  0  0  0  0  0  0  0
    8.8676   -3.0767   22.2860 N   0  0  0  0  0  0  0  0  0  0  0  0
    9.2880   -1.6810   22.2250 C   0  0  0  0  0  0  0  0  0  0  0  0
    8.6438   -0.9780   21.0589 C   0  0  0  0  0  0  0  0  0  0  0  0
    7.3362   -0.7078   21.0006 C   0  0  0  0  0  0  0  0  0  0  0  0
    6.6503    0.0012   19.9063 C   0  0  0  0  0  0  0  0  0  0  0  0
    5.4249    0.6448   20.1460 C   0  0  0  0  0  0  0  0  0  0  0  0
    4.7955    1.3113   19.0973 C   0  0  0  0  0  0  0  0  0  0  0  0
    5.3953    1.2980   17.8311 C   0  0  0  0  0  0  0  0  0  0  0  0
    6.5605    0.6811   17.5746 N   0  0  0  0  0  0  0  0  0  0  0  0
    7.1663    0.0679   18.5969 C   0  0  0  0  0  0  0  0  0  0  0  0
    8.1114   -0.4208   18.3605 H   0  0  0  0  0  0  0  0  0  0  0  0
    4.9262    1.7938   16.9842 H   0  0  0  0  0  0  0  0  0  0  0  0
    3.8664    1.8495   19.2404 H   0  0  0  0  0  0  0  0  0  0  0  0
    4.9992    0.6337   21.1526 H   0  0  0  0  0  0  0  0  0  0  0  0
    6.6873   -0.9883   21.8375 H   0  0  0  0  0  0  0  0  0  0  0  0
    9.3020   -0.5955   20.2787 H   0  0  0  0  0  0  0  0  0  0  0  0
   10.3835   -1.6241   22.1716 H   0  0  0  0  0  0  0  0  0  0  0  0
    9.0040   -1.1913   23.1714 H   0  0  0  0  0  0  0  0  0  0  0  0
    8.2519   -3.4361   21.5799 H   0  0  0  0  0  0  0  0  0  0  0  0
  1  2  2  0
  2  3  1  0
  3  4  1  0
  4  5  2  0
  5  6  1  0
  6  7  2  0
  7  8  1  0
  8  9  1  0
  8 10  1  0
  8 11  1  0
  7 12  1  0
 12 13  2  0
 13 14  1  0
 12 15  1  0
  6 16  1  0
  5 17  1  0
  3 18  1  0
  3 19  1  0
  2 20  1  0
 20 21  1  0
 21 22  1  0
 22 23  2  3
 23 24  1  0
 24 25  2  0
 25 26  1  0
 26 27  2  0
 27 28  1  0
 28 29  2  0
 29 30  1  0
 27 31  1  0
 26 32  1  0
 25 33  1  0
 23 34  1  0
 22 35  1  0
 21 36  1  0
 21 37  1  0
 20 38  1  0
 13  4  1  0
 29 24  1  0
M  END
>  <cnnaffinity>  (1) 
-5.34448

>  <filename>  (1) 
O=C(Cc1ccc(C(F)(F)F)cc1)NCC=Cc1cccnc1

$$$$
