
     RDKit          3D

 31 32  0  0  0  0  0  0  0  0999 V2000
   13.0465   -3.0069   21.0221 H   0  0  0  0  0  0  0  0  0  0  0  0
   12.8809   -2.0422   21.1049 O   0  0  0  0  0  0  0  0  0  0  0  0
   12.1690   -1.8553   22.3000 N   0  0  0  0  0  0  0  0  0  0  0  0
   12.6284   -1.1363   22.8434 H   0  0  0  0  0  0  0  0  0  0  0  0
   10.7873   -1.6107   22.3105 C   0  0  0  0  0  0  0  0  0  0  0  0
   10.0012   -1.9871   21.4659 O   0  0  0  0  0  0  0  0  0  0  0  0
   10.4177   -0.8819   23.5664 C   0  0  0  0  0  0  0  0  0  0  0  0
   11.2509   -0.5115   24.1610 H   0  0  0  0  0  0  0  0  0  0  0  0
    9.1814   -0.6861   24.0240 C   0  0  0  0  0  0  0  0  0  0  0  0
    9.0424   -0.1057   24.9384 H   0  0  0  0  0  0  0  0  0  0  0  0
    7.9328   -1.1749   23.3656 C   0  0  0  0  0  0  0  0  0  0  0  0
    7.4124   -0.1793   22.3243 C   0  0  0  0  0  0  0  0  0  0  0  0
    6.9782    0.9096   22.6570 O   0  0  0  0  0  0  0  0  0  0  0  0
    7.4494   -0.6188   21.0205 N   0  0  0  0  0  0  0  0  0  0  0  0
    8.1876   -1.2960   20.8472 H   0  0  0  0  0  0  0  0  0  0  0  0
    6.7599   -0.0050   19.9469 C   0  0  0  0  0  0  0  0  0  0  0  0
    7.2473   -0.0276   18.6184 C   0  0  0  0  0  0  0  0  0  0  0  0
    8.1716   -0.5608   18.3954 H   0  0  0  0  0  0  0  0  0  0  0  0
    6.6401    0.5811   17.5890 N   0  0  0  0  0  0  0  0  0  0  0  0
    5.4888    1.2240   17.8361 C   0  0  0  0  0  0  0  0  0  0  0  0
    5.0257    1.7220   16.9881 H   0  0  0  0  0  0  0  0  0  0  0  0
    4.8923    1.2607   19.1016 C   0  0  0  0  0  0  0  0  0  0  0  0
    3.9514    1.7791   19.2416 H   0  0  0  0  0  0  0  0  0  0  0  0
    5.5343    0.6382   20.1761 C   0  0  0  0  0  0  0  0  0  0  0  0
    5.1174    0.6482   21.1813 H   0  0  0  0  0  0  0  0  0  0  0  0
    6.9209   -1.8658   24.2789 C   0  0  0  0  0  0  0  0  0  0  0  0
    7.1884   -1.9641   25.3296 H   0  0  0  0  0  0  0  0  0  0  0  0
    5.8604   -1.6946   24.1346 H   0  0  0  0  0  0  0  0  0  0  0  0
    7.6865   -2.6648   23.2781 C   0  0  0  0  0  0  0  0  0  0  0  0
    8.4774   -3.3036   23.6561 H   0  0  0  0  0  0  0  0  0  0  0  0
    7.1677   -3.0557   22.4080 H   0  0  0  0  0  0  0  0  0  0  0  0
  1  2  1  0
  2  3  1  0
  3  4  1  0
  3  5  1  0
  5  6  2  0
  5  7  1  0
  7  8  1  0
  7  9  2  3
  9 10  1  0
  9 11  1  0
 11 12  1  0
 12 13  2  0
 12 14  1  0
 14 15  1  0
 14 16  1  0
 16 17  2  0
 17 18  1  0
 17 19  1  0
 19 20  2  0
 20 21  1  0
 20 22  1  0
 22 23  1  0
 22 24  2  0
 24 25  1  0
 11 26  1  0
 26 27  1  0
 26 28  1  0
 26 29  1  0
 29 30  1  0
 29 31  1  0
 29 11  1  0
 24 16  1  0
M  END
>  <cnnaffinity>  (1) 
-5.22251

>  <filename>  (1) 
O=C(C=CC1(C(=O)Nc2cccnc2)CC1)NO

$$$$
