
     RDKit          3D

 37 38  0  0  0  0  0  0  0  0999 V2000
    6.2612    3.3235   25.2099 H   0  0  0  0  0  0  0  0  0  0  0  0
    5.8487    2.6165   25.7342 O   0  0  0  0  0  0  0  0  0  0  0  0
    6.8321    1.6348   25.8863 N   0  0  0  0  0  0  0  0  0  0  0  0
    6.5224    0.7613   25.4845 H   0  0  0  0  0  0  0  0  0  0  0  0
    7.6966    1.6458   26.9685 C   0  0  0  0  0  0  0  0  0  0  0  0
    8.0267    2.6675   27.5335 O   0  0  0  0  0  0  0  0  0  0  0  0
    8.3066    0.2939   27.3250 C   0  0  0  0  0  0  0  0  0  0  0  0
    7.5630   -0.5108   27.2635 H   0  0  0  0  0  0  0  0  0  0  0  0
    8.5871    0.3818   28.3831 H   0  0  0  0  0  0  0  0  0  0  0  0
    9.5621   -0.0665   26.4957 C   0  0  0  0  0  0  0  0  0  0  0  0
    9.9732   -0.9980   26.9096 H   0  0  0  0  0  0  0  0  0  0  0  0
   10.3331    0.6954   26.6595 H   0  0  0  0  0  0  0  0  0  0  0  0
    9.3371   -0.1808   24.9827 C   0  0  0  0  0  0  0  0  0  0  0  0
   10.2989   -0.4277   24.5073 H   0  0  0  0  0  0  0  0  0  0  0  0
    9.0514    0.8084   24.5969 H   0  0  0  0  0  0  0  0  0  0  0  0
    8.3105   -1.2533   24.5835 C   0  0  0  0  0  0  0  0  0  0  0  0
    8.6913   -2.2505   24.8474 H   0  0  0  0  0  0  0  0  0  0  0  0
    7.3604   -1.1298   25.1142 H   0  0  0  0  0  0  0  0  0  0  0  0
    8.0142   -1.2640   23.1706 N   0  0  0  0  0  0  0  0  0  0  0  0
    7.1568   -0.3760   22.5765 C   0  0  0  0  0  0  0  0  0  0  0  0
    6.3997    0.3616   23.1988 O   0  0  0  0  0  0  0  0  0  0  0  0
    7.3971   -0.5264   21.0837 C   0  0  0  0  0  0  0  0  0  0  0  0
    6.6756    0.1713   19.9994 C   0  0  0  0  0  0  0  0  0  0  0  0
    7.1605    0.1286   18.6686 C   0  0  0  0  0  0  0  0  0  0  0  0
    8.1075   -0.3601   18.4492 H   0  0  0  0  0  0  0  0  0  0  0  0
    6.5436    0.6687   17.6168 N   0  0  0  0  0  0  0  0  0  0  0  0
    5.3858    1.3097   17.8482 C   0  0  0  0  0  0  0  0  0  0  0  0
    4.9011    1.7436   16.9753 H   0  0  0  0  0  0  0  0  0  0  0  0
    4.8188    1.4307   19.1202 C   0  0  0  0  0  0  0  0  0  0  0  0
    3.8905    1.9790   19.2322 H   0  0  0  0  0  0  0  0  0  0  0  0
    5.4736    0.8656   20.2188 C   0  0  0  0  0  0  0  0  0  0  0  0
    5.0925    0.9557   21.2365 H   0  0  0  0  0  0  0  0  0  0  0  0
    8.3738   -1.4358   20.9291 C   0  0  0  0  0  0  0  0  0  0  0  0
    8.8471   -1.7316   20.0030 H   0  0  0  0  0  0  0  0  0  0  0  0
    8.7458   -2.0662   22.2235 C   0  0  0  0  0  0  0  0  0  0  0  0
    9.8289   -2.0483   22.4073 H   0  0  0  0  0  0  0  0  0  0  0  0
    8.4236   -3.1206   22.2536 H   0  0  0  0  0  0  0  0  0  0  0  0
  1  2  1  0
  2  3  1  0
  3  4  1  0
  3  5  1  0
  5  6  2  0
  5  7  1  0
  7  8  1  0
  7  9  1  0
  7 10  1  0
 10 11  1  0
 10 12  1  0
 10 13  1  0
 13 14  1  0
 13 15  1  0
 13 16  1  0
 16 17  1  0
 16 18  1  0
 16 19  1  0
 19 20  1  0
 20 21  2  0
 20 22  1  0
 22 23  1  0
 23 24  2  0
 24 25  1  0
 24 26  1  0
 26 27  2  0
 27 28  1  0
 27 29  1  0
 29 30  1  0
 29 31  2  0
 31 32  1  0
 22 33  2  0
 33 34  1  0
 33 35  1  0
 35 36  1  0
 35 37  1  0
 35 19  1  0
 31 23  1  0
M  END
>  <cnnaffinity>  (1) 
-4.70944

>  <filename>  (1) 
O=C(CCCCN1CC=C(c2cccnc2)C1=O)NO

$$$$
