
     RDKit          3D

 43 46  0  0  0  0  0  0  0  0999 V2000
    5.1791    1.6075   17.0845 H   0  0  0  0  0  0  0  0  0  0  0  0
    5.6110    1.0706   17.9259 C   0  0  0  0  0  0  0  0  0  0  0  0
    6.7354    0.3821   17.6877 N   0  0  0  0  0  0  0  0  0  0  0  0
    7.2965   -0.2540   18.7296 C   0  0  0  0  0  0  0  0  0  0  0  0
    8.2014   -0.8156   18.5019 H   0  0  0  0  0  0  0  0  0  0  0  0
    6.8002   -0.2365   20.0519 C   0  0  0  0  0  0  0  0  0  0  0  0
    7.6634   -0.7884   21.2094 C   0  0  2  0  0  0  0  0  0  0  0  0
    7.9820   -2.3298   21.0098 C   0  0  0  0  0  0  0  0  0  0  0  0
    9.1337   -2.7366   20.9169 O   0  0  0  0  0  0  0  0  0  0  0  0
    6.9274   -3.2267   20.9522 N   0  0  0  0  0  0  0  0  0  0  0  0
    5.4970   -2.9493   21.1218 C   0  0  0  0  0  0  0  0  0  0  0  0
    5.2831   -1.9018   21.3308 H   0  0  0  0  0  0  0  0  0  0  0  0
    5.0040   -3.1771   20.1679 H   0  0  0  0  0  0  0  0  0  0  0  0
    4.9287   -3.8834   22.2010 C   0  0  0  0  0  0  0  0  0  0  0  0
    3.8530   -3.7511   22.3027 H   0  0  0  0  0  0  0  0  0  0  0  0
    5.3907   -3.6665   23.1795 H   0  0  0  0  0  0  0  0  0  0  0  0
    5.1240   -5.2468   21.8410 O   0  0  0  0  0  0  0  0  0  0  0  0
    6.4996   -5.5605   21.6592 C   0  0  0  0  0  0  0  0  0  0  0  0
    7.0257   -5.4733   22.6241 H   0  0  0  0  0  0  0  0  0  0  0  0
    6.5397   -6.6033   21.3251 H   0  0  0  0  0  0  0  0  0  0  0  0
    7.1385   -4.6500   20.6068 C   0  0  0  0  0  0  0  0  0  0  0  0
    6.6587   -4.8552   19.6353 H   0  0  0  0  0  0  0  0  0  0  0  0
    8.2041   -4.8602   20.5095 H   0  0  0  0  0  0  0  0  0  0  0  0
    7.0824   -0.5518   22.6700 C   0  0  0  0  0  0  0  0  0  0  0  0
    6.1658    0.0444   22.6818 H   0  0  0  0  0  0  0  0  0  0  0  0
    6.8451   -1.4993   23.1651 H   0  0  0  0  0  0  0  0  0  0  0  0
    8.1866    0.2115   23.4260 C   0  0  2  0  0  0  0  0  0  0  0  0
    8.1149    0.0952   24.5125 H   0  0  0  0  0  0  0  0  0  0  0  0
    8.1873    1.6810   22.9507 C   0  0  0  0  0  0  0  0  0  0  0  0
    8.8674    2.2776   23.5706 H   0  0  0  0  0  0  0  0  0  0  0  0
    7.1990    2.1551   23.0054 H   0  0  0  0  0  0  0  0  0  0  0  0
    8.7193    1.5578   21.4898 C   0  0  0  0  0  0  0  0  0  0  0  0
    9.6267    2.1516   21.3474 H   0  0  0  0  0  0  0  0  0  0  0  0
    7.9988    1.9198   20.7475 H   0  0  0  0  0  0  0  0  0  0  0  0
    9.0132    0.0388   21.3461 C   0  0  1  0  0  0  0  0  0  0  0  0
    9.7281   -0.2010   20.5553 H   0  0  0  0  0  0  0  0  0  0  0  0
    9.4664   -0.3132   22.7687 C   0  0  0  0  0  0  0  0  0  0  0  0
    9.6494   -1.3827   22.9082 H   0  0  0  0  0  0  0  0  0  0  0  0
   10.3636    0.2338   23.0865 H   0  0  0  0  0  0  0  0  0  0  0  0
    5.5684    0.4150   20.2373 C   0  0  0  0  0  0  0  0  0  0  0  0
    5.0579    0.3818   21.2001 H   0  0  0  0  0  0  0  0  0  0  0  0
    4.9877    1.1107   19.1765 C   0  0  0  0  0  0  0  0  0  0  0  0
    4.0765    1.6830   19.3123 H   0  0  0  0  0  0  0  0  0  0  0  0
  1  2  1  0
  2  3  2  0
  3  4  1  0
  4  5  1  0
  4  6  2  0
  6  7  1  0
  7  8  1  6
  8  9  2  0
  8 10  1  0
 10 11  1  0
 11 12  1  0
 11 13  1  0
 11 14  1  0
 14 15  1  0
 14 16  1  0
 14 17  1  0
 17 18  1  0
 18 19  1  0
 18 20  1  0
 18 21  1  0
 21 22  1  0
 21 23  1  0
  7 24  1  0
 24 25  1  0
 24 26  1  0
 24 27  1  0
 27 28  1  1
 27 29  1  0
 29 30  1  0
 29 31  1  0
 29 32  1  0
 32 33  1  0
 32 34  1  0
 32 35  1  0
 35 36  1  6
 35 37  1  0
 37 38  1  0
 37 39  1  0
  6 40  1  0
 40 41  1  0
 40 42  2  0
 42 43  1  0
 42  2  1  0
 35  7  1  0
 21 10  1  0
 37 27  1  0
M  END
>  <cnnaffinity>  (1) 
-4.95791

>  <filename>  (1) 
O=C(N1CCOCC1)[C@@]1(c2cccnc2)C[C@@H]2CC[C@H]1C2

$$$$
