
     RDKit          3D

 25 26  0  0  0  0  0  0  0  0999 V2000
    4.9839    1.8215   16.9853 H   0  0  0  0  0  0  0  0  0  0  0  0
    5.4416    1.2861   17.8154 C   0  0  0  0  0  0  0  0  0  0  0  0
    6.6007    0.6519   17.5604 N   0  0  0  0  0  0  0  0  0  0  0  0
    7.1939    0.0094   18.5799 C   0  0  0  0  0  0  0  0  0  0  0  0
    8.1354   -0.4865   18.3480 H   0  0  0  0  0  0  0  0  0  0  0  0
    6.6858   -0.0405   19.9003 C   0  0  0  0  0  0  0  0  0  0  0  0
    7.3580   -0.7003   20.9497 N   0  0  0  0  0  0  0  0  0  0  0  0
    7.5382   -1.7039   20.9116 H   0  0  0  0  0  0  0  0  0  0  0  0
    7.4047   -0.2452   22.2562 C   0  0  0  0  0  0  0  0  0  0  0  0
    7.2786    1.0346   22.8445 C   0  0  0  0  0  0  0  0  0  0  0  0
    7.0698    1.9781   22.3596 H   0  0  0  0  0  0  0  0  0  0  0  0
    7.4682    0.9817   24.1591 N   0  0  0  0  0  0  0  0  0  0  0  0
    7.7187   -0.2980   24.4344 N   0  0  0  0  0  0  0  0  0  0  0  0
    7.8992   -0.5463   25.4039 H   0  0  0  0  0  0  0  0  0  0  0  0
    7.6952   -1.0898   23.3135 C   0  0  0  0  0  0  0  0  0  0  0  0
    7.9673   -2.5284   23.2226 C   0  0  0  0  0  0  0  0  0  0  0  0
    7.8891   -3.1473   22.1719 O   0  0  0  0  0  0  0  0  0  0  0  0
    8.3994   -3.2345   24.5645 C   0  0  0  0  0  0  0  0  0  0  0  0
    9.5029   -2.6398   25.0654 F   0  0  0  0  0  0  0  0  0  0  0  0
    8.6546   -4.5296   24.4259 F   0  0  0  0  0  0  0  0  0  0  0  0
    7.4422   -3.0911   25.5073 F   0  0  0  0  0  0  0  0  0  0  0  0
    5.4609    0.6028   20.1299 C   0  0  0  0  0  0  0  0  0  0  0  0
    5.0399    0.5764   21.1352 H   0  0  0  0  0  0  0  0  0  0  0  0
    4.8360    1.2747   19.0753 C   0  0  0  0  0  0  0  0  0  0  0  0
    3.9018    1.8021   19.2300 H   0  0  0  0  0  0  0  0  0  0  0  0
  1  2  1  0
  2  3  2  0
  3  4  1  0
  4  5  1  0
  4  6  2  0
  6  7  1  0
  7  8  1  0
  7  9  1  0
  9 10  1  0
 10 11  1  0
 10 12  2  0
 12 13  1  0
 13 14  1  0
 13 15  1  0
 15 16  1  0
 16 17  2  0
 16 18  1  0
 18 19  1  0
 18 20  1  0
 18 21  1  0
  6 22  1  0
 22 23  1  0
 22 24  2  0
 24 25  1  0
 24  2  1  0
 15  9  2  0
M  END
>  <cnnaffinity>  (1) 
-5.10732

>  <filename>  (1) 
O=C(c1[nH]ncc1Nc1cccnc1)C(F)(F)F

$$$$
