
     RDKit          3D

 37 39  0  0  0  0  0  0  0  0999 V2000
    4.9460    1.8564   16.9418 H   0  0  0  0  0  0  0  0  0  0  0  0
    5.4187    1.3301   17.7713 C   0  0  0  0  0  0  0  0  0  0  0  0
    6.5784    0.7080   17.5050 N   0  0  0  0  0  0  0  0  0  0  0  0
    7.1753    0.0673   18.5192 C   0  0  0  0  0  0  0  0  0  0  0  0
    8.1191   -0.4133   18.2614 H   0  0  0  0  0  0  0  0  0  0  0  0
    6.6727   -0.0099   19.8352 C   0  0  0  0  0  0  0  0  0  0  0  0
    7.3924   -0.7439   20.9500 C   0  0  2  0  0  0  0  0  0  0  0  0
    8.3067   -1.1869   20.5383 H   0  0  0  0  0  0  0  0  0  0  0  0
    6.6109   -1.9003   21.6054 C   0  0  0  0  0  0  0  0  0  0  0  0
    5.5254   -1.6905   21.5947 H   0  0  0  0  0  0  0  0  0  0  0  0
    6.7622   -2.8563   21.0901 H   0  0  0  0  0  0  0  0  0  0  0  0
    7.2057   -1.9192   22.9382 N   0  0  0  0  0  0  0  0  0  0  0  0
    6.7048   -2.5374   23.5709 H   0  0  0  0  0  0  0  0  0  0  0  0
    7.1814   -0.5383   23.3925 C   0  0  0  0  0  0  0  0  0  0  0  0
    6.1695   -0.1448   23.6180 H   0  0  0  0  0  0  0  0  0  0  0  0
    7.7784   -0.4210   24.3059 H   0  0  0  0  0  0  0  0  0  0  0  0
    7.7647    0.1742   22.1673 C   0  0  1  0  0  0  0  0  0  0  0  0
    7.3467    1.1706   22.0607 H   0  0  0  0  0  0  0  0  0  0  0  0
    9.2539    0.4331   22.3025 C   0  0  0  0  0  0  0  0  0  0  0  0
    9.7242    1.5521   22.1851 O   0  0  0  0  0  0  0  0  0  0  0  0
   10.0273   -0.6612   22.5396 N   0  0  0  0  0  0  0  0  0  0  0  0
    9.5516   -1.4787   22.8927 H   0  0  0  0  0  0  0  0  0  0  0  0
   11.4689   -0.5147   22.6991 C   0  0  0  0  0  0  0  0  0  0  0  0
   11.9044   -1.5201   22.6466 H   0  0  0  0  0  0  0  0  0  0  0  0
   11.8644    0.0489   21.8401 H   0  0  0  0  0  0  0  0  0  0  0  0
   11.8481    0.1719   24.0040 C   0  0  0  0  0  0  0  0  0  0  0  0
   11.3032   -0.2188   24.8669 H   0  0  0  0  0  0  0  0  0  0  0  0
   13.2669    0.6037   24.2782 C   0  0  0  0  0  0  0  0  0  0  0  0
   13.6419    0.4138   25.2803 H   0  0  0  0  0  0  0  0  0  0  0  0
   14.0247    0.5094   23.4990 H   0  0  0  0  0  0  0  0  0  0  0  0
   12.1959    1.6372   24.0938 C   0  0  0  0  0  0  0  0  0  0  0  0
   12.1886    2.2178   23.1695 H   0  0  0  0  0  0  0  0  0  0  0  0
   11.8246    2.1789   24.9599 H   0  0  0  0  0  0  0  0  0  0  0  0
    5.4610    0.6529   20.0819 C   0  0  0  0  0  0  0  0  0  0  0  0
    5.0354    0.6643   21.0889 H   0  0  0  0  0  0  0  0  0  0  0  0
    4.8239    1.3226   19.0368 C   0  0  0  0  0  0  0  0  0  0  0  0
    3.8886    1.8471   19.1964 H   0  0  0  0  0  0  0  0  0  0  0  0
  1  2  1  0
  2  3  2  0
  3  4  1  0
  4  5  1  0
  4  6  2  0
  6  7  1  0
  7  8  1  6
  7  9  1  0
  9 10  1  0
  9 11  1  0
  9 12  1  0
 12 13  1  0
 12 14  1  0
 14 15  1  0
 14 16  1  0
 14 17  1  0
 17 18  1  6
 17 19  1  0
 19 20  2  0
 19 21  1  0
 21 22  1  0
 21 23  1  0
 23 24  1  0
 23 25  1  0
 23 26  1  0
 26 27  1  0
 26 28  1  0
 28 29  1  0
 28 30  1  0
 28 31  1  0
 31 32  1  0
 31 33  1  0
  6 34  1  0
 34 35  1  0
 34 36  2  0
 36 37  1  0
 36  2  1  0
 17  7  1  0
 31 26  1  0
M  END
>  <cnnaffinity>  (1) 
-4.4684

>  <filename>  (1) 
O=C(NCC1CC1)[C@@H]1CNC[C@H]1c1cccnc1

$$$$
