
     RDKit          3D

 40 42  0  0  0  0  0  0  0  0999 V2000
    9.3418   -0.1765   20.0429 O   0  0  0  0  0  0  0  0  0  0  0  0
    8.6312   -0.5770   20.9631 C   0  0  0  0  0  0  0  0  0  0  0  0
    7.2505   -0.5052   20.8197 N   0  0  0  0  0  0  0  0  0  0  0  0
    6.5941    0.0769   19.7258 C   0  0  0  0  0  0  0  0  0  0  0  0
    5.3550    0.6426   19.9801 C   0  0  0  0  0  0  0  0  0  0  0  0
    4.7211    1.3308   18.9471 C   0  0  0  0  0  0  0  0  0  0  0  0
    5.3149    1.4048   17.6810 C   0  0  0  0  0  0  0  0  0  0  0  0
    6.4850    0.8035   17.3982 N   0  0  0  0  0  0  0  0  0  0  0  0
    7.1145    0.1655   18.4070 C   0  0  0  0  0  0  0  0  0  0  0  0
    8.0704   -0.2985   18.1812 H   0  0  0  0  0  0  0  0  0  0  0  0
    4.8221    1.9767   16.9028 H   0  0  0  0  0  0  0  0  0  0  0  0
    3.7814    1.8355   19.1258 H   0  0  0  0  0  0  0  0  0  0  0  0
    4.9342    0.5819   20.9806 H   0  0  0  0  0  0  0  0  0  0  0  0
    6.6985   -0.6875   21.6565 H   0  0  0  0  0  0  0  0  0  0  0  0
    9.2856   -1.3869   22.1316 C   0  0  0  0  0  0  0  0  0  0  0  0
    9.0341   -2.8302   21.7732 C   0  0  0  0  0  0  0  0  0  0  0  0
    9.3109   -3.6065   23.0428 C   0  0  0  0  0  0  0  0  0  0  0  0
    8.6798   -2.7288   24.1035 C   0  0  0  0  0  0  0  0  0  0  0  0
    8.8040   -1.3707   23.5505 N   0  0  0  0  0  0  0  0  0  0  0  0
    9.5782   -0.2254   24.6261 S   0  0  0  0  0  0  0  0  0  0  0  0
   10.9138   -0.7107   24.9913 O   0  0  0  0  0  0  0  0  0  0  0  0
    9.6547    1.0745   23.9423 O   0  0  0  0  0  0  0  0  0  0  0  0
    8.4787   -0.1368   26.0688 C   0  0  0  0  0  0  0  0  0  0  0  0
    7.0783   -0.1186   25.9493 C   0  0  0  0  0  0  0  0  0  0  0  0
    6.2919    0.0462   27.0922 C   0  0  0  0  0  0  0  0  0  0  0  0
    6.8868    0.2303   28.3438 C   0  0  0  0  0  0  0  0  0  0  0  0
    5.8183    0.4709   29.9109 Br  0  0  0  0  0  0  0  0  0  0  0  0
    8.2783    0.2142   28.4466 C   0  0  0  0  0  0  0  0  0  0  0  0
    9.0681   -0.0184   27.3302 C   0  0  0  0  0  0  0  0  0  0  0  0
   10.1465   -0.0806   27.4713 H   0  0  0  0  0  0  0  0  0  0  0  0
    8.7491    0.3438   29.4171 H   0  0  0  0  0  0  0  0  0  0  0  0
    5.2092    0.0384   27.0152 H   0  0  0  0  0  0  0  0  0  0  0  0
    6.5772   -0.2327   24.9880 H   0  0  0  0  0  0  0  0  0  0  0  0
    9.1732   -2.8655   25.0689 H   0  0  0  0  0  0  0  0  0  0  0  0
    7.6209   -2.9764   24.2294 H   0  0  0  0  0  0  0  0  0  0  0  0
    8.8675   -4.6048   23.0204 H   0  0  0  0  0  0  0  0  0  0  0  0
   10.3848   -3.6957   23.2304 H   0  0  0  0  0  0  0  0  0  0  0  0
    7.9817   -2.9635   21.5054 H   0  0  0  0  0  0  0  0  0  0  0  0
    9.6425   -3.1206   20.9212 H   0  0  0  0  0  0  0  0  0  0  0  0
   10.3606   -1.1859   22.1193 H   0  0  0  0  0  0  0  0  0  0  0  0
  1  2  2  0
  2  3  1  0
  3  4  1  0
  4  5  2  0
  5  6  1  0
  6  7  2  0
  7  8  1  0
  8  9  2  0
  9 10  1  0
  7 11  1  0
  6 12  1  0
  5 13  1  0
  3 14  1  0
  2 15  1  0
 15 16  1  0
 16 17  1  0
 17 18  1  0
 18 19  1  0
 19 20  1  0
 20 21  2  0
 20 22  2  0
 20 23  1  0
 23 24  2  0
 24 25  1  0
 25 26  2  0
 26 27  1  0
 26 28  1  0
 28 29  2  0
 29 30  1  0
 28 31  1  0
 25 32  1  0
 24 33  1  0
 18 34  1  0
 18 35  1  0
 17 36  1  0
 17 37  1  0
 16 38  1  0
 16 39  1  0
 15 40  1  0
  9  4  1  0
 19 15  1  0
 29 23  1  0
M  END
>  <cnnaffinity>  (1) 
-5.46159

>  <filename>  (1) 
O=C(Nc1cccnc1)C1CCCN1S(=O)(=O)c1ccc(Br)cc1

$$$$
