
     RDKit          3D

 32 34  0  0  0  0  0  0  0  0999 V2000
    8.0903   -1.6680   20.5850 O   0  0  0  0  0  0  0  0  0  0  0  0
    7.4002   -0.7027   20.9160 C   0  0  0  0  0  0  0  0  0  0  0  0
    6.6584   -0.0003   19.8780 C   0  0  0  0  0  0  0  0  0  0  0  0
    5.4516    0.6506   20.1627 C   0  0  0  0  0  0  0  0  0  0  0  0
    4.8305    1.3023   19.1044 C   0  0  0  0  0  0  0  0  0  0  0  0
    5.4092    1.2913   17.8305 C   0  0  0  0  0  0  0  0  0  0  0  0
    6.5705    0.6627   17.5719 N   0  0  0  0  0  0  0  0  0  0  0  0
    7.1810    0.0309   18.5829 C   0  0  0  0  0  0  0  0  0  0  0  0
    8.1370   -0.4516   18.3941 H   0  0  0  0  0  0  0  0  0  0  0  0
    4.8933    1.7987   17.0210 H   0  0  0  0  0  0  0  0  0  0  0  0
    3.8939    1.8259   19.2589 H   0  0  0  0  0  0  0  0  0  0  0  0
    5.0061    0.6515   21.1628 H   0  0  0  0  0  0  0  0  0  0  0  0
    7.2961   -0.2768   22.3367 C   0  0  0  0  0  0  0  0  0  0  0  0
    7.1598    0.9847   22.7145 N   0  0  0  0  0  0  0  0  0  0  0  0
    7.0841    0.9769   24.0969 C   0  0  0  0  0  0  0  0  0  0  0  0
    7.1402   -0.3050   24.5595 C   0  0  0  0  0  0  0  0  0  0  0  0
    7.2900   -1.1188   23.4542 N   0  0  0  0  0  0  0  0  0  0  0  0
    7.2190   -2.5901   23.4686 C   0  0  0  0  0  0  0  0  0  0  0  0
    8.1070   -3.1583   24.5528 C   0  0  0  0  0  0  0  0  0  0  0  0
    7.5242   -3.6527   25.7216 C   0  0  0  0  0  0  0  0  0  0  0  0
    8.3545   -4.1581   26.7124 C   0  0  0  0  0  0  0  0  0  0  0  0
    7.5830   -4.8881   28.2997 Br  0  0  0  0  0  0  0  0  0  0  0  0
    9.7389   -4.1545   26.5077 C   0  0  0  0  0  0  0  0  0  0  0  0
   10.3083   -3.6861   25.3863 N   0  0  0  0  0  0  0  0  0  0  0  0
    9.5108   -3.1833   24.4303 C   0  0  0  0  0  0  0  0  0  0  0  0
   10.2672   -2.5533   22.9995 Cl  0  0  0  0  0  0  0  0  0  0  0  0
   10.3746   -4.5465   27.2914 H   0  0  0  0  0  0  0  0  0  0  0  0
    6.4438   -3.6521   25.8684 H   0  0  0  0  0  0  0  0  0  0  0  0
    7.5031   -3.0015   22.4914 H   0  0  0  0  0  0  0  0  0  0  0  0
    6.1787   -2.8861   23.6487 H   0  0  0  0  0  0  0  0  0  0  0  0
    7.0819   -0.6207   25.5972 H   0  0  0  0  0  0  0  0  0  0  0  0
    6.9851    1.8643   24.7131 H   0  0  0  0  0  0  0  0  0  0  0  0
  1  2  2  0
  2  3  1  0
  3  4  2  0
  4  5  1  0
  5  6  2  0
  6  7  1  0
  7  8  2  0
  8  9  1  0
  6 10  1  0
  5 11  1  0
  4 12  1  0
  2 13  1  0
 13 14  2  0
 14 15  1  0
 15 16  2  0
 16 17  1  0
 17 18  1  0
 18 19  1  0
 19 20  2  0
 20 21  1  0
 21 22  1  0
 21 23  2  0
 23 24  1  0
 24 25  2  0
 25 26  1  0
 23 27  1  0
 20 28  1  0
 18 29  1  0
 18 30  1  0
 16 31  1  0
 15 32  1  0
  8  3  1  0
 17 13  1  0
 25 19  1  0
M  END
>  <cnnaffinity>  (1) 
-5.9711

>  <filename>  (1) 
O=C(c1cccnc1)c1nccn1Cc1cc(Br)cnc1Cl

$$$$
