
     RDKit          3D

 33 35  0  0  0  0  0  0  0  0999 V2000
    7.0518   -4.0987   24.7144 O   0  0  0  0  0  0  0  0  0  0  0  0
    6.4880   -3.0327   24.5048 C   0  0  0  0  0  0  0  0  0  0  0  0
    7.3457   -1.8005   24.4500 C   0  0  0  0  0  0  0  0  0  0  0  0
    7.6704   -1.5989   23.0258 C   0  0  0  0  0  0  0  0  0  0  0  0
    8.8292   -2.0212   22.4510 C   0  0  0  0  0  0  0  0  0  0  0  0
    8.9053   -1.4953   20.7903 S   0  0  0  0  0  0  0  0  0  0  0  0
    7.3188   -0.7567   21.0099 C   0  0  0  0  0  0  0  0  0  0  0  0
    6.6249   -0.0318   19.9537 C   0  0  0  0  0  0  0  0  0  0  0  0
    5.4192    0.6423   20.1754 C   0  0  0  0  0  0  0  0  0  0  0  0
    4.8371    1.2994   19.0926 C   0  0  0  0  0  0  0  0  0  0  0  0
    5.4577    1.2826   17.8416 C   0  0  0  0  0  0  0  0  0  0  0  0
    6.6210    0.6391   17.6421 N   0  0  0  0  0  0  0  0  0  0  0  0
    7.1873    0.0001   18.6780 C   0  0  0  0  0  0  0  0  0  0  0  0
    8.1279   -0.5134   18.5010 H   0  0  0  0  0  0  0  0  0  0  0  0
    4.9874    1.7988   17.0053 H   0  0  0  0  0  0  0  0  0  0  0  0
    3.9054    1.8350   19.2110 H   0  0  0  0  0  0  0  0  0  0  0  0
    4.9512    0.6609   21.1603 H   0  0  0  0  0  0  0  0  0  0  0  0
    6.8067   -0.9111   22.2069 N   0  0  0  0  0  0  0  0  0  0  0  0
    9.5997   -2.5677   22.9799 H   0  0  0  0  0  0  0  0  0  0  0  0
    8.2556   -1.9385   25.0341 H   0  0  0  0  0  0  0  0  0  0  0  0
    6.8001   -0.9365   24.8342 H   0  0  0  0  0  0  0  0  0  0  0  0
    5.1555   -2.8588   24.3618 O   0  0  0  0  0  0  0  0  0  0  0  0
    4.3858   -3.9528   24.0628 C   0  0  0  0  0  0  0  0  0  0  0  0
    4.9224   -5.1301   23.5154 C   0  0  0  0  0  0  0  0  0  0  0  0
    4.0855   -6.1948   23.1575 C   0  0  0  0  0  0  0  0  0  0  0  0
    2.6990   -6.0868   23.3140 C   0  0  0  0  0  0  0  0  0  0  0  0
    1.6467   -7.3849   22.7878 Cl  0  0  0  0  0  0  0  0  0  0  0  0
    2.1653   -4.9337   23.9055 C   0  0  0  0  0  0  0  0  0  0  0  0
    3.0054   -3.8741   24.2875 C   0  0  0  0  0  0  0  0  0  0  0  0
    2.2732   -2.2930   25.0917 Br  0  0  0  0  0  0  0  0  0  0  0  0
    1.0961   -4.8491   24.0634 H   0  0  0  0  0  0  0  0  0  0  0  0
    4.5187   -7.1134   22.7798 H   0  0  0  0  0  0  0  0  0  0  0  0
    5.9948   -5.2143   23.3754 H   0  0  0  0  0  0  0  0  0  0  0  0
  1  2  2  0
  2  3  1  0
  3  4  1  0
  4  5  2  0
  5  6  1  0
  6  7  1  0
  7  8  1  0
  8  9  2  0
  9 10  1  0
 10 11  2  0
 11 12  1  0
 12 13  2  0
 13 14  1  0
 11 15  1  0
 10 16  1  0
  9 17  1  0
  7 18  2  0
  5 19  1  0
  3 20  1  0
  3 21  1  0
  2 22  1  0
 22 23  1  0
 23 24  2  0
 24 25  1  0
 25 26  2  0
 26 27  1  0
 26 28  1  0
 28 29  2  0
 29 30  1  0
 28 31  1  0
 25 32  1  0
 24 33  1  0
 18  4  1  0
 29 23  1  0
 13  8  1  0
M  END
>  <cnnaffinity>  (1) 
-5.66341

>  <filename>  (1) 
O=C(Cc1csc(-c2cccnc2)n1)Oc1ccc(Cl)cc1Br

$$$$
