
     RDKit          3D

 29 30  0  0  0  0  0  0  0  0999 V2000
    4.9393    1.7800   16.9818 H   0  0  0  0  0  0  0  0  0  0  0  0
    5.4246    1.2694   17.8121 C   0  0  0  0  0  0  0  0  0  0  0  0
    6.5715    0.6380   17.5205 N   0  0  0  0  0  0  0  0  0  0  0  0
    7.2002    0.0255   18.5242 C   0  0  0  0  0  0  0  0  0  0  0  0
    8.1321   -0.4855   18.2926 H   0  0  0  0  0  0  0  0  0  0  0  0
    6.7471    0.0114   19.8496 C   0  0  0  0  0  0  0  0  0  0  0  0
    7.6741   -0.6386   20.8297 C   0  0  0  0  0  0  0  0  0  0  0  0
    8.7539   -1.0616   20.4670 O   0  0  0  0  0  0  0  0  0  0  0  0
    7.2341   -0.8120   22.2643 C   0  0  0  0  0  0  0  0  0  0  0  0
    8.1386   -0.9390   22.8690 H   0  0  0  0  0  0  0  0  0  0  0  0
    6.7270    0.1101   22.5850 H   0  0  0  0  0  0  0  0  0  0  0  0
    6.2675   -2.0090   22.4200 C   0  0  0  0  0  0  0  0  0  0  0  0
    5.9078   -2.0048   23.4546 H   0  0  0  0  0  0  0  0  0  0  0  0
    5.3970   -1.8228   21.7840 H   0  0  0  0  0  0  0  0  0  0  0  0
    6.7779   -3.4125   22.1279 C   0  0  0  0  0  0  0  0  0  0  0  0
    7.4032   -4.1408   23.1609 C   0  0  0  0  0  0  0  0  0  0  0  0
    7.5602   -3.6592   24.1267 H   0  0  0  0  0  0  0  0  0  0  0  0
    7.7512   -5.4839   23.0122 C   0  0  0  0  0  0  0  0  0  0  0  0
    8.2307   -6.0169   23.8311 H   0  0  0  0  0  0  0  0  0  0  0  0
    7.4409   -6.1491   21.8228 C   0  0  0  0  0  0  0  0  0  0  0  0
    7.5964   -7.2188   21.7502 H   0  0  0  0  0  0  0  0  0  0  0  0
    6.8445   -5.4595   20.7637 C   0  0  0  0  0  0  0  0  0  0  0  0
    6.5933   -5.9685   19.8354 H   0  0  0  0  0  0  0  0  0  0  0  0
    6.5338   -4.1028   20.9171 C   0  0  0  0  0  0  0  0  0  0  0  0
    5.7620   -3.3122   19.5572 Cl  0  0  0  0  0  0  0  0  0  0  0  0
    5.5183    0.6332   20.1346 C   0  0  0  0  0  0  0  0  0  0  0  0
    5.0803    0.6322   21.1384 H   0  0  0  0  0  0  0  0  0  0  0  0
    4.8537    1.2795   19.0898 C   0  0  0  0  0  0  0  0  0  0  0  0
    3.9155    1.8018   19.2482 H   0  0  0  0  0  0  0  0  0  0  0  0
  1  2  1  0
  2  3  2  0
  3  4  1  0
  4  5  1  0
  4  6  2  0
  6  7  1  0
  7  8  2  0
  7  9  1  0
  9 10  1  0
  9 11  1  0
  9 12  1  0
 12 13  1  0
 12 14  1  0
 12 15  1  0
 15 16  2  0
 16 17  1  0
 16 18  1  0
 18 19  1  0
 18 20  2  0
 20 21  1  0
 20 22  1  0
 22 23  1  0
 22 24  2  0
 24 25  1  0
  6 26  1  0
 26 27  1  0
 26 28  2  0
 28 29  1  0
 28  2  1  0
 24 15  1  0
M  END
>  <cnnaffinity>  (1) 
-4.11811

>  <filename>  (1) 
O=C(CCc1ccccc1Cl)c1cccnc1

$$$$
