
     RDKit          3D

 35 37  0  0  0  0  0  0  0  0999 V2000
    5.4237   -2.5652   20.9303 H   0  0  0  0  0  0  0  0  0  0  0  0
    5.9232   -2.4629   21.8923 C   0  0  0  0  0  0  0  0  0  0  0  0
    5.2115   -3.3134   22.9049 C   0  0  0  0  0  0  0  0  0  0  0  0
    4.4051   -4.1445   22.5224 O   0  0  0  0  0  0  0  0  0  0  0  0
    5.4981   -3.0445   24.2131 N   0  0  0  0  0  0  0  0  0  0  0  0
    6.1874   -2.3272   24.3460 H   0  0  0  0  0  0  0  0  0  0  0  0
    5.0190   -3.6763   25.3531 C   0  0  0  0  0  0  0  0  0  0  0  0
    3.7909   -4.3345   25.3722 C   0  0  0  0  0  0  0  0  0  0  0  0
    3.1668   -4.3394   24.4907 H   0  0  0  0  0  0  0  0  0  0  0  0
    3.4240   -4.9857   26.5470 C   0  0  0  0  0  0  0  0  0  0  0  0
    2.4672   -5.5057   26.6166 H   0  0  0  0  0  0  0  0  0  0  0  0
    4.1760   -5.0199   27.6561 N   0  0  0  0  0  0  0  0  0  0  0  0
    5.3422   -4.3653   27.6174 C   0  0  0  0  0  0  0  0  0  0  0  0
    5.9337   -4.3967   28.5332 H   0  0  0  0  0  0  0  0  0  0  0  0
    5.7995   -3.6582   26.5108 C   0  0  0  0  0  0  0  0  0  0  0  0
    6.7422   -3.1267   26.5502 H   0  0  0  0  0  0  0  0  0  0  0  0
    7.0449   -1.7312   21.9968 C   0  0  0  0  0  0  0  0  0  0  0  0
    7.5485   -0.7426   20.9946 C   0  0  0  0  0  0  0  0  0  0  0  0
    6.7160   -0.0774   19.9750 C   0  0  0  0  0  0  0  0  0  0  0  0
    7.2639   -0.0011   18.6900 C   0  0  0  0  0  0  0  0  0  0  0  0
    8.2380   -0.4504   18.4958 H   0  0  0  0  0  0  0  0  0  0  0  0
    6.6638    0.6049   17.6672 N   0  0  0  0  0  0  0  0  0  0  0  0
    5.4868    1.2026   17.9097 C   0  0  0  0  0  0  0  0  0  0  0  0
    5.0441    1.7192   17.0611 H   0  0  0  0  0  0  0  0  0  0  0  0
    4.8604    1.1972   19.1595 C   0  0  0  0  0  0  0  0  0  0  0  0
    3.9288    1.7347   19.2855 H   0  0  0  0  0  0  0  0  0  0  0  0
    5.4736    0.5251   20.2175 C   0  0  0  0  0  0  0  0  0  0  0  0
    5.0197    0.4931   21.2091 H   0  0  0  0  0  0  0  0  0  0  0  0
    8.8034   -0.5067   21.0784 N   0  0  0  0  0  0  0  0  0  0  0  0
    9.3636   -1.2669   22.1950 C   0  0  0  0  0  0  0  0  0  0  0  0
    9.9739   -2.0650   21.7596 H   0  0  0  0  0  0  0  0  0  0  0  0
   10.0317   -0.6197   22.7688 H   0  0  0  0  0  0  0  0  0  0  0  0
    8.1746   -1.8353   23.0144 C   0  0  0  0  0  0  0  0  0  0  0  0
    7.9807   -1.1692   23.8673 H   0  0  0  0  0  0  0  0  0  0  0  0
    8.3400   -2.8611   23.3699 H   0  0  0  0  0  0  0  0  0  0  0  0
  1  2  1  0
  2  3  1  0
  3  4  2  0
  3  5  1  0
  5  6  1  0
  5  7  1  0
  7  8  2  0
  8  9  1  0
  8 10  1  0
 10 11  1  0
 10 12  2  0
 12 13  1  0
 13 14  1  0
 13 15  2  0
 15 16  1  0
  2 17  2  3
 17 18  1  0
 18 19  1  0
 19 20  2  0
 20 21  1  0
 20 22  1  0
 22 23  2  0
 23 24  1  0
 23 25  1  0
 25 26  1  0
 25 27  2  0
 27 28  1  0
 18 29  2  0
 29 30  1  0
 30 31  1  0
 30 32  1  0
 30 33  1  0
 33 34  1  0
 33 35  1  0
 15  7  1  0
 33 17  1  0
 27 19  1  0
M  END
>  <cnnaffinity>  (1) 
-5.42538

>  <filename>  (1) 
O=C(C=C1CCN=C1c1cccnc1)Nc1ccncc1

$$$$
