
     RDKit          3D

 38 40  0  0  0  0  0  0  0  0999 V2000
    7.6246    0.7582   23.0315 O   0  0  0  0  0  0  0  0  0  0  0  0
    8.1134    0.5143   21.9546 C   0  0  0  0  0  0  0  0  0  0  0  0
    9.2266    1.1690   21.4420 N   0  0  0  0  0  0  0  0  0  0  0  0
    9.8108    2.3363   21.9781 C   0  0  0  0  0  0  0  0  0  0  0  0
   11.2017    2.4959   21.9055 C   0  0  0  0  0  0  0  0  0  0  0  0
   11.9290    1.5000   21.3275 F   0  0  0  0  0  0  0  0  0  0  0  0
   11.8588    3.6285   22.3763 C   0  0  0  0  0  0  0  0  0  0  0  0
   11.0846    4.6809   22.9303 C   0  0  0  0  0  0  0  0  0  0  0  0
    9.6902    4.5540   22.9722 C   0  0  0  0  0  0  0  0  0  0  0  0
    9.0620    3.3975   22.5004 C   0  0  0  0  0  0  0  0  0  0  0  0
    7.9846    3.3002   22.5225 H   0  0  0  0  0  0  0  0  0  0  0  0
    9.0832    5.3741   23.3577 H   0  0  0  0  0  0  0  0  0  0  0  0
   11.7783    5.9047   23.4986 C   0  0  0  0  0  0  0  0  0  0  0  0
   13.1079    6.0690   22.8084 N   0  0  0  0  0  4  0  0  0  0  0  0
   13.9517    4.8465   23.0911 C   0  0  0  0  0  0  0  0  0  0  0  0
   13.3674    3.7385   22.2187 C   0  0  0  0  0  0  0  0  0  0  0  0
   13.8329    2.7744   22.4382 H   0  0  0  0  0  0  0  0  0  0  0  0
   13.5955    3.9720   21.1689 H   0  0  0  0  0  0  0  0  0  0  0  0
   13.8652    4.5641   24.1453 H   0  0  0  0  0  0  0  0  0  0  0  0
   15.0079    5.0298   22.8768 H   0  0  0  0  0  0  0  0  0  0  0  0
   12.8471    5.9615   21.7952 H   0  0  0  0  0  0  0  0  0  0  0  0
   13.5947    6.9538   23.0155 H   0  0  0  0  0  0  0  0  0  0  0  0
   11.9410    5.7541   24.5696 H   0  0  0  0  0  0  0  0  0  0  0  0
   11.1637    6.7986   23.3774 H   0  0  0  0  0  0  0  0  0  0  0  0
    9.8799    0.5978   20.9179 H   0  0  0  0  0  0  0  0  0  0  0  0
    7.5092   -0.5658   20.9453 C   0  0  0  0  0  0  0  0  0  0  0  0
    6.7732   -1.4631   21.6425 F   0  0  0  0  0  0  0  0  0  0  0  0
    8.5684   -1.2677   20.3956 F   0  0  0  0  0  0  0  0  0  0  0  0
    6.6654    0.0151   19.8246 C   0  0  0  0  0  0  0  0  0  0  0  0
    5.4437    0.6516   20.0885 C   0  0  0  0  0  0  0  0  0  0  0  0
    4.8231    1.3243   19.0377 C   0  0  0  0  0  0  0  0  0  0  0  0
    5.4174    1.3021   17.7720 C   0  0  0  0  0  0  0  0  0  0  0  0
    6.5322    0.6110   17.4917 N   0  0  0  0  0  0  0  0  0  0  0  0
    7.1165   -0.0440   18.4966 C   0  0  0  0  0  0  0  0  0  0  0  0
    7.9883   -0.6443   18.2478 H   0  0  0  0  0  0  0  0  0  0  0  0
    4.9770    1.8597   16.9493 H   0  0  0  0  0  0  0  0  0  0  0  0
    3.8963    1.8625   19.1869 H   0  0  0  0  0  0  0  0  0  0  0  0
    4.9923    0.6146   21.0818 H   0  0  0  0  0  0  0  0  0  0  0  0
  1  2  2  0
  2  3  1  0
  3  4  1  0
  4  5  2  0
  5  6  1  0
  5  7  1  0
  7  8  2  0
  8  9  1  0
  9 10  2  0
 10 11  1  0
  9 12  1  0
  8 13  1  0
 13 14  1  0
 14 15  1  0
 15 16  1  0
 16 17  1  0
 16 18  1  0
 15 19  1  0
 15 20  1  0
 14 21  1  0
 14 22  1  0
 13 23  1  0
 13 24  1  0
  3 25  1  0
  2 26  1  0
 26 27  1  0
 26 28  1  0
 26 29  1  0
 29 30  2  0
 30 31  1  0
 31 32  2  0
 32 33  1  0
 33 34  2  0
 34 35  1  0
 32 36  1  0
 31 37  1  0
 30 38  1  0
 10  4  1  0
 34 29  1  0
 16  7  1  0
M  CHG  1  14   1
M  END
>  <cnnaffinity>  (1) 
-5.29413

>  <filename>  (1) 
O=C(Nc1ccc2c(c1F)CC[NH2+]C2)C(F)(F)c1cccnc1

$$$$
