
     RDKit          3D

 30 32  0  0  0  0  0  0  0  0999 V2000
    4.9386    1.8133   16.9742 H   0  0  0  0  0  0  0  0  0  0  0  0
    5.3994    1.2966   17.8142 C   0  0  0  0  0  0  0  0  0  0  0  0
    6.5646    0.6836   17.5696 N   0  0  0  0  0  0  0  0  0  0  0  0
    7.1620    0.0589   18.5943 C   0  0  0  0  0  0  0  0  0  0  0  0
    8.1276   -0.3974   18.3762 H   0  0  0  0  0  0  0  0  0  0  0  0
    6.6214   -0.0276   19.8869 C   0  0  0  0  0  0  0  0  0  0  0  0
    7.3664   -0.7665   20.9899 C   0  0  0  0  0  0  0  0  0  0  0  0
    7.4496   -1.8365   20.7692 H   0  0  0  0  0  0  0  0  0  0  0  0
    6.8154   -0.6681   21.9320 H   0  0  0  0  0  0  0  0  0  0  0  0
    8.7361   -0.2987   21.2242 N   0  0  0  0  0  0  0  0  0  0  0  0
    9.8123   -0.8798   20.6507 N   0  0  0  0  0  0  0  0  0  0  0  0
   10.8469   -0.2686   21.0893 N   0  0  0  0  0  0  0  0  0  0  0  0
   10.5064    0.7195   21.9539 N   0  0  0  0  0  0  0  0  0  0  0  0
    9.2049    0.6877   22.0107 C   0  0  0  0  0  0  0  0  0  0  0  0
    8.3943    1.4714   22.8083 N   0  0  0  0  0  0  0  0  0  0  0  0
    8.8680    1.8435   23.6133 H   0  0  0  0  0  0  0  0  0  0  0  0
    7.4688    2.3091   22.1998 C   0  0  0  0  0  0  0  0  0  0  0  0
    7.4665    2.4743   20.9995 O   0  0  0  0  0  0  0  0  0  0  0  0
    6.4719    2.8903   23.1059 C   0  0  0  0  0  0  0  0  0  0  0  0
    5.3282    3.9900   22.4218 S   0  0  0  0  0  0  0  0  0  0  0  0
    4.4498    4.0320   23.8863 C   0  0  0  0  0  0  0  0  0  0  0  0
    3.5493    4.6257   23.9491 H   0  0  0  0  0  0  0  0  0  0  0  0
    5.0044    3.2511   24.8591 C   0  0  0  0  0  0  0  0  0  0  0  0
    4.5945    3.1306   25.8548 H   0  0  0  0  0  0  0  0  0  0  0  0
    6.1778    2.5834   24.4128 C   0  0  0  0  0  0  0  0  0  0  0  0
    6.7576    1.8802   25.0099 H   0  0  0  0  0  0  0  0  0  0  0  0
    5.3927    0.6030   20.1142 C   0  0  0  0  0  0  0  0  0  0  0  0
    4.9504    0.6157   21.1114 H   0  0  0  0  0  0  0  0  0  0  0  0
    4.7770    1.2929   19.0660 C   0  0  0  0  0  0  0  0  0  0  0  0
    3.8505    1.8392   19.2097 H   0  0  0  0  0  0  0  0  0  0  0  0
  1  2  1  0
  2  3  2  0
  3  4  1  0
  4  5  1  0
  4  6  2  0
  6  7  1  0
  7  8  1  0
  7  9  1  0
  7 10  1  0
 10 11  1  0
 11 12  2  0
 12 13  1  0
 13 14  2  0
 14 15  1  0
 15 16  1  0
 15 17  1  0
 17 18  2  0
 17 19  1  0
 19 20  1  0
 20 21  1  0
 21 22  1  0
 21 23  2  0
 23 24  1  0
 23 25  1  0
 25 26  1  0
  6 27  1  0
 27 28  1  0
 27 29  2  0
 29 30  1  0
 29  2  1  0
 14 10  1  0
 25 19  2  0
M  END
>  <cnnaffinity>  (1) 
-4.77555

>  <filename>  (1) 
O=C(Nc1nnnn1Cc1cccnc1)c1cccs1

$$$$
