
     RDKit          3D

 30 32  0  0  0  0  0  0  0  0999 V2000
    4.9796    1.7903   17.0162 H   0  0  0  0  0  0  0  0  0  0  0  0
    5.4426    1.2546   17.8412 C   0  0  0  0  0  0  0  0  0  0  0  0
    6.5966    0.6165   17.5760 N   0  0  0  0  0  0  0  0  0  0  0  0
    7.2191   -0.0108   18.5854 C   0  0  0  0  0  0  0  0  0  0  0  0
    8.1703   -0.4885   18.3333 H   0  0  0  0  0  0  0  0  0  0  0  0
    6.7275   -0.0229   19.9158 C   0  0  0  0  0  0  0  0  0  0  0  0
    7.4144   -0.6314   21.0061 N   0  0  0  0  0  0  0  0  0  0  0  0
    7.9589   -1.4599   20.8457 H   0  0  0  0  0  0  0  0  0  0  0  0
    7.4292   -0.1992   22.3132 C   0  0  0  0  0  0  0  0  0  0  0  0
    7.0458    0.8840   22.6906 O   0  0  0  0  0  0  0  0  0  0  0  0
    8.0258   -1.2065   23.2652 C   0  0  0  0  0  0  0  0  0  0  0  0
    7.8037   -2.2274   22.9658 H   0  0  0  0  0  0  0  0  0  0  0  0
    7.6230   -1.0048   24.2556 H   0  0  0  0  0  0  0  0  0  0  0  0
    9.4706   -0.9355   23.2259 C   0  0  0  0  0  0  0  0  0  0  0  0
   10.1058   -0.0994   23.9561 N   0  0  0  0  0  0  0  0  0  0  0  0
   11.4285   -0.2047   23.5168 C   0  0  0  0  0  0  0  0  0  0  0  0
   12.5996    0.4112   23.9788 C   0  0  0  0  0  0  0  0  0  0  0  0
   12.5568    1.1536   24.7750 H   0  0  0  0  0  0  0  0  0  0  0  0
   13.8038    0.0184   23.3885 C   0  0  0  0  0  0  0  0  0  0  0  0
   14.7271    0.4815   23.7229 H   0  0  0  0  0  0  0  0  0  0  0  0
   13.8358   -0.9770   22.3839 C   0  0  0  0  0  0  0  0  0  0  0  0
   14.7963   -1.3267   22.0155 H   0  0  0  0  0  0  0  0  0  0  0  0
   12.6652   -1.5639   21.8850 C   0  0  0  0  0  0  0  0  0  0  0  0
   12.6808   -2.3126   21.0995 H   0  0  0  0  0  0  0  0  0  0  0  0
   11.4763   -1.1415   22.4757 C   0  0  0  0  0  0  0  0  0  0  0  0
   10.1909   -1.5798   22.2621 O   0  0  0  0  0  0  0  0  0  0  0  0
    5.5075    0.6236   20.1583 C   0  0  0  0  0  0  0  0  0  0  0  0
    5.1188    0.6527   21.1718 H   0  0  0  0  0  0  0  0  0  0  0  0
    4.8491    1.2624   19.1053 C   0  0  0  0  0  0  0  0  0  0  0  0
    3.9127    1.7895   19.2696 H   0  0  0  0  0  0  0  0  0  0  0  0
  1  2  1  0
  2  3  2  0
  3  4  1  0
  4  5  1  0
  4  6  2  0
  6  7  1  0
  7  8  1  0
  7  9  1  0
  9 10  2  0
  9 11  1  0
 11 12  1  0
 11 13  1  0
 11 14  1  0
 14 15  2  0
 15 16  1  0
 16 17  2  0
 17 18  1  0
 17 19  1  0
 19 20  1  0
 19 21  2  0
 21 22  1  0
 21 23  1  0
 23 24  1  0
 23 25  2  0
 25 26  1  0
  6 27  1  0
 27 28  1  0
 27 29  2  0
 29 30  1  0
 29  2  1  0
 26 14  1  0
 25 16  1  0
M  END
>  <cnnaffinity>  (1) 
-5.37126

>  <filename>  (1) 
O=C(Cc1nc2ccccc2o1)Nc1cccnc1

$$$$
