
     RDKit          3D

 37 39  0  0  0  0  0  0  0  0999 V2000
    9.6617   -0.8819   24.5443 O   0  0  0  0  0  0  0  0  0  0  0  0
    9.4537   -0.2991   23.5026 C   0  0  0  0  0  0  0  0  0  0  0  0
    9.5057   -1.0788   22.1457 C   0  0  0  0  0  0  0  0  0  0  0  0
    8.7031   -0.6317   20.9983 N   0  0  0  0  0  0  0  0  0  0  0  0
    7.3396   -0.7950   20.9224 C   0  0  0  0  0  0  0  0  0  0  0  0
    6.7249   -1.4825   21.7131 O   0  0  0  0  0  0  0  0  0  0  0  0
    6.6750   -0.0044   19.8475 C   0  0  0  0  0  0  0  0  0  0  0  0
    5.4557    0.6586   20.0709 C   0  0  0  0  0  0  0  0  0  0  0  0
    4.8722    1.3490   19.0082 C   0  0  0  0  0  0  0  0  0  0  0  0
    5.5132    1.3349   17.7634 C   0  0  0  0  0  0  0  0  0  0  0  0
    6.6573    0.6743   17.5333 N   0  0  0  0  0  0  0  0  0  0  0  0
    7.2218    0.0363   18.5625 C   0  0  0  0  0  0  0  0  0  0  0  0
    8.1462   -0.4889   18.3171 H   0  0  0  0  0  0  0  0  0  0  0  0
    5.0878    1.8691   16.9148 H   0  0  0  0  0  0  0  0  0  0  0  0
    3.9400    1.8956   19.1227 H   0  0  0  0  0  0  0  0  0  0  0  0
    4.9730    0.6341   21.0527 H   0  0  0  0  0  0  0  0  0  0  0  0
    9.1657   -0.2906   20.1748 H   0  0  0  0  0  0  0  0  0  0  0  0
   10.5582   -1.0735   21.8435 H   0  0  0  0  0  0  0  0  0  0  0  0
    9.2378   -2.0967   22.4357 H   0  0  0  0  0  0  0  0  0  0  0  0
    9.2376    1.0500   23.3863 N   0  0  0  0  0  0  0  0  0  0  0  0
    8.5979    1.8676   24.3431 C   0  0  0  0  0  0  0  0  0  0  0  0
    8.8905    1.7574   25.6839 C   0  0  0  0  0  0  0  0  0  0  0  0
    8.2675    2.6309   26.6197 C   0  0  0  0  0  0  0  0  0  0  0  0
    7.3712    3.5865   26.2004 C   0  0  0  0  0  0  0  0  0  0  0  0
    7.0314    3.7004   24.8144 C   0  0  0  0  0  0  0  0  0  0  0  0
    6.0693    4.6408   24.3240 C   0  0  0  0  0  0  0  0  0  0  0  0
    5.6613    4.7233   23.0780 N   0  0  0  0  0  0  0  0  0  0  0  0
    6.1986    3.8469   22.1817 C   0  0  0  0  0  0  0  0  0  0  0  0
    7.1461    2.9100   22.5089 C   0  0  0  0  0  0  0  0  0  0  0  0
    7.6219    2.8166   23.8633 C   0  0  0  0  0  0  0  0  0  0  0  0
    7.4920    2.2394   21.7270 H   0  0  0  0  0  0  0  0  0  0  0  0
    5.8224    3.9408   21.1628 H   0  0  0  0  0  0  0  0  0  0  0  0
    5.6241    5.3379   25.0361 H   0  0  0  0  0  0  0  0  0  0  0  0
    6.8880    4.2456   26.9174 H   0  0  0  0  0  0  0  0  0  0  0  0
    8.4753    2.5120   27.6801 H   0  0  0  0  0  0  0  0  0  0  0  0
    9.5726    0.9740   25.9925 H   0  0  0  0  0  0  0  0  0  0  0  0
    9.0781    1.3370   22.4362 H   0  0  0  0  0  0  0  0  0  0  0  0
  1  2  2  0
  2  3  1  0
  3  4  1  0
  4  5  1  0
  5  6  2  0
  5  7  1  0
  7  8  2  0
  8  9  1  0
  9 10  2  0
 10 11  1  0
 11 12  2  0
 12 13  1  0
 10 14  1  0
  9 15  1  0
  8 16  1  0
  4 17  1  0
  3 18  1  0
  3 19  1  0
  2 20  1  0
 20 21  1  0
 21 22  2  0
 22 23  1  0
 23 24  2  0
 24 25  1  0
 25 26  2  0
 26 27  1  0
 27 28  2  0
 28 29  1  0
 29 30  2  0
 29 31  1  0
 28 32  1  0
 26 33  1  0
 24 34  1  0
 23 35  1  0
 22 36  1  0
 20 37  1  0
 12  7  1  0
 30 21  1  0
 30 25  1  0
M  END
>  <cnnaffinity>  (1) 
-4.86508

>  <filename>  (1) 
O=C(CNC(=O)c1cccnc1)Nc1cccc2cnccc12

$$$$
