
     RDKit          3D

 34 36  0  0  0  0  0  0  0  0999 V2000
    4.9291    1.8310   16.9654 H   0  0  0  0  0  0  0  0  0  0  0  0
    5.3961    1.3155   17.8019 C   0  0  0  0  0  0  0  0  0  0  0  0
    6.5502    0.6826   17.5410 N   0  0  0  0  0  0  0  0  0  0  0  0
    7.1623    0.0604   18.5592 C   0  0  0  0  0  0  0  0  0  0  0  0
    8.0938   -0.4401   18.2931 H   0  0  0  0  0  0  0  0  0  0  0  0
    6.6690    0.0137   19.8822 C   0  0  0  0  0  0  0  0  0  0  0  0
    7.3863   -0.7031   20.9972 C   0  0  0  0  0  0  0  0  0  0  0  0
    6.6507   -1.5359   21.8986 C   0  0  0  0  0  0  0  0  0  0  0  0
    5.5818   -1.7049   21.7389 H   0  0  0  0  0  0  0  0  0  0  0  0
    7.2761   -2.1734   22.9501 C   0  0  0  0  0  0  0  0  0  0  0  0
    6.5542   -3.1125   23.8117 C   0  0  0  0  0  0  0  0  0  0  0  0
    5.6928   -3.8285   23.3271 O   0  0  0  0  0  0  0  0  0  0  0  0
    6.8614   -3.0678   25.1444 N   0  0  0  0  0  0  0  0  0  0  0  0
    7.8145   -2.7961   25.3279 H   0  0  0  0  0  0  0  0  0  0  0  0
    6.1722   -3.7690   26.1215 C   0  0  0  0  0  0  0  0  0  0  0  0
    6.8598   -4.2838   27.2151 C   0  0  0  0  0  0  0  0  0  0  0  0
    7.9300   -4.1492   27.3052 H   0  0  0  0  0  0  0  0  0  0  0  0
    6.1389   -5.0222   28.1471 C   0  0  0  0  0  0  0  0  0  0  0  0
    6.6489   -5.4745   28.9946 H   0  0  0  0  0  0  0  0  0  0  0  0
    4.8192   -5.2351   28.0770 N   0  0  0  0  0  0  0  0  0  0  0  0
    4.1762   -4.7048   27.0268 C   0  0  0  0  0  0  0  0  0  0  0  0
    3.1043   -4.8880   26.9693 H   0  0  0  0  0  0  0  0  0  0  0  0
    4.7944   -3.9710   26.0246 C   0  0  0  0  0  0  0  0  0  0  0  0
    4.2496   -3.5932   25.1743 H   0  0  0  0  0  0  0  0  0  0  0  0
    8.6784   -2.0425   23.1812 C   0  0  0  0  0  0  0  0  0  0  0  0
    9.3262   -2.5254   24.1071 O   0  0  0  0  0  0  0  0  0  0  0  0
    9.3473   -1.2833   22.2323 N   0  0  0  0  0  0  0  0  0  0  0  0
   10.3367   -1.3383   22.4263 H   0  0  0  0  0  0  0  0  0  0  0  0
    8.7456   -0.6057   21.1908 C   0  0  0  0  0  0  0  0  0  0  0  0
    9.3880    0.0051   20.5562 H   0  0  0  0  0  0  0  0  0  0  0  0
    5.4403    0.6628   20.1119 C   0  0  0  0  0  0  0  0  0  0  0  0
    5.0108    0.6704   21.1139 H   0  0  0  0  0  0  0  0  0  0  0  0
    4.7992    1.3268   19.0648 C   0  0  0  0  0  0  0  0  0  0  0  0
    3.8622    1.8541   19.2113 H   0  0  0  0  0  0  0  0  0  0  0  0
  1  2  1  0
  2  3  2  0
  3  4  1  0
  4  5  1  0
  4  6  2  0
  6  7  1  0
  7  8  1  0
  8  9  1  0
  8 10  2  0
 10 11  1  0
 11 12  2  0
 11 13  1  0
 13 14  1  0
 13 15  1  0
 15 16  2  0
 16 17  1  0
 16 18  1  0
 18 19  1  0
 18 20  2  0
 20 21  1  0
 21 22  1  0
 21 23  2  0
 23 24  1  0
 10 25  1  0
 25 26  2  0
 25 27  1  0
 27 28  1  0
 27 29  1  0
 29 30  1  0
  6 31  1  0
 31 32  1  0
 31 33  2  0
 33 34  1  0
 33  2  1  0
 29  7  2  0
 23 15  1  0
M  END
>  <cnnaffinity>  (1) 
-5.1146

>  <filename>  (1) 
O=C(Nc1ccncc1)c1cc(-c2cccnc2)c[nH]c1=O

$$$$
