
     RDKit          3D

 42 45  0  0  0  0  0  0  0  0999 V2000
    7.1173   -4.0246   24.8295 O   0  0  0  0  0  0  0  0  0  0  0  0
    6.5357   -2.9943   24.5514 C   0  0  0  0  0  0  0  0  0  0  0  0
    7.2931   -1.6973   24.4673 C   0  0  0  0  0  0  0  0  0  0  0  0
    7.7083   -1.5175   23.0484 C   0  0  0  0  0  0  0  0  0  0  0  0
    8.8170   -2.0191   22.4536 C   0  0  0  0  0  0  0  0  0  0  0  0
    8.8692   -1.5439   20.8035 S   0  0  0  0  0  0  0  0  0  0  0  0
    7.3375   -0.7257   21.0205 C   0  0  0  0  0  0  0  0  0  0  0  0
    6.6411   -0.0082   19.9414 C   0  0  0  0  0  0  0  0  0  0  0  0
    5.4212    0.6564   20.1709 C   0  0  0  0  0  0  0  0  0  0  0  0
    4.8020    1.3071   19.1046 C   0  0  0  0  0  0  0  0  0  0  0  0
    5.4286    1.2783   17.8525 C   0  0  0  0  0  0  0  0  0  0  0  0
    6.5893    0.6475   17.6160 N   0  0  0  0  0  0  0  0  0  0  0  0
    7.1791    0.0287   18.6439 C   0  0  0  0  0  0  0  0  0  0  0  0
    8.1295   -0.4594   18.4252 H   0  0  0  0  0  0  0  0  0  0  0  0
    4.9745    1.7878   17.0052 H   0  0  0  0  0  0  0  0  0  0  0  0
    3.8649    1.8424   19.2352 H   0  0  0  0  0  0  0  0  0  0  0  0
    4.9832    0.6615   21.1697 H   0  0  0  0  0  0  0  0  0  0  0  0
    6.8655   -0.8219   22.2317 N   0  0  0  0  0  0  0  0  0  0  0  0
    9.5914   -2.6100   22.9156 H   0  0  0  0  0  0  0  0  0  0  0  0
    6.6631   -0.8601   24.7589 H   0  0  0  0  0  0  0  0  0  0  0  0
    8.1491   -1.7944   25.1395 H   0  0  0  0  0  0  0  0  0  0  0  0
    5.2033   -2.9298   24.2590 N   0  0  0  0  0  0  0  0  0  0  0  0
    4.3458   -4.0423   24.0319 C   0  0  0  0  0  0  0  0  0  0  0  0
    4.8814   -5.2115   23.4936 C   0  0  0  0  0  0  0  0  0  0  0  0
    4.0692   -6.3266   23.2531 C   0  0  0  0  0  0  0  0  0  0  0  0
    2.7089   -6.2764   23.5667 C   0  0  0  0  0  0  0  0  0  0  0  0
    2.1316   -5.1128   24.0988 C   0  0  0  0  0  0  0  0  0  0  0  0
    2.9550   -3.9839   24.3179 C   0  0  0  0  0  0  0  0  0  0  0  0
    2.4775   -2.8150   24.8542 O   0  0  0  0  0  0  0  0  0  0  0  0
    1.0657   -2.6498   24.9804 C   0  0  0  0  0  0  0  0  0  0  0  0
    0.3627   -3.9243   25.4422 C   0  0  0  0  0  0  0  0  0  0  0  0
    0.6469   -5.0465   24.4346 C   0  0  0  0  0  0  0  0  0  0  0  0
    0.0758   -4.8691   23.5096 H   0  0  0  0  0  0  0  0  0  0  0  0
    0.3069   -6.0181   24.8145 H   0  0  0  0  0  0  0  0  0  0  0  0
    0.7341   -4.2113   26.4341 H   0  0  0  0  0  0  0  0  0  0  0  0
   -0.7120   -3.7290   25.5309 H   0  0  0  0  0  0  0  0  0  0  0  0
    0.9505   -1.8236   25.6874 H   0  0  0  0  0  0  0  0  0  0  0  0
    0.6658   -2.3359   24.0061 H   0  0  0  0  0  0  0  0  0  0  0  0
    2.0784   -7.1523   23.4146 H   0  0  0  0  0  0  0  0  0  0  0  0
    4.5048   -7.2294   22.8320 H   0  0  0  0  0  0  0  0  0  0  0  0
    5.9453   -5.2277   23.2900 H   0  0  0  0  0  0  0  0  0  0  0  0
    4.8278   -2.0103   24.0891 H   0  0  0  0  0  0  0  0  0  0  0  0
  1  2  2  0
  2  3  1  0
  3  4  1  0
  4  5  2  0
  5  6  1  0
  6  7  1  0
  7  8  1  0
  8  9  2  0
  9 10  1  0
 10 11  2  0
 11 12  1  0
 12 13  2  0
 13 14  1  0
 11 15  1  0
 10 16  1  0
  9 17  1  0
  7 18  2  0
  5 19  1  0
  3 20  1  0
  3 21  1  0
  2 22  1  0
 22 23  1  0
 23 24  2  0
 24 25  1  0
 25 26  2  0
 26 27  1  0
 27 28  2  0
 28 29  1  0
 29 30  1  0
 30 31  1  0
 31 32  1  0
 32 33  1  0
 32 34  1  0
 31 35  1  0
 31 36  1  0
 30 37  1  0
 30 38  1  0
 26 39  1  0
 25 40  1  0
 24 41  1  0
 22 42  1  0
 18  4  1  0
 28 23  1  0
 13  8  1  0
 32 27  1  0
M  END
>  <cnnaffinity>  (1) 
-5.90938

>  <filename>  (1) 
O=C(Cc1csc(-c2cccnc2)n1)Nc1cccc2c1OCCC2

$$$$
