
     RDKit          3D

 43 44  0  0  0  0  0  0  0  0999 V2000
    5.6794   -2.3883   21.0771 O   0  0  0  0  0  0  0  0  0  0  0  0
    6.6204   -1.8222   21.5933 C   0  0  0  0  0  0  0  0  0  0  0  0
    7.1612   -2.1755   22.8145 N   0  0  0  0  0  0  0  0  0  0  0  0
    6.5786   -3.2708   23.5905 C   0  0  0  0  0  0  0  0  0  0  0  0
    7.6108   -3.9486   24.5086 C   0  0  2  0  0  0  0  0  0  0  0  0
    8.9097   -4.3054   23.7473 C   0  0  0  0  0  0  0  0  0  0  0  0
    9.8842   -5.0966   24.5790 C   0  0  0  0  0  0  0  0  0  0  0  0
    9.5210   -5.8285   25.6299 C   0  0  0  0  0  0  0  0  0  0  0  0
    8.1330   -5.7988   26.2060 C   0  0  0  0  0  0  0  0  0  0  0  0
    7.0772   -5.2371   25.2152 C   0  0  1  0  0  0  0  0  0  0  0  0
    5.7248   -5.0902   25.9169 C   0  0  0  0  0  0  0  0  0  0  0  0
    4.7064   -4.9410   25.0401 F   0  0  0  0  0  0  0  0  0  0  0  0
    5.6937   -4.0196   26.7391 F   0  0  0  0  0  0  0  0  0  0  0  0
    5.4178   -6.1698   26.6698 F   0  0  0  0  0  0  0  0  0  0  0  0
    6.8973   -5.9948   24.4423 H   0  0  0  0  0  0  0  0  0  0  0  0
    7.8481   -6.8023   26.5396 H   0  0  0  0  0  0  0  0  0  0  0  0
    8.1546   -5.1834   27.1163 H   0  0  0  0  0  0  0  0  0  0  0  0
   10.2512   -6.4630   26.1306 H   0  0  0  0  0  0  0  0  0  0  0  0
   10.9376   -5.0422   24.3104 H   0  0  0  0  0  0  0  0  0  0  0  0
    8.6453   -4.8822   22.8463 H   0  0  0  0  0  0  0  0  0  0  0  0
    9.3972   -3.3948   23.3848 H   0  0  0  0  0  0  0  0  0  0  0  0
    7.8715   -3.2288   25.2990 H   0  0  0  0  0  0  0  0  0  0  0  0
    6.1828   -4.0098   22.8840 H   0  0  0  0  0  0  0  0  0  0  0  0
    5.7295   -2.9008   24.1775 H   0  0  0  0  0  0  0  0  0  0  0  0
    7.4681   -1.3596   23.3249 H   0  0  0  0  0  0  0  0  0  0  0  0
    7.3060   -0.7525   20.9700 N   0  0  0  0  0  0  0  0  0  0  0  0
    8.6378   -0.2721   21.3343 C   0  0  0  0  0  0  0  0  0  0  0  0
    8.6570    1.0743   22.0494 C   0  0  0  0  0  0  0  0  0  0  0  0
    9.9608    1.3862   22.2913 F   0  0  0  0  0  0  0  0  0  0  0  0
    8.0291    0.9772   23.2608 F   0  0  0  0  0  0  0  0  0  0  0  0
    8.1949    1.8888   21.4797 H   0  0  0  0  0  0  0  0  0  0  0  0
    9.2351   -0.1465   20.4246 H   0  0  0  0  0  0  0  0  0  0  0  0
    9.1795   -0.9788   21.9706 H   0  0  0  0  0  0  0  0  0  0  0  0
    6.6498   -0.0523   19.9070 C   0  0  0  0  0  0  0  0  0  0  0  0
    5.4402    0.6105   20.1591 C   0  0  0  0  0  0  0  0  0  0  0  0
    4.8275    1.2979   19.1094 C   0  0  0  0  0  0  0  0  0  0  0  0
    5.4415    1.2941   17.8526 C   0  0  0  0  0  0  0  0  0  0  0  0
    6.6039    0.6723   17.5970 N   0  0  0  0  0  0  0  0  0  0  0  0
    7.1995    0.0293   18.6087 C   0  0  0  0  0  0  0  0  0  0  0  0
    8.1476   -0.4672   18.3877 H   0  0  0  0  0  0  0  0  0  0  0  0
    4.9797    1.8051   17.0124 H   0  0  0  0  0  0  0  0  0  0  0  0
    3.8947    1.8327   19.2526 H   0  0  0  0  0  0  0  0  0  0  0  0
    5.0139    0.5851   21.1629 H   0  0  0  0  0  0  0  0  0  0  0  0
  1  2  2  0
  2  3  1  0
  3  4  1  0
  4  5  1  0
  5  6  1  0
  6  7  1  0
  7  8  2  0
  8  9  1  0
  9 10  1  0
 10 11  1  0
 11 12  1  0
 11 13  1  0
 11 14  1  0
 10 15  1  6
  9 16  1  0
  9 17  1  0
  8 18  1  0
  7 19  1  0
  6 20  1  0
  6 21  1  0
  5 22  1  1
  4 23  1  0
  4 24  1  0
  3 25  1  0
  2 26  1  0
 26 27  1  0
 27 28  1  0
 28 29  1  0
 28 30  1  0
 28 31  1  0
 27 32  1  0
 27 33  1  0
 26 34  1  0
 34 35  2  0
 35 36  1  0
 36 37  2  0
 37 38  1  0
 38 39  2  0
 39 40  1  0
 37 41  1  0
 36 42  1  0
 35 43  1  0
 10  5  1  0
 39 34  1  0
M  END
>  <cnnaffinity>  (1) 
-6.01105

>  <filename>  (1) 
O=C(NC[C@@H]1CC=CC[C@H]1C(F)(F)F)N(CC(F)F)c1cccnc1

$$$$
