
     RDKit          3D

 34 36  0  0  0  0  0  0  0  0999 V2000
    4.9858    1.8298   16.9222 H   0  0  0  0  0  0  0  0  0  0  0  0
    5.3969    1.3441   17.8077 C   0  0  0  0  0  0  0  0  0  0  0  0
    6.5503    0.6789   17.6369 N   0  0  0  0  0  0  0  0  0  0  0  0
    7.0601    0.0619   18.7111 C   0  0  0  0  0  0  0  0  0  0  0  0
    8.0258   -0.4165   18.5659 H   0  0  0  0  0  0  0  0  0  0  0  0
    6.4577    0.0533   19.9865 C   0  0  0  0  0  0  0  0  0  0  0  0
    7.1071   -0.6642   21.1065 C   0  0  0  0  0  0  0  0  0  0  0  0
    7.6248   -1.9406   21.1894 C   0  0  0  0  0  0  0  0  0  0  0  0
    7.4295   -2.7511   20.5110 H   0  0  0  0  0  0  0  0  0  0  0  0
    8.4333   -1.9278   22.3410 C   0  0  0  0  0  0  0  0  0  0  0  0
    9.0632   -2.7076   22.7398 H   0  0  0  0  0  0  0  0  0  0  0  0
    8.4072   -0.7536   22.9545 N   0  0  0  0  0  0  0  0  0  0  0  0
    7.5575   -0.0266   22.2370 N   0  0  0  0  0  0  0  0  0  0  0  0
    7.1537    1.2044   22.7604 N   0  0  0  0  0  0  0  0  0  0  0  0
    7.8900    1.8812   22.6185 H   0  0  0  0  0  0  0  0  0  0  0  0
    6.9176    1.2003   24.1599 C   0  0  0  0  0  0  0  0  0  0  0  0
    6.6231    0.2644   24.8522 O   0  0  0  0  0  0  0  0  0  0  0  0
    7.0601    2.5229   24.5759 N   0  0  0  0  0  0  0  0  0  0  0  0
    6.5608    3.1273   23.9435 H   0  0  0  0  0  0  0  0  0  0  0  0
    6.9872    2.9214   25.9276 C   0  0  0  0  0  0  0  0  0  0  0  0
    7.6640    2.2199   26.9327 C   0  0  0  0  0  0  0  0  0  0  0  0
    8.2400    1.3384   26.6648 H   0  0  0  0  0  0  0  0  0  0  0  0
    7.5715    2.6616   28.2551 C   0  0  0  0  0  0  0  0  0  0  0  0
    8.0890    2.0980   29.0314 H   0  0  0  0  0  0  0  0  0  0  0  0
    6.8169    3.7951   28.5783 C   0  0  0  0  0  0  0  0  0  0  0  0
    6.7595    4.1328   29.6098 H   0  0  0  0  0  0  0  0  0  0  0  0
    6.1500    4.4976   27.5679 C   0  0  0  0  0  0  0  0  0  0  0  0
    5.5467    5.3702   27.8090 H   0  0  0  0  0  0  0  0  0  0  0  0
    6.2524    4.0682   26.2417 C   0  0  0  0  0  0  0  0  0  0  0  0
    5.7921    4.6319   25.4377 H   0  0  0  0  0  0  0  0  0  0  0  0
    5.2731    0.7821   20.1465 C   0  0  0  0  0  0  0  0  0  0  0  0
    4.8106    0.8425   21.1315 H   0  0  0  0  0  0  0  0  0  0  0  0
    4.7269    1.4255   19.0335 C   0  0  0  0  0  0  0  0  0  0  0  0
    3.8033    1.9927   19.1043 H   0  0  0  0  0  0  0  0  0  0  0  0
  1  2  1  0
  2  3  2  0
  3  4  1  0
  4  5  1  0
  4  6  2  0
  6  7  1  0
  7  8  2  0
  8  9  1  0
  8 10  1  0
 10 11  1  0
 10 12  2  0
 12 13  1  0
 13 14  1  0
 14 15  1  0
 14 16  1  0
 16 17  2  0
 16 18  1  0
 18 19  1  0
 18 20  1  0
 20 21  2  0
 21 22  1  0
 21 23  1  0
 23 24  1  0
 23 25  2  0
 25 26  1  0
 25 27  1  0
 27 28  1  0
 27 29  2  0
 29 30  1  0
  6 31  1  0
 31 32  1  0
 31 33  2  0
 33 34  1  0
 33  2  1  0
 13  7  1  0
 29 20  1  0
M  END
>  <cnnaffinity>  (1) 
-4.63773

>  <filename>  (1) 
O=C(Nc1ccccc1)Nn1nccc1-c1cccnc1

$$$$
