
     RDKit          3D

 26 27  0  0  0  0  0  0  0  0999 V2000
    4.9266    1.7967   16.9872 H   0  0  0  0  0  0  0  0  0  0  0  0
    5.3990    1.2920   17.8261 C   0  0  0  0  0  0  0  0  0  0  0  0
    6.5621    0.6741   17.5673 N   0  0  0  0  0  0  0  0  0  0  0  0
    7.1714    0.0475   18.5807 C   0  0  0  0  0  0  0  0  0  0  0  0
    8.1275   -0.4254   18.3480 H   0  0  0  0  0  0  0  0  0  0  0  0
    6.6558    0.0054   19.8942 C   0  0  0  0  0  0  0  0  0  0  0  0
    7.3226   -0.6700   20.9552 N   0  0  0  0  0  0  0  0  0  0  0  0
    7.8637   -1.4886   20.7227 H   0  0  0  0  0  0  0  0  0  0  0  0
    7.3785   -0.2037   22.2516 C   0  0  0  0  0  0  0  0  0  0  0  0
    7.0185    0.9062   22.5798 O   0  0  0  0  0  0  0  0  0  0  0  0
    8.0238   -1.1966   23.3131 C   0  0  0  0  0  0  0  0  0  0  0  0
    7.5706   -0.8693   24.5521 F   0  0  0  0  0  0  0  0  0  0  0  0
    7.6234   -2.4900   23.0743 F   0  0  0  0  0  0  0  0  0  0  0  0
    9.5302   -1.1546   23.2484 C   0  0  0  0  0  0  0  0  0  0  0  0
   10.3784   -1.9107   22.4797 C   0  0  0  0  0  0  0  0  0  0  0  0
   10.0903   -2.7804   21.8980 H   0  0  0  0  0  0  0  0  0  0  0  0
   11.6736   -1.3524   22.6104 C   0  0  0  0  0  0  0  0  0  0  0  0
   12.5840   -1.7688   22.2001 H   0  0  0  0  0  0  0  0  0  0  0  0
   11.5760   -0.2760   23.4570 C   0  0  0  0  0  0  0  0  0  0  0  0
   12.3348    0.3718   23.8728 H   0  0  0  0  0  0  0  0  0  0  0  0
   10.2668   -0.1612   23.8446 N   0  0  0  0  0  0  0  0  0  0  0  0
    9.8860    0.5723   24.4246 H   0  0  0  0  0  0  0  0  0  0  0  0
    5.4415    0.6491   20.1487 C   0  0  0  0  0  0  0  0  0  0  0  0
    5.0388    0.6341   21.1618 H   0  0  0  0  0  0  0  0  0  0  0  0
    4.8079    1.3019   19.0912 C   0  0  0  0  0  0  0  0  0  0  0  0
    3.8818    1.8346   19.2521 H   0  0  0  0  0  0  0  0  0  0  0  0
  1  2  1  0
  2  3  2  0
  3  4  1  0
  4  5  1  0
  4  6  2  0
  6  7  1  0
  7  8  1  0
  7  9  1  0
  9 10  2  0
  9 11  1  0
 11 12  1  0
 11 13  1  0
 11 14  1  0
 14 15  2  0
 15 16  1  0
 15 17  1  0
 17 18  1  0
 17 19  2  0
 19 20  1  0
 19 21  1  0
 21 22  1  0
  6 23  1  0
 23 24  1  0
 23 25  2  0
 25 26  1  0
 25  2  1  0
 21 14  1  0
M  END
>  <cnnaffinity>  (1) 
-4.84917

>  <filename>  (1) 
O=C(Nc1cccnc1)C(F)(F)c1ccc[nH]1

$$$$
