
     RDKit          3D

 31 33  0  0  0  0  0  0  0  0999 V2000
    9.1011   -2.2815   24.0297 H   0  0  0  0  0  0  0  0  0  0  0  0
    8.7027   -1.7327   23.1876 C   0  0  0  0  0  0  0  0  0  0  0  0
    8.9795   -2.1953   21.9565 N   0  0  0  0  0  0  0  0  0  0  0  0
    8.4246   -1.5351   20.9281 C   0  0  0  0  0  0  0  0  0  0  0  0
    8.7293   -1.8691   19.9417 H   0  0  0  0  0  0  0  0  0  0  0  0
    7.4983   -0.4710   21.1109 C   0  0  0  0  0  0  0  0  0  0  0  0
    6.7100    0.1674   20.0185 C   0  0  0  0  0  0  0  0  0  0  0  0
    7.2237    0.1560   18.7157 C   0  0  0  0  0  0  0  0  0  0  0  0
    8.1856   -0.3101   18.5089 H   0  0  0  0  0  0  0  0  0  0  0  0
    6.6132    0.6941   17.6589 N   0  0  0  0  0  0  0  0  0  0  0  0
    5.4272    1.2841   17.8595 C   0  0  0  0  0  0  0  0  0  0  0  0
    4.9575    1.7146   16.9757 H   0  0  0  0  0  0  0  0  0  0  0  0
    4.8116    1.3521   19.1149 C   0  0  0  0  0  0  0  0  0  0  0  0
    3.8537    1.8550   19.2045 H   0  0  0  0  0  0  0  0  0  0  0  0
    5.4645    0.7963   20.2167 C   0  0  0  0  0  0  0  0  0  0  0  0
    5.0170    0.8671   21.2128 H   0  0  0  0  0  0  0  0  0  0  0  0
    7.2644   -0.0001   22.3487 N   0  0  0  0  0  0  0  0  0  0  0  0
    7.9084   -0.5781   23.3828 C   0  0  0  0  0  0  0  0  0  0  0  0
    7.8638    0.0026   24.7913 C   0  0  0  0  0  0  0  0  0  0  0  0
    8.7057   -0.3377   25.6058 O   0  0  0  0  0  0  0  0  0  0  0  0
    6.7956    0.9949   25.1569 C   0  0  0  0  0  0  0  0  0  0  0  0
    7.0451    1.9248   26.1866 C   0  0  0  0  0  0  0  0  0  0  0  0
    8.0109    1.9157   26.6885 H   0  0  0  0  0  0  0  0  0  0  0  0
    6.0517    2.8226   26.5761 C   0  0  0  0  0  0  0  0  0  0  0  0
    6.2272    3.5498   27.3595 H   0  0  0  0  0  0  0  0  0  0  0  0
    4.7913    2.7593   25.9765 C   0  0  0  0  0  0  0  0  0  0  0  0
    3.5295    3.8262   26.5219 Cl  0  0  0  0  0  0  0  0  0  0  0  0
    4.5203    1.8361   24.9636 C   0  0  0  0  0  0  0  0  0  0  0  0
    3.5276    1.8131   24.5319 H   0  0  0  0  0  0  0  0  0  0  0  0
    5.5315    0.9663   24.5457 C   0  0  0  0  0  0  0  0  0  0  0  0
    5.3651    0.2644   23.7329 H   0  0  0  0  0  0  0  0  0  0  0  0
  1  2  1  0
  2  3  2  0
  3  4  1  0
  4  5  1  0
  4  6  2  0
  6  7  1  0
  7  8  2  0
  8  9  1  0
  8 10  1  0
 10 11  2  0
 11 12  1  0
 11 13  1  0
 13 14  1  0
 13 15  2  0
 15 16  1  0
  6 17  1  0
 17 18  2  0
 18 19  1  0
 19 20  2  0
 19 21  1  0
 21 22  2  0
 22 23  1  0
 22 24  1  0
 24 25  1  0
 24 26  2  0
 26 27  1  0
 26 28  1  0
 28 29  1  0
 28 30  2  0
 30 31  1  0
 18  2  1  0
 30 21  1  0
 15  7  1  0
M  END
>  <cnnaffinity>  (1) 
-5.29115

>  <filename>  (1) 
O=C(c1ccc(Cl)cc1)c1cncc(-c2cccnc2)n1

$$$$
