
     RDKit          3D

 32 34  0  0  0  0  0  0  0  0999 V2000
    5.1347    1.5901   16.6474 H   0  0  0  0  0  0  0  0  0  0  0  0
    5.5175    1.2218   17.5963 C   0  0  0  0  0  0  0  0  0  0  0  0
    6.7247    0.6329   17.5612 N   0  0  0  0  0  0  0  0  0  0  0  0
    7.2177    0.1757   18.7213 C   0  0  0  0  0  0  0  0  0  0  0  0
    8.1978   -0.2971   18.6964 H   0  0  0  0  0  0  0  0  0  0  0  0
    6.5445    0.2554   19.9580 C   0  0  0  0  0  0  0  0  0  0  0  0
    7.0997   -0.1959   21.1872 N   0  0  0  0  0  0  0  0  0  0  0  0
    6.6876   -1.0747   21.5173 H   0  0  0  0  0  0  0  0  0  0  0  0
    8.5143   -0.2284   21.1971 N   0  0  0  0  0  0  0  0  0  0  0  0
    8.9477    0.6939   21.2560 H   0  0  0  0  0  0  0  0  0  0  0  0
    9.2505   -1.1556   21.8957 C   0  0  0  0  0  0  0  0  0  0  0  0
    8.7857   -2.1873   22.3670 O   0  0  0  0  0  0  0  0  0  0  0  0
   10.7241   -0.8541   21.9784 C   0  0  0  0  0  0  0  0  0  0  0  0
   11.6192   -1.9113   21.9626 C   0  0  0  0  0  0  0  0  0  0  0  0
   11.2226   -2.9185   21.9341 H   0  0  0  0  0  0  0  0  0  0  0  0
   13.0172   -1.7161   22.0249 C   0  0  0  0  0  0  0  0  0  0  0  0
   13.6898   -2.5664   21.9592 H   0  0  0  0  0  0  0  0  0  0  0  0
   13.5259   -0.4553   22.2249 C   0  0  0  0  0  0  0  0  0  0  0  0
   14.5938   -0.2846   22.3489 H   0  0  0  0  0  0  0  0  0  0  0  0
   12.6498    0.6626   22.2723 C   0  0  0  0  0  0  0  0  0  0  0  0
   13.1323    1.9833   22.4741 C   0  0  0  0  0  0  0  0  0  0  0  0
   14.1967    2.1126   22.6819 H   0  0  0  0  0  0  0  0  0  0  0  0
   12.2526    3.0371   22.3944 C   0  0  0  0  0  0  0  0  0  0  0  0
   12.5864    4.0610   22.5014 H   0  0  0  0  0  0  0  0  0  0  0  0
   10.8808    2.7665   22.1380 C   0  0  0  0  0  0  0  0  0  0  0  0
   10.1630    3.5844   22.1121 H   0  0  0  0  0  0  0  0  0  0  0  0
   10.3952    1.5559   21.9621 N   0  0  0  0  0  0  0  0  0  0  0  0
   11.2390    0.4791   22.0723 C   0  0  0  0  0  0  0  0  0  0  0  0
    5.2696    0.8444   19.9665 C   0  0  0  0  0  0  0  0  0  0  0  0
    4.7241    0.9292   20.9065 H   0  0  0  0  0  0  0  0  0  0  0  0
    4.7580    1.3427   18.7653 C   0  0  0  0  0  0  0  0  0  0  0  0
    3.7851    1.8248   18.7219 H   0  0  0  0  0  0  0  0  0  0  0  0
  1  2  1  0
  2  3  2  0
  3  4  1  0
  4  5  1  0
  4  6  2  0
  6  7  1  0
  7  8  1  0
  7  9  1  0
  9 10  1  0
  9 11  1  0
 11 12  2  0
 11 13  1  0
 13 14  2  0
 14 15  1  0
 14 16  1  0
 16 17  1  0
 16 18  2  0
 18 19  1  0
 18 20  1  0
 20 21  2  0
 21 22  1  0
 21 23  1  0
 23 24  1  0
 23 25  2  0
 25 26  1  0
 25 27  1  0
 27 28  2  0
  6 29  1  0
 29 30  1  0
 29 31  2  0
 31 32  1  0
 31  2  1  0
 28 13  1  0
 28 20  1  0
M  END
>  <cnnaffinity>  (1) 
-5.63077

>  <filename>  (1) 
O=C(NNc1cccnc1)c1cccc2cccnc12

$$$$
