
     RDKit          3D

 35 38  0  0  0  0  0  0  0  0999 V2000
    5.0606    1.8078   16.9641 H   0  0  0  0  0  0  0  0  0  0  0  0
    5.5114    1.2971   17.8130 C   0  0  0  0  0  0  0  0  0  0  0  0
    6.6930    0.7002   17.5866 N   0  0  0  0  0  0  0  0  0  0  0  0
    7.2712    0.0583   18.6121 C   0  0  0  0  0  0  0  0  0  0  0  0
    8.2307   -0.4160   18.4135 H   0  0  0  0  0  0  0  0  0  0  0  0
    6.6950   -0.0446   19.8972 C   0  0  0  0  0  0  0  0  0  0  0  0
    7.3291   -0.7827   20.9442 N   0  0  0  0  0  0  0  0  0  0  0  0
    8.1360   -0.3640   21.3728 H   0  0  0  0  0  0  0  0  0  0  0  0
    6.7405   -1.7672   21.7023 C   0  0  0  0  0  0  0  0  0  0  0  0
    5.7066   -2.3221   21.3774 O   0  0  0  0  0  0  0  0  0  0  0  0
    7.5897   -2.1503   22.9387 C   0  0  0  0  0  0  0  0  0  0  0  0
    7.7425   -1.0873   24.0126 C   0  0  0  0  0  0  0  0  0  0  0  0
    6.8301   -1.0577   25.1085 C   0  0  0  0  0  0  0  0  0  0  0  0
    6.0832   -1.8451   25.1729 H   0  0  0  0  0  0  0  0  0  0  0  0
    6.8906   -0.0746   26.0851 C   0  0  0  0  0  0  0  0  0  0  0  0
    6.2355   -0.0740   26.9445 H   0  0  0  0  0  0  0  0  0  0  0  0
    7.8825    0.9175   25.9444 C   0  0  0  0  0  0  0  0  0  0  0  0
    8.8033    0.9233   24.8769 C   0  0  0  0  0  0  0  0  0  0  0  0
    9.5652    2.1139   25.0919 C   0  0  0  0  0  0  0  0  0  0  0  0
   10.3653    2.5264   24.4898 H   0  0  0  0  0  0  0  0  0  0  0  0
    9.1718    2.7551   26.1726 N   0  0  0  0  0  0  0  0  0  0  0  0
    8.1653    2.0180   26.6885 N   0  0  0  0  0  0  0  0  0  0  0  0
    7.6954    2.3145   27.5260 H   0  0  0  0  0  0  0  0  0  0  0  0
    8.7611   -0.1399   23.9332 C   0  0  0  0  0  0  0  0  0  0  0  0
    9.5729   -0.2794   23.2274 H   0  0  0  0  0  0  0  0  0  0  0  0
    7.5418   -3.6068   23.3566 C   0  0  0  0  0  0  0  0  0  0  0  0
    6.8922   -4.2625   22.7766 H   0  0  0  0  0  0  0  0  0  0  0  0
    7.5963   -3.8505   24.4197 H   0  0  0  0  0  0  0  0  0  0  0  0
    8.7740   -3.0711   22.6882 C   0  0  0  0  0  0  0  0  0  0  0  0
    9.6662   -2.9107   23.2964 H   0  0  0  0  0  0  0  0  0  0  0  0
    8.9756   -3.3573   21.6585 H   0  0  0  0  0  0  0  0  0  0  0  0
    5.4776    0.6049   20.1229 C   0  0  0  0  0  0  0  0  0  0  0  0
    5.0358    0.5694   21.1204 H   0  0  0  0  0  0  0  0  0  0  0  0
    4.8746    1.2925   19.0603 C   0  0  0  0  0  0  0  0  0  0  0  0
    3.9328    1.8169   19.1858 H   0  0  0  0  0  0  0  0  0  0  0  0
  1  2  1  0
  2  3  2  0
  3  4  1  0
  4  5  1  0
  4  6  2  0
  6  7  1  0
  7  8  1  0
  7  9  1  0
  9 10  2  0
  9 11  1  0
 11 12  1  0
 12 13  2  0
 13 14  1  0
 13 15  1  0
 15 16  1  0
 15 17  2  0
 17 18  1  0
 18 19  1  0
 19 20  1  0
 19 21  2  0
 21 22  1  0
 22 23  1  0
 18 24  2  0
 24 25  1  0
 11 26  1  0
 26 27  1  0
 26 28  1  0
 26 29  1  0
 29 30  1  0
 29 31  1  0
  6 32  1  0
 32 33  1  0
 32 34  2  0
 34 35  1  0
 34  2  1  0
 29 11  1  0
 24 12  1  0
 22 17  1  0
M  END
>  <cnnaffinity>  (1) 
-5.49079

>  <filename>  (1) 
O=C(Nc1cccnc1)C1(c2ccc3[nH]ncc3c2)CC1

$$$$
