
     RDKit          3D

 34 36  0  0  0  0  0  0  0  0999 V2000
    7.1874    0.9406   22.5424 O   0  0  0  0  0  0  0  0  0  0  0  0
    7.3799   -0.2213   22.2538 C   0  0  0  0  0  0  0  0  0  0  0  0
    7.8426   -1.2629   23.3122 C   0  0  0  0  0  0  0  0  0  0  0  0
    6.8111   -1.9522   24.1065 N   0  0  0  0  0  0  0  0  0  0  0  0
    6.0006   -2.9189   23.5947 C   0  0  0  0  0  0  0  0  0  0  0  0
    6.1329   -3.3420   22.4507 O   0  0  0  0  0  0  0  0  0  0  0  0
    4.9163   -3.3922   24.4925 C   0  0  0  0  0  0  0  0  0  0  0  0
    3.8153   -3.9828   23.8448 C   0  0  0  0  0  0  0  0  0  0  0  0
    2.7413   -4.4475   24.4613 N   0  0  0  0  0  0  0  0  0  0  0  0
    2.7414   -4.3532   25.8123 C   0  0  0  0  0  0  0  0  0  0  0  0
    1.6691   -4.8034   26.6551 C   0  0  0  0  0  0  0  0  0  0  0  0
    1.9349   -4.6213   27.9716 C   0  0  0  0  0  0  0  0  0  0  0  0
    3.4942   -3.9082   28.2695 S   0  0  0  0  0  0  0  0  0  0  0  0
    3.8161   -3.8130   26.5615 C   0  0  0  0  0  0  0  0  0  0  0  0
    4.9288   -3.3097   25.8867 C   0  0  0  0  0  0  0  0  0  0  0  0
    5.7916   -2.9256   26.4296 H   0  0  0  0  0  0  0  0  0  0  0  0
    1.3032   -4.8370   28.8275 H   0  0  0  0  0  0  0  0  0  0  0  0
    0.7653   -5.2281   26.2386 H   0  0  0  0  0  0  0  0  0  0  0  0
    3.8342   -4.0550   22.7602 H   0  0  0  0  0  0  0  0  0  0  0  0
    6.4349   -1.4899   24.9212 H   0  0  0  0  0  0  0  0  0  0  0  0
    8.4872   -0.7111   24.0004 H   0  0  0  0  0  0  0  0  0  0  0  0
    8.4394   -2.0229   22.7962 H   0  0  0  0  0  0  0  0  0  0  0  0
    7.2579   -0.7354   20.9722 N   0  0  0  0  0  0  0  0  0  0  0  0
    6.6617    0.0067   19.8981 C   0  0  0  0  0  0  0  0  0  0  0  0
    5.4761    0.7193   20.1083 C   0  0  0  0  0  0  0  0  0  0  0  0
    4.8610    1.3366   19.0139 C   0  0  0  0  0  0  0  0  0  0  0  0
    5.4761    1.2668   17.7592 C   0  0  0  0  0  0  0  0  0  0  0  0
    6.6395    0.6251   17.5468 N   0  0  0  0  0  0  0  0  0  0  0  0
    7.2121    0.0162   18.5963 C   0  0  0  0  0  0  0  0  0  0  0  0
    8.1500   -0.5083   18.4165 H   0  0  0  0  0  0  0  0  0  0  0  0
    5.0144    1.7347   16.8913 H   0  0  0  0  0  0  0  0  0  0  0  0
    3.9259    1.8743   19.1298 H   0  0  0  0  0  0  0  0  0  0  0  0
    5.0593    0.7873   21.1123 H   0  0  0  0  0  0  0  0  0  0  0  0
    7.0325   -1.7266   20.9750 H   0  0  0  0  0  0  0  0  0  0  0  0
  1  2  2  0
  2  3  1  0
  3  4  1  0
  4  5  1  0
  5  6  2  0
  5  7  1  0
  7  8  2  0
  8  9  1  0
  9 10  2  0
 10 11  1  0
 11 12  2  0
 12 13  1  0
 13 14  1  0
 14 15  2  0
 15 16  1  0
 12 17  1  0
 11 18  1  0
  8 19  1  0
  4 20  1  0
  3 21  1  0
  3 22  1  0
  2 23  1  0
 23 24  1  0
 24 25  2  0
 25 26  1  0
 26 27  2  0
 27 28  1  0
 28 29  2  0
 29 30  1  0
 27 31  1  0
 26 32  1  0
 25 33  1  0
 23 34  1  0
 15  7  1  0
 29 24  1  0
 14 10  1  0
M  END
>  <cnnaffinity>  (1) 
-5.20642

>  <filename>  (1) 
O=C(CNC(=O)c1cnc2ccsc2c1)Nc1cccnc1

$$$$
