
     RDKit          3D

 44 46  0  0  0  0  0  0  0  0999 V2000
    6.9143    0.8156   22.7226 O   0  0  0  0  0  0  0  0  0  0  0  0
    7.3441   -0.2723   22.3610 C   0  0  0  0  0  0  0  0  0  0  0  0
    7.3569   -0.6672   21.0355 N   0  0  0  0  0  0  0  0  0  0  0  0
    6.6898   -0.0120   19.9657 C   0  0  0  0  0  0  0  0  0  0  0  0
    5.4739    0.6482   20.1940 C   0  0  0  0  0  0  0  0  0  0  0  0
    4.8420    1.2791   19.1224 C   0  0  0  0  0  0  0  0  0  0  0  0
    5.4512    1.2558   17.8646 C   0  0  0  0  0  0  0  0  0  0  0  0
    6.6097    0.6171   17.6220 N   0  0  0  0  0  0  0  0  0  0  0  0
    7.2053   -0.0057   18.6471 C   0  0  0  0  0  0  0  0  0  0  0  0
    8.1562   -0.5012   18.4249 H   0  0  0  0  0  0  0  0  0  0  0  0
    4.9882    1.7643   17.0240 H   0  0  0  0  0  0  0  0  0  0  0  0
    3.9072    1.8079   19.2680 H   0  0  0  0  0  0  0  0  0  0  0  0
    5.0772    0.6774   21.2064 H   0  0  0  0  0  0  0  0  0  0  0  0
    7.8706   -1.5111   20.8642 H   0  0  0  0  0  0  0  0  0  0  0  0
    7.8588   -1.1911   23.2416 N   0  0  0  0  0  0  0  0  0  0  0  0
    8.3879   -2.5262   22.9536 C   0  0  0  0  0  0  0  0  0  0  0  0
    8.6784   -3.1207   24.3375 C   0  0  0  0  0  0  0  0  0  0  0  0
    8.7869   -1.9192   25.2758 C   0  0  0  0  0  0  0  0  0  0  0  0
    7.8887   -0.8390   24.6664 C   0  0  0  0  0  0  0  0  0  0  0  0
    6.4726   -0.7413   25.2640 C   0  0  0  0  0  0  0  0  0  0  0  0
    6.3849    0.1231   26.5219 C   0  0  0  0  0  0  0  0  0  0  0  0
    7.2651   -0.4406   27.4890 O   0  0  0  0  0  0  0  0  0  0  0  0
    7.2250    0.1159   28.2753 H   0  0  0  0  0  0  0  0  0  0  0  0
    4.9498    0.2399   27.0296 C   0  0  0  0  0  0  0  0  0  0  0  0
    4.1968    1.3894   26.7314 C   0  0  0  0  0  0  0  0  0  0  0  0
    2.8559    1.4904   27.1215 C   0  0  0  0  0  0  0  0  0  0  0  0
    2.2486    0.4389   27.8122 C   0  0  0  0  0  0  0  0  0  0  0  0
    2.9855   -0.7113   28.1155 C   0  0  0  0  0  0  0  0  0  0  0  0
    4.3270   -0.8109   27.7319 C   0  0  0  0  0  0  0  0  0  0  0  0
    4.8881   -1.7092   27.9821 H   0  0  0  0  0  0  0  0  0  0  0  0
    2.5102   -1.5339   28.6441 H   0  0  0  0  0  0  0  0  0  0  0  0
    1.2053    0.5142   28.1114 H   0  0  0  0  0  0  0  0  0  0  0  0
    2.2896    2.3874   26.8830 H   0  0  0  0  0  0  0  0  0  0  0  0
    4.6557    2.2154   26.1914 H   0  0  0  0  0  0  0  0  0  0  0  0
    6.7302    1.1395   26.2509 H   0  0  0  0  0  0  0  0  0  0  0  0
    6.0912   -1.7463   25.4774 H   0  0  0  0  0  0  0  0  0  0  0  0
    5.8036   -0.3167   24.5128 H   0  0  0  0  0  0  0  0  0  0  0  0
    8.3661    0.1440   24.7513 H   0  0  0  0  0  0  0  0  0  0  0  0
    8.4903   -2.1489   26.2992 H   0  0  0  0  0  0  0  0  0  0  0  0
    9.8136   -1.5447   25.3042 H   0  0  0  0  0  0  0  0  0  0  0  0
    7.8547   -3.7710   24.6376 H   0  0  0  0  0  0  0  0  0  0  0  0
    9.5847   -3.7322   24.3388 H   0  0  0  0  0  0  0  0  0  0  0  0
    7.6602   -3.1417   22.4086 H   0  0  0  0  0  0  0  0  0  0  0  0
    9.3047   -2.4828   22.3494 H   0  0  0  0  0  0  0  0  0  0  0  0
  1  2  2  0
  2  3  1  0
  3  4  1  0
  4  5  2  0
  5  6  1  0
  6  7  2  0
  7  8  1  0
  8  9  2  0
  9 10  1  0
  7 11  1  0
  6 12  1  0
  5 13  1  0
  3 14  1  0
  2 15  1  0
 15 16  1  0
 16 17  1  0
 17 18  1  0
 18 19  1  0
 19 20  1  0
 20 21  1  0
 21 22  1  0
 22 23  1  0
 21 24  1  0
 24 25  2  0
 25 26  1  0
 26 27  2  0
 27 28  1  0
 28 29  2  0
 29 30  1  0
 28 31  1  0
 27 32  1  0
 26 33  1  0
 25 34  1  0
 21 35  1  0
 20 36  1  0
 20 37  1  0
 19 38  1  0
 18 39  1  0
 18 40  1  0
 17 41  1  0
 17 42  1  0
 16 43  1  0
 16 44  1  0
  9  4  1  0
 19 15  1  0
 29 24  1  0
M  END
>  <cnnaffinity>  (1) 
-5.06099

>  <filename>  (1) 
O=C(Nc1cccnc1)N1CCCC1CC(O)c1ccccc1

$$$$
