
     RDKit          3D

 43 46  0  0  0  0  0  0  0  0999 V2000
   10.5885   -1.4604   22.1844 O   0  0  0  0  0  0  0  0  0  0  0  0
    9.4064   -1.6654   22.0204 C   0  0  0  0  0  0  0  0  0  0  0  0
    8.6400   -0.9561   20.9741 C   0  0  0  0  0  0  0  0  0  0  0  0
    7.3203   -0.7236   20.9674 C   0  0  0  0  0  0  0  0  0  0  0  0
    6.6221   -0.0415   19.8729 C   0  0  0  0  0  0  0  0  0  0  0  0
    5.3969    0.6120   20.0895 C   0  0  0  0  0  0  0  0  0  0  0  0
    4.8129    1.3073   19.0287 C   0  0  0  0  0  0  0  0  0  0  0  0
    5.4616    1.3088   17.7872 C   0  0  0  0  0  0  0  0  0  0  0  0
    6.6134    0.6604   17.5507 N   0  0  0  0  0  0  0  0  0  0  0  0
    7.1667    0.0091   18.5765 C   0  0  0  0  0  0  0  0  0  0  0  0
    8.0922   -0.5241   18.3625 H   0  0  0  0  0  0  0  0  0  0  0  0
    5.0347    1.8366   16.9363 H   0  0  0  0  0  0  0  0  0  0  0  0
    3.8822    1.8546   19.1468 H   0  0  0  0  0  0  0  0  0  0  0  0
    4.9343    0.5904   21.0791 H   0  0  0  0  0  0  0  0  0  0  0  0
    6.6886   -0.9705   21.8282 H   0  0  0  0  0  0  0  0  0  0  0  0
    9.2947   -0.5025   20.2394 H   0  0  0  0  0  0  0  0  0  0  0  0
    8.6815   -2.5974   22.7544 N   0  0  0  0  0  0  0  0  0  0  0  0
    8.8397   -2.7082   24.1371 C   0  0  0  0  0  0  0  0  0  0  0  0
    9.3076   -1.7826   25.0345 C   0  0  0  0  0  0  0  0  0  0  0  0
    9.7993   -0.3717   25.1278 C   0  0  0  0  0  0  0  0  0  0  0  0
    9.8309   -0.1264   26.6651 C   0  0  0  0  0  0  0  0  0  0  0  0
    9.4509   -1.4437   27.3959 C   0  0  0  0  0  0  0  0  0  0  0  0
    9.1151   -2.3760   26.2750 C   0  0  0  0  0  0  0  0  0  0  0  0
    8.5775   -3.5779   26.2219 N   0  0  0  0  0  0  0  0  0  0  0  0
    8.4195   -3.7975   24.8709 N   0  0  0  0  0  0  0  0  0  0  0  0
    7.6142   -4.8797   24.3848 C   0  0  0  0  0  0  0  0  0  0  0  0
    6.4986   -5.3111   25.1187 C   0  0  0  0  0  0  0  0  0  0  0  0
    5.5501   -6.1295   24.5065 C   0  0  0  0  0  0  0  0  0  0  0  0
    5.7348   -6.5780   23.1922 C   0  0  0  0  0  0  0  0  0  0  0  0
    6.9180   -6.2630   22.5213 C   0  0  0  0  0  0  0  0  0  0  0  0
    7.8889   -5.4624   23.1312 C   0  0  0  0  0  0  0  0  0  0  0  0
    8.8412   -5.2760   22.6416 H   0  0  0  0  0  0  0  0  0  0  0  0
    7.0904   -6.6432   21.5202 H   0  0  0  0  0  0  0  0  0  0  0  0
    4.9848   -7.2026   22.7183 H   0  0  0  0  0  0  0  0  0  0  0  0
    4.6622   -6.4055   25.0635 H   0  0  0  0  0  0  0  0  0  0  0  0
    6.3790   -4.9763   26.1476 H   0  0  0  0  0  0  0  0  0  0  0  0
   10.2804   -1.8361   27.9792 H   0  0  0  0  0  0  0  0  0  0  0  0
    8.6097   -1.3027   28.0744 H   0  0  0  0  0  0  0  0  0  0  0  0
   10.8240    0.1966   26.9811 H   0  0  0  0  0  0  0  0  0  0  0  0
    9.1266    0.6644   26.9402 H   0  0  0  0  0  0  0  0  0  0  0  0
   10.7850   -0.2654   24.6633 H   0  0  0  0  0  0  0  0  0  0  0  0
    9.1341    0.3413   24.6223 H   0  0  0  0  0  0  0  0  0  0  0  0
    7.7686   -2.8148   22.3798 H   0  0  0  0  0  0  0  0  0  0  0  0
  1  2  2  0
  2  3  1  0
  3  4  2  3
  4  5  1  0
  5  6  2  0
  6  7  1  0
  7  8  2  0
  8  9  1  0
  9 10  2  0
 10 11  1  0
  8 12  1  0
  7 13  1  0
  6 14  1  0
  4 15  1  0
  3 16  1  0
  2 17  1  0
 17 18  1  0
 18 19  2  0
 19 20  1  0
 20 21  1  0
 21 22  1  0
 22 23  1  0
 23 24  2  0
 24 25  1  0
 25 26  1  0
 26 27  2  0
 27 28  1  0
 28 29  2  0
 29 30  1  0
 30 31  2  0
 31 32  1  0
 30 33  1  0
 29 34  1  0
 28 35  1  0
 27 36  1  0
 22 37  1  0
 22 38  1  0
 21 39  1  0
 21 40  1  0
 20 41  1  0
 20 42  1  0
 17 43  1  0
 10  5  1  0
 25 18  1  0
 31 26  1  0
 23 19  1  0
M  END
>  <cnnaffinity>  (1) 
-5.81351

>  <filename>  (1) 
O=C(C=Cc1cccnc1)Nc1c2c(nn1-c1ccccc1)CCC2

$$$$
