
     RDKit          3D

 40 42  0  0  0  0  0  0  0  0999 V2000
    5.8147   -2.3397   21.3482 O   0  0  0  0  0  0  0  0  0  0  0  0
    6.8199   -1.7364   21.6909 C   0  0  0  0  0  0  0  0  0  0  0  0
    7.4127   -0.7783   20.8972 N   0  0  0  0  0  0  0  0  0  0  0  0
    6.7151   -0.0830   19.8546 C   0  0  0  0  0  0  0  0  0  0  0  0
    5.4940    0.5500   20.1159 C   0  0  0  0  0  0  0  0  0  0  0  0
    4.8746    1.2567   19.0781 C   0  0  0  0  0  0  0  0  0  0  0  0
    5.4829    1.2852   17.8185 C   0  0  0  0  0  0  0  0  0  0  0  0
    6.6522    0.6701   17.5516 N   0  0  0  0  0  0  0  0  0  0  0  0
    7.2476    0.0165   18.5568 C   0  0  0  0  0  0  0  0  0  0  0  0
    8.2004   -0.4724   18.3503 H   0  0  0  0  0  0  0  0  0  0  0  0
    5.0241    1.8266   16.9924 H   0  0  0  0  0  0  0  0  0  0  0  0
    3.9424    1.7915   19.2416 H   0  0  0  0  0  0  0  0  0  0  0  0
    5.0636    0.4862   21.1142 H   0  0  0  0  0  0  0  0  0  0  0  0
    8.1560   -0.2660   21.3564 H   0  0  0  0  0  0  0  0  0  0  0  0
    7.5985   -1.9556   23.0775 C   0  0  0  0  0  0  0  0  0  0  0  0
    8.5633   -1.2445   23.3489 O   0  0  0  0  0  0  0  0  0  0  0  0
    7.1502   -2.8982   23.9586 N   0  0  0  0  0  0  0  0  0  0  0  0
    7.6760   -2.9006   25.3397 C   0  0  0  0  0  0  0  0  0  0  0  0
    6.6176   -3.3815   26.3408 C   0  0  0  0  0  0  0  0  0  0  0  0
    6.1103   -4.7129   25.9867 N   0  0  0  0  0  0  0  0  0  0  0  0
    5.4924   -5.5084   26.9177 C   0  0  0  0  0  0  0  0  0  0  0  0
    4.9053   -4.9425   28.0728 C   0  0  0  0  0  0  0  0  0  0  0  0
    4.2104   -5.7597   28.9534 C   0  0  0  0  0  0  0  0  0  0  0  0
    4.1716   -7.1309   28.6929 C   0  0  0  0  0  0  0  0  0  0  0  0
    3.2721   -8.2017   29.7204 Cl  0  0  0  0  0  0  0  0  0  0  0  0
    4.8494   -7.6079   27.5712 C   0  0  0  0  0  0  0  0  0  0  0  0
    5.4516   -6.8247   26.6716 N   0  0  0  0  0  0  0  0  0  0  0  0
    4.8999   -8.6730   27.3934 H   0  0  0  0  0  0  0  0  0  0  0  0
    3.7073   -5.3594   29.8312 H   0  0  0  0  0  0  0  0  0  0  0  0
    4.9935   -3.8766   28.2209 H   0  0  0  0  0  0  0  0  0  0  0  0
    6.3272   -5.1573   24.6060 C   0  0  0  0  0  0  0  0  0  0  0  0
    6.2005   -3.9765   23.6290 C   0  0  0  0  0  0  0  0  0  0  0  0
    6.3718   -4.3192   22.6087 H   0  0  0  0  0  0  0  0  0  0  0  0
    5.1807   -3.5834   23.6690 H   0  0  0  0  0  0  0  0  0  0  0  0
    5.5927   -5.9184   24.3359 H   0  0  0  0  0  0  0  0  0  0  0  0
    7.3221   -5.6177   24.5059 H   0  0  0  0  0  0  0  0  0  0  0  0
    7.0829   -3.4091   27.3345 H   0  0  0  0  0  0  0  0  0  0  0  0
    5.8039   -2.6396   26.3770 H   0  0  0  0  0  0  0  0  0  0  0  0
    8.0026   -1.8936   25.5940 H   0  0  0  0  0  0  0  0  0  0  0  0
    8.5572   -3.5490   25.3982 H   0  0  0  0  0  0  0  0  0  0  0  0
  1  2  2  0
  2  3  1  0
  3  4  1  0
  4  5  2  0
  5  6  1  0
  6  7  2  0
  7  8  1  0
  8  9  2  0
  9 10  1  0
  7 11  1  0
  6 12  1  0
  5 13  1  0
  3 14  1  0
  2 15  1  0
 15 16  2  0
 15 17  1  0
 17 18  1  0
 18 19  1  0
 19 20  1  0
 20 21  1  0
 21 22  2  0
 22 23  1  0
 23 24  2  0
 24 25  1  0
 24 26  1  0
 26 27  2  0
 26 28  1  0
 23 29  1  0
 22 30  1  0
 20 31  1  0
 31 32  1  0
 32 33  1  0
 32 34  1  0
 31 35  1  0
 31 36  1  0
 19 37  1  0
 19 38  1  0
 18 39  1  0
 18 40  1  0
  9  4  1  0
 32 17  1  0
 27 21  1  0
M  END
>  <cnnaffinity>  (1) 
-5.05493

>  <filename>  (1) 
O=C(Nc1cccnc1)C(=O)N1CCN(c2ccc(Cl)cn2)CC1

$$$$
