
     RDKit          3D

 33 36  0  0  0  0  0  0  0  0999 V2000
    4.9159    1.8372   16.9629 H   0  0  0  0  0  0  0  0  0  0  0  0
    5.4796    1.3548   17.7608 C   0  0  0  0  0  0  0  0  0  0  0  0
    6.6433    0.7823   17.4167 N   0  0  0  0  0  0  0  0  0  0  0  0
    7.3366    0.1435   18.3698 C   0  0  0  0  0  0  0  0  0  0  0  0
    8.2540   -0.3453   18.0484 H   0  0  0  0  0  0  0  0  0  0  0  0
    6.9162    0.0446   19.7080 C   0  0  0  0  0  0  0  0  0  0  0  0
    7.6366   -0.7337   20.6562 N   0  0  0  0  0  0  0  0  0  0  0  0
    8.9965   -0.7200   20.9972 C   0  0  0  0  0  0  0  0  0  0  0  0
    9.6895   -0.0595   20.5019 H   0  0  0  0  0  0  0  0  0  0  0  0
    9.2189   -1.6060   22.0063 C   0  0  0  0  0  0  0  0  0  0  0  0
   10.1001   -1.8653   22.5662 H   0  0  0  0  0  0  0  0  0  0  0  0
    7.9906   -2.1808   22.2934 N   0  0  0  0  0  0  0  0  0  0  0  0
    7.5448   -3.1085   23.1676 N   0  0  0  0  0  0  0  0  0  0  0  0
    6.2356   -3.2020   22.8389 C   0  0  0  0  0  0  0  0  0  0  0  0
    5.1589   -4.1424   23.3545 C   0  0  0  0  0  0  0  0  0  0  0  0
    4.0904   -4.1865   22.7609 O   0  0  0  0  0  0  0  0  0  0  0  0
    5.3545   -5.0677   24.5511 C   0  0  0  0  0  0  0  0  0  0  0  0
    4.5862   -6.2483   24.5959 C   0  0  0  0  0  0  0  0  0  0  0  0
    3.9107   -6.4910   23.7841 H   0  0  0  0  0  0  0  0  0  0  0  0
    4.6963   -7.0995   25.6947 C   0  0  0  0  0  0  0  0  0  0  0  0
    4.0758   -7.9968   25.7368 H   0  0  0  0  0  0  0  0  0  0  0  0
    5.5336   -6.8703   26.7152 N   0  0  0  0  0  0  0  0  0  0  0  0
    6.2799   -5.7582   26.6642 C   0  0  0  0  0  0  0  0  0  0  0  0
    6.9775   -5.6121   27.4849 H   0  0  0  0  0  0  0  0  0  0  0  0
    6.2187   -4.8123   25.6297 C   0  0  0  0  0  0  0  0  0  0  0  0
    6.8394   -3.9158   25.6705 H   0  0  0  0  0  0  0  0  0  0  0  0
    5.8744   -2.3263   21.7925 C   0  0  0  0  0  0  0  0  0  0  0  0
    4.8780   -2.2798   21.4254 H   0  0  0  0  0  0  0  0  0  0  0  0
    7.0405   -1.6738   21.4798 C   0  0  0  0  0  0  0  0  0  0  0  0
    5.7133    0.6802   20.0636 C   0  0  0  0  0  0  0  0  0  0  0  0
    5.3787    0.6686   21.1019 H   0  0  0  0  0  0  0  0  0  0  0  0
    4.9806    1.3312   19.0668 C   0  0  0  0  0  0  0  0  0  0  0  0
    4.0330    1.8077   19.2890 H   0  0  0  0  0  0  0  0  0  0  0  0
  1  2  1  0
  2  3  2  0
  3  4  1  0
  4  5  1  0
  4  6  2  0
  6  7  1  0
  7  8  1  0
  8  9  1  0
  8 10  2  0
 10 11  1  0
 10 12  1  0
 12 13  1  0
 13 14  2  0
 14 15  1  0
 15 16  2  0
 15 17  1  0
 17 18  2  0
 18 19  1  0
 18 20  1  0
 20 21  1  0
 20 22  2  0
 22 23  1  0
 23 24  1  0
 23 25  2  0
 25 26  1  0
 14 27  1  0
 27 28  1  0
 27 29  2  0
  6 30  1  0
 30 31  1  0
 30 32  2  0
 32 33  1  0
 32  2  1  0
 29  7  1  0
 29 12  1  0
 25 17  1  0
M  END
>  <cnnaffinity>  (1) 
-5.42695

>  <filename>  (1) 
O=C(c1ccncc1)c1cc2n(-c3cccnc3)ccn2n1

$$$$
