
     RDKit          3D

 34 36  0  0  0  0  0  0  0  0999 V2000
    5.8847   -2.3075   21.4464 O   0  0  0  0  0  0  0  0  0  0  0  0
    6.8382   -1.6252   21.7596 C   0  0  0  0  0  0  0  0  0  0  0  0
    7.5435   -1.7549   23.1381 C   0  0  0  0  0  0  0  0  0  0  0  0
    7.0556   -0.8649   24.1924 O   0  0  0  0  0  0  0  0  0  0  0  0
    7.5631    0.3830   24.2887 C   0  0  0  0  0  0  0  0  0  0  0  0
    8.3214    0.8480   23.4573 O   0  0  0  0  0  0  0  0  0  0  0  0
    7.0797    1.1310   25.5099 C   0  0  0  0  0  0  0  0  0  0  0  0
    7.4256    2.4599   25.6437 C   0  0  0  0  0  0  0  0  0  0  0  0
    6.9742    3.2091   26.7666 C   0  0  0  0  0  0  0  0  0  0  0  0
    7.1573    4.4804   27.0870 N   0  0  0  0  0  0  0  0  0  0  0  0
    6.4760    4.6545   28.2557 C   0  0  0  0  0  0  0  0  0  0  0  0
    5.8697    3.4944   28.6718 C   0  0  0  0  0  0  0  0  0  0  0  0
    6.1863    2.5560   27.7197 N   0  0  0  0  0  0  0  0  0  0  0  0
    5.8472    1.2213   27.6105 C   0  0  0  0  0  0  0  0  0  0  0  0
    6.2774    0.5003   26.5415 C   0  0  0  0  0  0  0  0  0  0  0  0
    6.0157   -0.5502   26.4646 H   0  0  0  0  0  0  0  0  0  0  0  0
    5.2268    0.8290   28.4087 H   0  0  0  0  0  0  0  0  0  0  0  0
    5.2600    3.2502   29.5278 H   0  0  0  0  0  0  0  0  0  0  0  0
    6.4469    5.6176   28.7533 H   0  0  0  0  0  0  0  0  0  0  0  0
    8.0362    2.9889   24.9219 H   0  0  0  0  0  0  0  0  0  0  0  0
    7.3371   -2.7530   23.5164 H   0  0  0  0  0  0  0  0  0  0  0  0
    8.6236   -1.6298   23.0106 H   0  0  0  0  0  0  0  0  0  0  0  0
    7.4311   -0.6994   20.9150 N   0  0  0  0  0  0  0  0  0  0  0  0
    6.7142   -0.0559   19.8424 C   0  0  0  0  0  0  0  0  0  0  0  0
    5.4969    0.5872   20.1028 C   0  0  0  0  0  0  0  0  0  0  0  0
    4.8613    1.2768   19.0628 C   0  0  0  0  0  0  0  0  0  0  0  0
    5.4608    1.3028   17.8019 C   0  0  0  0  0  0  0  0  0  0  0  0
    6.6271    0.6918   17.5316 N   0  0  0  0  0  0  0  0  0  0  0  0
    7.2351    0.0376   18.5323 C   0  0  0  0  0  0  0  0  0  0  0  0
    8.1907   -0.4307   18.2975 H   0  0  0  0  0  0  0  0  0  0  0  0
    4.9873    1.8179   16.9709 H   0  0  0  0  0  0  0  0  0  0  0  0
    3.9295    1.8069   19.2245 H   0  0  0  0  0  0  0  0  0  0  0  0
    5.0865    0.5561   21.1146 H   0  0  0  0  0  0  0  0  0  0  0  0
    8.0664   -0.0701   21.4017 H   0  0  0  0  0  0  0  0  0  0  0  0
  1  2  2  0
  2  3  1  0
  3  4  1  0
  4  5  1  0
  5  6  2  0
  5  7  1  0
  7  8  2  0
  8  9  1  0
  9 10  2  0
 10 11  1  0
 11 12  2  0
 12 13  1  0
 13 14  1  0
 14 15  2  0
 15 16  1  0
 14 17  1  0
 12 18  1  0
 11 19  1  0
  8 20  1  0
  3 21  1  0
  3 22  1  0
  2 23  1  0
 23 24  1  0
 24 25  2  0
 25 26  1  0
 26 27  2  0
 27 28  1  0
 28 29  2  0
 29 30  1  0
 27 31  1  0
 26 32  1  0
 25 33  1  0
 23 34  1  0
 15  7  1  0
 29 24  1  0
 13  9  1  0
M  END
>  <cnnaffinity>  (1) 
-4.84686

>  <filename>  (1) 
O=C(COC(=O)c1ccn2ccnc2c1)Nc1cccnc1

$$$$
