
     RDKit          3D

 30 31  0  0  0  0  0  0  0  0999 V2000
    4.8885    1.9656   16.7553 H   0  0  0  0  0  0  0  0  0  0  0  0
    5.3018    1.3384   17.5419 C   0  0  0  0  0  0  0  0  0  0  0  0
    6.4389    0.6857   17.2450 N   0  0  0  0  0  0  0  0  0  0  0  0
    7.0219   -0.0072   18.2303 C   0  0  0  0  0  0  0  0  0  0  0  0
    7.9539   -0.5172   17.9932 H   0  0  0  0  0  0  0  0  0  0  0  0
    6.5098   -0.0853   19.5374 C   0  0  0  0  0  0  0  0  0  0  0  0
    7.5393   -0.7703   20.8167 S   0  0  0  0  0  0  0  0  0  0  0  0
    8.7145    0.8654   21.2786 S   0  0  0  0  0  0  0  0  0  0  0  0
    7.6239    1.8020   22.4186 C   0  0  0  0  0  0  0  0  0  0  0  0
    6.7047    2.0791   21.8980 H   0  0  0  0  0  0  0  0  0  0  0  0
    8.1736    2.7138   22.6539 H   0  0  0  0  0  0  0  0  0  0  0  0
    7.3210    1.0946   23.6404 N   0  0  0  0  0  0  0  0  0  0  0  0
    6.7050    0.3082   23.5511 H   0  0  0  0  0  0  0  0  0  0  0  0
    8.3531    0.8899   24.5318 C   0  0  0  0  0  0  0  0  0  0  0  0
    9.1948    1.7451   24.7145 O   0  0  0  0  0  0  0  0  0  0  0  0
    8.3790   -0.4407   25.2562 C   0  0  0  0  0  0  0  0  0  0  0  0
    9.2553   -0.5461   26.3533 C   0  0  0  0  0  0  0  0  0  0  0  0
    9.8309    0.3265   26.6592 H   0  0  0  0  0  0  0  0  0  0  0  0
    9.4059   -1.7573   27.0249 C   0  0  0  0  0  0  0  0  0  0  0  0
   10.1228   -1.8142   27.8353 H   0  0  0  0  0  0  0  0  0  0  0  0
    8.7148   -2.8968   26.6066 C   0  0  0  0  0  0  0  0  0  0  0  0
    8.8276   -3.8343   27.1484 H   0  0  0  0  0  0  0  0  0  0  0  0
    7.8526   -2.8058   25.5098 C   0  0  0  0  0  0  0  0  0  0  0  0
    7.3548   -3.6966   25.1382 H   0  0  0  0  0  0  0  0  0  0  0  0
    7.6596   -1.5855   24.8564 C   0  0  0  0  0  0  0  0  0  0  0  0
    6.9689   -1.5777   24.0116 H   0  0  0  0  0  0  0  0  0  0  0  0
    5.2751    0.5166   19.8100 C   0  0  0  0  0  0  0  0  0  0  0  0
    4.8230    0.4296   20.8015 H   0  0  0  0  0  0  0  0  0  0  0  0
    4.6733    1.2652   18.7908 C   0  0  0  0  0  0  0  0  0  0  0  0
    3.7512    1.8100   18.9661 H   0  0  0  0  0  0  0  0  0  0  0  0
  1  2  1  0
  2  3  2  0
  3  4  1  0
  4  5  1  0
  4  6  2  0
  6  7  1  0
  7  8  1  0
  8  9  1  0
  9 10  1  0
  9 11  1  0
  9 12  1  0
 12 13  1  0
 12 14  1  0
 14 15  2  0
 14 16  1  0
 16 17  2  0
 17 18  1  0
 17 19  1  0
 19 20  1  0
 19 21  2  0
 21 22  1  0
 21 23  1  0
 23 24  1  0
 23 25  2  0
 25 26  1  0
  6 27  1  0
 27 28  1  0
 27 29  2  0
 29 30  1  0
 29  2  1  0
 25 16  1  0
M  END
>  <cnnaffinity>  (1) 
-4.96987

>  <filename>  (1) 
O=C(NCSSc1cccnc1)c1ccccc1

$$$$
