
     RDKit          3D

 32 33  0  0  0  0  0  0  0  0999 V2000
    9.4217    0.0601   20.4160 O   0  0  0  0  0  0  0  0  0  0  0  0
    8.7115   -0.6516   21.1025 C   0  0  0  0  0  0  0  0  0  0  0  0
    7.3494   -0.6844   20.9414 N   0  0  0  0  0  0  0  0  0  0  0  0
    6.6643    0.0027   19.9017 C   0  0  0  0  0  0  0  0  0  0  0  0
    5.4463    0.6314   20.1675 C   0  0  0  0  0  0  0  0  0  0  0  0
    4.8092    1.3071   19.1134 C   0  0  0  0  0  0  0  0  0  0  0  0
    5.3975    1.2964   17.8422 C   0  0  0  0  0  0  0  0  0  0  0  0
    6.5579    0.6780   17.5683 N   0  0  0  0  0  0  0  0  0  0  0  0
    7.1738    0.0646   18.5837 C   0  0  0  0  0  0  0  0  0  0  0  0
    8.1187   -0.4255   18.3702 H   0  0  0  0  0  0  0  0  0  0  0  0
    4.9112    1.7822   16.9972 H   0  0  0  0  0  0  0  0  0  0  0  0
    3.8748    1.8427   19.2614 H   0  0  0  0  0  0  0  0  0  0  0  0
    5.0258    0.6140   21.1765 H   0  0  0  0  0  0  0  0  0  0  0  0
    6.7845   -1.0759   21.6757 H   0  0  0  0  0  0  0  0  0  0  0  0
    9.3868   -1.5799   22.1804 C   0  0  0  0  0  0  0  0  0  0  0  0
    8.4642   -2.4254   22.7468 F   0  0  0  0  0  0  0  0  0  0  0  0
   10.2703   -2.3938   21.5464 F   0  0  0  0  0  0  0  0  0  0  0  0
   10.1296   -0.7913   23.2434 C   0  0  0  0  0  0  0  0  0  0  0  0
    9.5613    0.1480   23.9974 C   0  0  0  0  0  0  0  0  0  0  0  0
    8.1104    0.4825   24.0067 C   0  0  0  0  0  0  0  0  0  0  0  0
    7.1641   -0.4106   24.5325 C   0  0  0  0  0  0  0  0  0  0  0  0
    5.8088   -0.0684   24.5569 C   0  0  0  0  0  0  0  0  0  0  0  0
    5.3853    1.1562   24.0285 C   0  0  0  0  0  0  0  0  0  0  0  0
    6.3218    2.0530   23.5004 C   0  0  0  0  0  0  0  0  0  0  0  0
    7.6808    1.7170   23.4944 C   0  0  0  0  0  0  0  0  0  0  0  0
    8.4128    2.4123   23.0867 H   0  0  0  0  0  0  0  0  0  0  0  0
    5.9980    3.0109   23.0988 H   0  0  0  0  0  0  0  0  0  0  0  0
    4.3296    1.4131   24.0330 H   0  0  0  0  0  0  0  0  0  0  0  0
    5.0852   -0.7697   24.9632 H   0  0  0  0  0  0  0  0  0  0  0  0
    7.4895   -1.3625   24.9463 H   0  0  0  0  0  0  0  0  0  0  0  0
   10.1899    0.7461   24.6576 H   0  0  0  0  0  0  0  0  0  0  0  0
   11.2042   -0.9571   23.2679 H   0  0  0  0  0  0  0  0  0  0  0  0
  1  2  2  0
  2  3  1  0
  3  4  1  0
  4  5  2  0
  5  6  1  0
  6  7  2  0
  7  8  1  0
  8  9  2  0
  9 10  1  0
  7 11  1  0
  6 12  1  0
  5 13  1  0
  3 14  1  0
  2 15  1  0
 15 16  1  0
 15 17  1  0
 15 18  1  0
 18 19  2  3
 19 20  1  0
 20 21  2  0
 21 22  1  0
 22 23  2  0
 23 24  1  0
 24 25  2  0
 25 26  1  0
 24 27  1  0
 23 28  1  0
 22 29  1  0
 21 30  1  0
 19 31  1  0
 18 32  1  0
  9  4  1  0
 25 20  1  0
M  END
>  <cnnaffinity>  (1) 
-4.63804

>  <filename>  (1) 
O=C(Nc1cccnc1)C(F)(F)C=Cc1ccccc1

$$$$
