
     RDKit          3D

 31 33  0  0  0  0  0  0  0  0999 V2000
    4.9406    1.8131   16.9654 H   0  0  0  0  0  0  0  0  0  0  0  0
    5.3953    1.3043   17.8136 C   0  0  0  0  0  0  0  0  0  0  0  0
    6.5582    0.6720   17.5744 N   0  0  0  0  0  0  0  0  0  0  0  0
    7.1681    0.0657   18.5965 C   0  0  0  0  0  0  0  0  0  0  0  0
    8.1079   -0.4471   18.3882 H   0  0  0  0  0  0  0  0  0  0  0  0
    6.6329    0.0603   19.8945 C   0  0  0  0  0  0  0  0  0  0  0  0
    7.3014   -0.5788   20.9777 N   0  0  0  0  0  0  0  0  0  0  0  0
    7.9350   -1.7726   20.8654 N   0  0  0  0  0  0  0  0  0  0  0  0
    8.3486   -2.0842   22.0341 N   0  0  0  0  0  0  0  0  0  0  0  0
    8.0207   -1.1407   22.9552 N   0  0  0  0  0  0  0  0  0  0  0  0
    7.3952   -0.2242   22.2822 C   0  0  0  0  0  0  0  0  0  0  0  0
    6.8922    0.9168   22.7880 O   0  0  0  0  0  0  0  0  0  0  0  0
    7.3634    2.0869   22.1999 C   0  0  0  0  0  0  0  0  0  0  0  0
    8.1792    2.1188   21.3197 O   0  0  0  0  0  0  0  0  0  0  0  0
    6.6928    3.0810   22.8165 N   0  0  0  0  0  0  0  0  0  0  0  0
    5.9544    2.6948   23.3709 H   0  0  0  0  0  0  0  0  0  0  0  0
    6.7658    4.4466   22.5051 C   0  0  0  0  0  0  0  0  0  0  0  0
    5.6155    5.2375   22.5035 C   0  0  0  0  0  0  0  0  0  0  0  0
    4.6572    4.7919   22.7472 H   0  0  0  0  0  0  0  0  0  0  0  0
    5.7006    6.5797   22.1213 C   0  0  0  0  0  0  0  0  0  0  0  0
    4.8171    7.2094   22.0889 H   0  0  0  0  0  0  0  0  0  0  0  0
    6.9405    7.1132   21.7550 C   0  0  0  0  0  0  0  0  0  0  0  0
    6.9960    8.7330   21.1342 Cl  0  0  0  0  0  0  0  0  0  0  0  0
    8.1079    6.3466   21.8230 C   0  0  0  0  0  0  0  0  0  0  0  0
    9.0756    6.7782   21.5833 H   0  0  0  0  0  0  0  0  0  0  0  0
    8.0066    5.0058   22.1909 C   0  0  0  0  0  0  0  0  0  0  0  0
    8.8702    4.3553   22.2061 H   0  0  0  0  0  0  0  0  0  0  0  0
    5.4059    0.6807   20.1351 C   0  0  0  0  0  0  0  0  0  0  0  0
    4.9634    0.6428   21.1280 H   0  0  0  0  0  0  0  0  0  0  0  0
    4.7772    1.3240   19.0673 C   0  0  0  0  0  0  0  0  0  0  0  0
    3.8375    1.8518   19.2051 H   0  0  0  0  0  0  0  0  0  0  0  0
  1  2  1  0
  2  3  2  0
  3  4  1  0
  4  5  1  0
  4  6  2  0
  6  7  1  0
  7  8  1  0
  8  9  2  0
  9 10  1  0
 10 11  2  0
 11 12  1  0
 12 13  1  0
 13 14  2  0
 13 15  1  0
 15 16  1  0
 15 17  1  0
 17 18  2  0
 18 19  1  0
 18 20  1  0
 20 21  1  0
 20 22  2  0
 22 23  1  0
 22 24  1  0
 24 25  1  0
 24 26  2  0
 26 27  1  0
  6 28  1  0
 28 29  1  0
 28 30  2  0
 30 31  1  0
 30  2  1  0
 11  7  1  0
 26 17  1  0
M  END
>  <cnnaffinity>  (1) 
-5.15873

>  <filename>  (1) 
O=C(Nc1ccc(Cl)cc1)Oc1nnnn1-c1cccnc1

$$$$
