
     RDKit          3D

 41 43  0  0  0  0  0  0  0  0999 V2000
    5.0395    1.8929   16.9462 H   0  0  0  0  0  0  0  0  0  0  0  0
    5.4496    1.3527   17.7986 C   0  0  0  0  0  0  0  0  0  0  0  0
    6.6033    0.6995   17.5842 N   0  0  0  0  0  0  0  0  0  0  0  0
    7.1410    0.0286   18.6104 C   0  0  0  0  0  0  0  0  0  0  0  0
    8.1040   -0.4501   18.4500 H   0  0  0  0  0  0  0  0  0  0  0  0
    6.5389   -0.0643   19.8778 C   0  0  0  0  0  0  0  0  0  0  0  0
    7.1853   -0.7518   20.9725 N   0  0  0  0  0  0  0  0  0  0  0  0
    7.8089    0.0501   21.9237 C   0  0  0  0  0  0  0  0  0  0  0  0
    7.7320    1.1228   21.7816 H   0  0  0  0  0  0  0  0  0  0  0  0
    8.4576   -0.4772   22.9880 C   0  0  0  0  0  0  0  0  0  0  0  0
    8.8714    0.3632   24.0682 N   0  0  0  0  0  0  0  0  0  0  0  0
    8.9011   -0.0558   24.9859 H   0  0  0  0  0  0  0  0  0  0  0  0
    9.0402    1.7413   24.0164 C   0  0  0  0  0  0  0  0  0  0  0  0
    9.1882    2.3030   22.9477 O   0  0  0  0  0  0  0  0  0  0  0  0
    9.0109    2.4898   25.3693 C   0  0  0  0  0  0  0  0  0  0  0  0
    9.7249    1.9615   26.0200 H   0  0  0  0  0  0  0  0  0  0  0  0
    9.4480    3.9671   25.2062 C   0  0  0  0  0  0  0  0  0  0  0  0
   10.4065    4.0302   24.6815 H   0  0  0  0  0  0  0  0  0  0  0  0
    9.5995    4.3933   26.2100 H   0  0  0  0  0  0  0  0  0  0  0  0
    8.4026    4.7968   24.4467 C   0  0  0  0  0  0  0  0  0  0  0  0
    8.7740    5.8208   24.3224 H   0  0  0  0  0  0  0  0  0  0  0  0
    8.2825    4.3559   23.4467 H   0  0  0  0  0  0  0  0  0  0  0  0
    7.0512    4.7808   25.1744 C   0  0  0  0  0  0  0  0  0  0  0  0
    7.1490    5.2381   26.1754 H   0  0  0  0  0  0  0  0  0  0  0  0
    6.3218    5.3950   24.6253 H   0  0  0  0  0  0  0  0  0  0  0  0
    6.5606    3.3274   25.3312 C   0  0  0  0  0  0  0  0  0  0  0  0
    6.3208    2.9201   24.3364 H   0  0  0  0  0  0  0  0  0  0  0  0
    5.6245    3.2994   25.9012 H   0  0  0  0  0  0  0  0  0  0  0  0
    7.6105    2.4511   26.0462 C   0  0  0  0  0  0  0  0  0  0  0  0
    7.2639    1.4150   26.1505 H   0  0  0  0  0  0  0  0  0  0  0  0
    7.7325    2.8346   27.0695 H   0  0  0  0  0  0  0  0  0  0  0  0
    8.6086   -1.9794   23.0375 C   0  0  0  0  0  0  0  0  0  0  0  0
    9.0880   -2.6416   23.9300 O   0  0  0  0  0  0  0  0  0  0  0  0
    8.1092   -2.6546   21.9370 N   0  0  0  0  0  0  0  0  0  0  0  0
    8.0541   -3.6445   22.0918 H   0  0  0  0  0  0  0  0  0  0  0  0
    7.1196   -2.1615   21.1241 C   0  0  0  0  0  0  0  0  0  0  0  0
    6.3235   -2.8853   20.5828 O   0  0  0  0  0  0  0  0  0  0  0  0
    5.3539    0.6422   20.0969 C   0  0  0  0  0  0  0  0  0  0  0  0
    4.9105    0.6321   21.0919 H   0  0  0  0  0  0  0  0  0  0  0  0
    4.7945    1.3652   19.0360 C   0  0  0  0  0  0  0  0  0  0  0  0
    3.8750    1.9313   19.1516 H   0  0  0  0  0  0  0  0  0  0  0  0
  1  2  1  0
  2  3  2  0
  3  4  1  0
  4  5  1  0
  4  6  2  0
  6  7  1  0
  7  8  1  0
  8  9  1  0
  8 10  2  0
 10 11  1  0
 11 12  1  0
 11 13  1  0
 13 14  2  0
 13 15  1  0
 15 16  1  0
 15 17  1  0
 17 18  1  0
 17 19  1  0
 17 20  1  0
 20 21  1  0
 20 22  1  0
 20 23  1  0
 23 24  1  0
 23 25  1  0
 23 26  1  0
 26 27  1  0
 26 28  1  0
 26 29  1  0
 29 30  1  0
 29 31  1  0
 10 32  1  0
 32 33  2  0
 32 34  1  0
 34 35  1  0
 34 36  1  0
 36 37  2  0
  6 38  1  0
 38 39  1  0
 38 40  2  0
 40 41  1  0
 40  2  1  0
 36  7  1  0
 29 15  1  0
M  END
>  <cnnaffinity>  (1) 
-5.44307

>  <filename>  (1) 
O=C(Nc1cn(-c2cccnc2)c(=O)[nH]c1=O)C1CCCCC1

$$$$
