
     RDKit          3D

 31 32  0  0  0  0  0  0  0  0999 V2000
   12.1044   -2.9439   22.8680 H   0  0  0  0  0  0  0  0  0  0  0  0
   11.0958   -2.5863   23.0733 C   0  0  0  0  0  0  0  0  0  0  0  0
   10.5828   -1.7541   22.1649 C   0  0  0  0  0  0  0  0  0  0  0  0
   11.2112   -1.2133   21.4540 H   0  0  0  0  0  0  0  0  0  0  0  0
    9.2193   -1.4758   22.0579 N   0  0  0  0  0  0  0  0  0  0  0  0
    8.5816   -2.1289   22.4909 H   0  0  0  0  0  0  0  0  0  0  0  0
    8.7467   -0.6399   21.0658 C   0  0  0  0  0  0  0  0  0  0  0  0
    9.4623    0.0694   20.3864 O   0  0  0  0  0  0  0  0  0  0  0  0
    7.3811   -0.7098   20.9264 N   0  0  0  0  0  0  0  0  0  0  0  0
    6.8888   -1.1032   21.7091 H   0  0  0  0  0  0  0  0  0  0  0  0
    6.6687   -0.0330   19.8992 C   0  0  0  0  0  0  0  0  0  0  0  0
    7.1769    0.0414   18.5746 C   0  0  0  0  0  0  0  0  0  0  0  0
    8.1335   -0.4179   18.3454 H   0  0  0  0  0  0  0  0  0  0  0  0
    6.5585    0.6676   17.5719 N   0  0  0  0  0  0  0  0  0  0  0  0
    5.3995    1.2850   17.8513 C   0  0  0  0  0  0  0  0  0  0  0  0
    4.9257    1.7960   17.0188 H   0  0  0  0  0  0  0  0  0  0  0  0
    4.8182    1.2903   19.1230 C   0  0  0  0  0  0  0  0  0  0  0  0
    3.8885    1.8262   19.2832 H   0  0  0  0  0  0  0  0  0  0  0  0
    5.4586    0.6128   20.1703 C   0  0  0  0  0  0  0  0  0  0  0  0
    5.0511    0.6011   21.1829 H   0  0  0  0  0  0  0  0  0  0  0  0
   10.4725   -3.0688   24.3280 C   0  0  0  0  0  0  0  0  0  0  0  0
   10.8558   -4.3277   24.8257 C   0  0  0  0  0  0  0  0  0  0  0  0
   11.6510   -4.8668   24.3216 H   0  0  0  0  0  0  0  0  0  0  0  0
   10.2241   -4.8886   25.9377 C   0  0  0  0  0  0  0  0  0  0  0  0
   10.4892   -5.8917   26.2617 H   0  0  0  0  0  0  0  0  0  0  0  0
    9.2242   -4.1724   26.6047 C   0  0  0  0  0  0  0  0  0  0  0  0
    8.7054   -4.6229   27.4468 H   0  0  0  0  0  0  0  0  0  0  0  0
    8.8974   -2.8802   26.1821 C   0  0  0  0  0  0  0  0  0  0  0  0
    8.1339   -2.3131   26.7060 H   0  0  0  0  0  0  0  0  0  0  0  0
    9.5245   -2.3234   25.0598 C   0  0  0  0  0  0  0  0  0  0  0  0
    9.3089   -1.2967   24.7730 H   0  0  0  0  0  0  0  0  0  0  0  0
  1  2  1  0
  2  3  2  3
  3  4  1  0
  3  5  1  0
  5  6  1  0
  5  7  1  0
  7  8  2  0
  7  9  1  0
  9 10  1  0
  9 11  1  0
 11 12  2  0
 12 13  1  0
 12 14  1  0
 14 15  2  0
 15 16  1  0
 15 17  1  0
 17 18  1  0
 17 19  2  0
 19 20  1  0
  2 21  1  0
 21 22  2  0
 22 23  1  0
 22 24  1  0
 24 25  1  0
 24 26  2  0
 26 27  1  0
 26 28  1  0
 28 29  1  0
 28 30  2  0
 30 31  1  0
 19 11  1  0
 30 21  1  0
M  END
>  <cnnaffinity>  (1) 
-4.98043

>  <filename>  (1) 
O=C(NC=Cc1ccccc1)Nc1cccnc1

$$$$
