
     RDKit          3D

 37 38  0  0  0  0  0  0  0  0999 V2000
    6.9248    0.8531   22.6918 O   0  0  0  0  0  0  0  0  0  0  0  0
    7.3725   -0.2157   22.3251 C   0  0  0  0  0  0  0  0  0  0  0  0
    7.9887   -1.1040   23.1612 N   0  0  0  0  0  0  0  0  0  0  0  0
    7.9998   -0.8720   24.5996 C   0  0  0  0  0  0  0  0  0  0  0  0
    6.6135   -0.8829   25.2409 C   0  0  0  0  0  0  0  0  0  0  0  0
    5.8634   -2.2131   25.1412 C   0  0  2  0  0  0  0  0  0  0  0  0
    4.5503   -2.0490   25.6618 O   0  0  0  0  0  0  0  0  0  0  0  0
    4.6386   -1.8495   26.6025 H   0  0  0  0  0  0  0  0  0  0  0  0
    6.6229   -3.3683   25.7956 C   0  0  0  0  0  0  0  0  0  0  0  0
    6.8389   -3.3999   27.1850 C   0  0  0  0  0  0  0  0  0  0  0  0
    7.5410   -4.4531   27.7795 C   0  0  0  0  0  0  0  0  0  0  0  0
    8.0672   -5.4830   26.9960 C   0  0  0  0  0  0  0  0  0  0  0  0
    7.8691   -5.4655   25.6121 C   0  0  0  0  0  0  0  0  0  0  0  0
    7.1526   -4.4171   25.0211 C   0  0  0  0  0  0  0  0  0  0  0  0
    6.9828   -4.4234   23.9459 H   0  0  0  0  0  0  0  0  0  0  0  0
    8.2573   -6.2762   25.0006 H   0  0  0  0  0  0  0  0  0  0  0  0
    8.6126   -6.3003   27.4654 H   0  0  0  0  0  0  0  0  0  0  0  0
    7.6578   -4.4951   28.8573 H   0  0  0  0  0  0  0  0  0  0  0  0
    6.4474   -2.5970   27.8072 H   0  0  0  0  0  0  0  0  0  0  0  0
    5.7040   -2.4676   24.0868 H   0  0  0  0  0  0  0  0  0  0  0  0
    6.7258   -0.6122   26.2954 H   0  0  0  0  0  0  0  0  0  0  0  0
    5.9937   -0.1046   24.7875 H   0  0  0  0  0  0  0  0  0  0  0  0
    8.4510    0.1104   24.7647 H   0  0  0  0  0  0  0  0  0  0  0  0
    8.6495   -1.6180   25.0701 H   0  0  0  0  0  0  0  0  0  0  0  0
    8.1576   -2.0220   22.7936 H   0  0  0  0  0  0  0  0  0  0  0  0
    7.3350   -0.6771   21.0206 N   0  0  0  0  0  0  0  0  0  0  0  0
    6.6833   -0.0282   19.9352 C   0  0  0  0  0  0  0  0  0  0  0  0
    5.4674    0.6327   20.1757 C   0  0  0  0  0  0  0  0  0  0  0  0
    4.8303    1.2794   19.1168 C   0  0  0  0  0  0  0  0  0  0  0  0
    5.4339    1.2651   17.8556 C   0  0  0  0  0  0  0  0  0  0  0  0
    6.5937    0.6332   17.6000 N   0  0  0  0  0  0  0  0  0  0  0  0
    7.1978    0.0009   18.6156 C   0  0  0  0  0  0  0  0  0  0  0  0
    8.1521   -0.4746   18.3836 H   0  0  0  0  0  0  0  0  0  0  0  0
    4.9684    1.7797   17.0198 H   0  0  0  0  0  0  0  0  0  0  0  0
    3.8972    1.8148   19.2723 H   0  0  0  0  0  0  0  0  0  0  0  0
    5.0760    0.6550   21.1896 H   0  0  0  0  0  0  0  0  0  0  0  0
    7.9106   -1.4837   20.8652 H   0  0  0  0  0  0  0  0  0  0  0  0
  1  2  2  0
  2  3  1  0
  3  4  1  0
  4  5  1  0
  5  6  1  0
  6  7  1  0
  7  8  1  0
  6  9  1  0
  9 10  2  0
 10 11  1  0
 11 12  2  0
 12 13  1  0
 13 14  2  0
 14 15  1  0
 13 16  1  0
 12 17  1  0
 11 18  1  0
 10 19  1  0
  6 20  1  6
  5 21  1  0
  5 22  1  0
  4 23  1  0
  4 24  1  0
  3 25  1  0
  2 26  1  0
 26 27  1  0
 27 28  2  0
 28 29  1  0
 29 30  2  0
 30 31  1  0
 31 32  2  0
 32 33  1  0
 30 34  1  0
 29 35  1  0
 28 36  1  0
 26 37  1  0
 14  9  1  0
 32 27  1  0
M  END
>  <cnnaffinity>  (1) 
-4.42851

>  <filename>  (1) 
O=C(NCC[C@H](O)c1ccccc1)Nc1cccnc1

$$$$
