
     RDKit          3D

 41 44  0  0  0  0  0  0  0  0999 V2000
    9.4002    3.8705   24.9489 H   0  0  0  0  0  0  0  0  0  0  0  0
    9.8803    3.6094   24.0072 C   0  0  0  0  0  0  0  0  0  0  0  0
    9.3360    2.5734   23.3641 N   0  0  0  0  0  0  0  0  0  0  0  0
    9.8474    2.2381   22.1564 C   0  0  0  0  0  0  0  0  0  0  0  0
    9.1829    1.1303   21.3243 C   0  0  0  0  0  0  0  0  0  0  0  0
    9.6012    0.8277   20.2099 O   0  0  0  0  0  0  0  0  0  0  0  0
    8.1382    0.4704   21.8744 N   0  0  0  0  0  0  0  0  0  0  0  0
    7.7735    0.8439   22.7345 H   0  0  0  0  0  0  0  0  0  0  0  0
    7.4357   -0.5778   21.1481 C   0  0  1  0  0  0  0  0  0  0  0  0
    6.6688    0.0672   19.9750 C   0  0  0  0  0  0  0  0  0  0  0  0
    7.1980    0.1027   18.6718 C   0  0  0  0  0  0  0  0  0  0  0  0
    8.1764   -0.3257   18.4555 H   0  0  0  0  0  0  0  0  0  0  0  0
    6.5947    0.6626   17.6118 N   0  0  0  0  0  0  0  0  0  0  0  0
    5.4251    1.2807   17.8260 C   0  0  0  0  0  0  0  0  0  0  0  0
    4.9757    1.7708   16.9654 H   0  0  0  0  0  0  0  0  0  0  0  0
    4.8056    1.3269   19.0774 C   0  0  0  0  0  0  0  0  0  0  0  0
    3.8614    1.8470   19.1944 H   0  0  0  0  0  0  0  0  0  0  0  0
    5.4339    0.7139   20.1641 C   0  0  0  0  0  0  0  0  0  0  0  0
    4.9543    0.7291   21.1441 H   0  0  0  0  0  0  0  0  0  0  0  0
    8.4541   -1.7089   20.7759 C   0  0  0  0  0  0  0  0  0  0  0  0
    8.5069   -1.7975   19.7053 H   0  0  0  0  0  0  0  0  0  0  0  0
    9.4587   -1.4222   21.0911 H   0  0  0  0  0  0  0  0  0  0  0  0
    8.0080   -2.9589   21.5602 C   0  0  2  0  0  0  0  0  0  0  0  0
    8.8062   -3.6993   21.6432 H   0  0  0  0  0  0  0  0  0  0  0  0
    6.6750   -3.5242   21.0361 C   0  0  0  0  0  0  0  0  0  0  0  0
    6.6734   -3.7871   19.9747 H   0  0  0  0  0  0  0  0  0  0  0  0
    6.4246   -4.4428   21.5809 H   0  0  0  0  0  0  0  0  0  0  0  0
    5.6784   -2.3770   21.3610 C   0  0  0  0  0  0  0  0  0  0  0  0
    5.3413   -1.9192   20.4269 H   0  0  0  0  0  0  0  0  0  0  0  0
    4.7994   -2.7180   21.9137 H   0  0  0  0  0  0  0  0  0  0  0  0
    6.5515   -1.3691   22.1557 C   0  0  1  0  0  0  0  0  0  0  0  0
    6.0326   -0.6796   22.8201 H   0  0  0  0  0  0  0  0  0  0  0  0
    7.5421   -2.3058   22.8721 C   0  0  0  0  0  0  0  0  0  0  0  0
    7.0540   -3.0017   23.5671 H   0  0  0  0  0  0  0  0  0  0  0  0
    8.3453   -1.7892   23.4135 H   0  0  0  0  0  0  0  0  0  0  0  0
   10.9795    2.8662   21.6096 C   0  0  0  0  0  0  0  0  0  0  0  0
   11.3524    2.5456   20.6389 H   0  0  0  0  0  0  0  0  0  0  0  0
   11.5275    3.9600   22.2808 C   0  0  0  0  0  0  0  0  0  0  0  0
   12.3485    4.5263   21.8410 H   0  0  0  0  0  0  0  0  0  0  0  0
   10.9559    4.3441   23.4981 C   0  0  0  0  0  0  0  0  0  0  0  0
   11.3222    5.1898   24.0615 H   0  0  0  0  0  0  0  0  0  0  0  0
  1  2  1  0
  2  3  2  0
  3  4  1  0
  4  5  1  0
  5  6  2  0
  5  7  1  0
  7  8  1  0
  9  7  1  1
  9 10  1  0
 10 11  2  0
 11 12  1  0
 11 13  1  0
 13 14  2  0
 14 15  1  0
 14 16  1  0
 16 17  1  0
 16 18  2  0
 18 19  1  0
  9 20  1  0
 20 21  1  0
 20 22  1  0
 20 23  1  0
 23 24  1  1
 23 25  1  0
 25 26  1  0
 25 27  1  0
 25 28  1  0
 28 29  1  0
 28 30  1  0
 28 31  1  0
 31 32  1  1
 31 33  1  0
 33 34  1  0
 33 35  1  0
  4 36  2  0
 36 37  1  0
 36 38  1  0
 38 39  1  0
 38 40  2  0
 40 41  1  0
 40  2  1  0
 31  9  1  0
 18 10  1  0
 33 23  1  0
M  END
>  <cnnaffinity>  (1) 
-5.70218

>  <filename>  (1) 
O=C(N[C@@]1(c2cccnc2)C[C@@H]2CC[C@H]1C2)c1ccccn1

$$$$
