
     RDKit          3D

 32 34  0  0  0  0  0  0  0  0999 V2000
    4.9279    1.7903   16.9843 H   0  0  0  0  0  0  0  0  0  0  0  0
    5.3982    1.2943   17.8324 C   0  0  0  0  0  0  0  0  0  0  0  0
    6.5605    0.6786   17.5765 N   0  0  0  0  0  0  0  0  0  0  0  0
    7.1714    0.0693   18.6085 C   0  0  0  0  0  0  0  0  0  0  0  0
    8.1151   -0.4216   18.3650 H   0  0  0  0  0  0  0  0  0  0  0  0
    6.6636    0.0181   19.9218 C   0  0  0  0  0  0  0  0  0  0  0  0
    7.4187   -0.6881   21.0250 C   0  0  0  0  0  0  0  0  0  0  0  0
    8.5755    0.0963   21.6510 C   0  0  0  0  0  0  0  0  0  0  0  0
    8.8987   -0.3963   22.5721 H   0  0  0  0  0  0  0  0  0  0  0  0
    9.4263    0.1268   20.9638 H   0  0  0  0  0  0  0  0  0  0  0  0
    8.2330    1.5446   21.9475 C   0  0  0  0  0  0  0  0  0  0  0  0
    8.7430    2.4324   21.2933 O   0  0  0  0  0  0  0  0  0  0  0  0
    7.1822    1.8357   23.0277 C   0  0  0  0  0  0  0  0  0  0  0  0
    6.4343    3.0312   22.9842 C   0  0  0  0  0  0  0  0  0  0  0  0
    6.6029    3.7594   22.2003 H   0  0  0  0  0  0  0  0  0  0  0  0
    5.4749    3.2882   23.9683 C   0  0  0  0  0  0  0  0  0  0  0  0
    4.8984    4.2159   23.9464 H   0  0  0  0  0  0  0  0  0  0  0  0
    5.2070    2.4542   24.9795 N   0  0  0  0  0  0  0  0  0  0  0  0
    5.9109    1.3191   25.0357 C   0  0  0  0  0  0  0  0  0  0  0  0
    5.6809    0.6603   25.8762 H   0  0  0  0  0  0  0  0  0  0  0  0
    6.8938    0.9653   24.1032 C   0  0  0  0  0  0  0  0  0  0  0  0
    7.4069    0.0243   24.2616 H   0  0  0  0  0  0  0  0  0  0  0  0
    7.6331   -2.1579   20.8291 C   0  0  0  0  0  0  0  0  0  0  0  0
    7.1272   -2.5713   19.9639 H   0  0  0  0  0  0  0  0  0  0  0  0
    8.5953   -2.6070   21.0774 H   0  0  0  0  0  0  0  0  0  0  0  0
    6.6654   -1.6802   21.8774 C   0  0  0  0  0  0  0  0  0  0  0  0
    5.6143   -1.8366   21.6362 H   0  0  0  0  0  0  0  0  0  0  0  0
    6.8990   -1.8061   22.9350 H   0  0  0  0  0  0  0  0  0  0  0  0
    5.4445    0.6680   20.1552 C   0  0  0  0  0  0  0  0  0  0  0  0
    5.0225    0.6379   21.1601 H   0  0  0  0  0  0  0  0  0  0  0  0
    4.8006    1.3201   19.0987 C   0  0  0  0  0  0  0  0  0  0  0  0
    3.8635    1.8430   19.2373 H   0  0  0  0  0  0  0  0  0  0  0  0
  1  2  1  0
  2  3  2  0
  3  4  1  0
  4  5  1  0
  4  6  2  0
  6  7  1  0
  7  8  1  0
  8  9  1  0
  8 10  1  0
  8 11  1  0
 11 12  2  0
 11 13  1  0
 13 14  2  0
 14 15  1  0
 14 16  1  0
 16 17  1  0
 16 18  2  0
 18 19  1  0
 19 20  1  0
 19 21  2  0
 21 22  1  0
  7 23  1  0
 23 24  1  0
 23 25  1  0
 23 26  1  0
 26 27  1  0
 26 28  1  0
  6 29  1  0
 29 30  1  0
 29 31  2  0
 31 32  1  0
 31  2  1  0
 26  7  1  0
 21 13  1  0
M  END
>  <cnnaffinity>  (1) 
-4.21974

>  <filename>  (1) 
O=C(CC1(c2cccnc2)CC1)c1ccncc1

$$$$
