
     RDKit          3D

 33 35  0  0  0  0  0  0  0  0999 V2000
    8.5731   -3.6390   21.4277 H   0  0  0  0  0  0  0  0  0  0  0  0
    8.3189   -2.6084   21.6688 C   0  0  0  0  0  0  0  0  0  0  0  0
    8.5872   -2.1799   22.9037 N   0  0  0  0  0  0  0  0  0  0  0  0
    8.2478   -0.9303   23.1995 C   0  0  0  0  0  0  0  0  0  0  0  0
    8.5632   -0.5982   24.1939 H   0  0  0  0  0  0  0  0  0  0  0  0
    7.6040   -0.1115   22.2828 C   0  0  0  0  0  0  0  0  0  0  0  0
    7.3994    1.3329   22.4798 C   0  0  0  0  0  0  0  0  0  0  0  0
    7.6820    2.1247   21.6043 O   0  0  0  0  0  0  0  0  0  0  0  0
    6.8520    1.6691   23.6884 N   0  0  0  0  0  0  0  0  0  0  0  0
    6.8165    0.9299   24.3658 H   0  0  0  0  0  0  0  0  0  0  0  0
    6.3036    2.9288   24.0259 C   0  0  0  0  0  0  0  0  0  0  0  0
    5.6397    3.6859   23.0500 C   0  0  0  0  0  0  0  0  0  0  0  0
    5.5775    3.2868   22.0423 H   0  0  0  0  0  0  0  0  0  0  0  0
    5.1035    4.9378   23.3626 C   0  0  0  0  0  0  0  0  0  0  0  0
    4.6006    5.5412   22.6107 H   0  0  0  0  0  0  0  0  0  0  0  0
    5.2456    5.4393   24.6586 C   0  0  0  0  0  0  0  0  0  0  0  0
    4.6050    7.0123   25.0458 Cl  0  0  0  0  0  0  0  0  0  0  0  0
    5.9010    4.6971   25.6448 C   0  0  0  0  0  0  0  0  0  0  0  0
    5.9937    5.1179   26.6428 H   0  0  0  0  0  0  0  0  0  0  0  0
    6.4216    3.4340   25.3282 C   0  0  0  0  0  0  0  0  0  0  0  0
    6.9374    2.8524   26.0868 H   0  0  0  0  0  0  0  0  0  0  0  0
    7.3632   -0.6590   21.0189 C   0  0  0  0  0  0  0  0  0  0  0  0
    6.6398    0.0351   19.9538 C   0  0  0  0  0  0  0  0  0  0  0  0
    7.1659    0.0330   18.6512 C   0  0  0  0  0  0  0  0  0  0  0  0
    8.1049   -0.4682   18.4132 H   0  0  0  0  0  0  0  0  0  0  0  0
    6.5795    0.6434   17.6177 N   0  0  0  0  0  0  0  0  0  0  0  0
    5.4204    1.2762   17.8565 C   0  0  0  0  0  0  0  0  0  0  0  0
    4.9710    1.7828   17.0060 H   0  0  0  0  0  0  0  0  0  0  0  0
    4.7951    1.3021   19.1074 C   0  0  0  0  0  0  0  0  0  0  0  0
    3.8653    1.8418   19.2361 H   0  0  0  0  0  0  0  0  0  0  0  0
    5.4118    0.6662   20.1807 C   0  0  0  0  0  0  0  0  0  0  0  0
    4.9501    0.6642   21.1741 H   0  0  0  0  0  0  0  0  0  0  0  0
    7.7642   -1.8895   20.7045 N   0  0  0  0  0  0  0  0  0  0  0  0
  1  2  1  0
  2  3  2  0
  3  4  1  0
  4  5  1  0
  4  6  2  0
  6  7  1  0
  7  8  2  0
  7  9  1  0
  9 10  1  0
  9 11  1  0
 11 12  2  0
 12 13  1  0
 12 14  1  0
 14 15  1  0
 14 16  2  0
 16 17  1  0
 16 18  1  0
 18 19  1  0
 18 20  2  0
 20 21  1  0
  6 22  1  0
 22 23  1  0
 23 24  2  0
 24 25  1  0
 24 26  1  0
 26 27  2  0
 27 28  1  0
 27 29  1  0
 29 30  1  0
 29 31  2  0
 31 32  1  0
 22 33  2  0
 33  2  1  0
 20 11  1  0
 31 23  1  0
M  END
>  <cnnaffinity>  (1) 
-4.91749

>  <filename>  (1) 
O=C(Nc1ccc(Cl)cc1)c1cncnc1-c1cccnc1

$$$$
