
     RDKit          3D

 33 34  0  0  0  0  0  0  0  0999 V2000
    9.2336   -3.4672   25.3040 O   0  0  0  0  0  0  0  0  0  0  0  0
    8.1500   -3.6190   24.7677 C   0  0  0  0  0  0  0  0  0  0  0  0
    7.7127   -2.8735   23.7247 N   0  0  0  0  0  0  0  0  0  0  0  0
    8.6001   -2.0206   22.9493 C   0  0  0  0  0  0  0  0  0  0  0  0
    7.8868   -1.3268   21.8700 C   0  0  0  0  0  0  0  0  0  0  0  0
    7.3345   -0.7301   20.9749 C   0  0  0  0  0  0  0  0  0  0  0  0
    6.6613   -0.0140   19.9144 C   0  0  0  0  0  0  0  0  0  0  0  0
    5.4419    0.6523   20.1519 C   0  0  0  0  0  0  0  0  0  0  0  0
    4.8065    1.3102   19.0960 C   0  0  0  0  0  0  0  0  0  0  0  0
    5.4100    1.2914   17.8356 C   0  0  0  0  0  0  0  0  0  0  0  0
    6.5730    0.6691   17.5800 N   0  0  0  0  0  0  0  0  0  0  0  0
    7.1788    0.0463   18.5989 C   0  0  0  0  0  0  0  0  0  0  0  0
    8.1270   -0.4335   18.3588 H   0  0  0  0  0  0  0  0  0  0  0  0
    4.9428    1.7979   16.9945 H   0  0  0  0  0  0  0  0  0  0  0  0
    3.8691    1.8427   19.2374 H   0  0  0  0  0  0  0  0  0  0  0  0
    5.0053    0.6503   21.1504 H   0  0  0  0  0  0  0  0  0  0  0  0
    9.4185   -2.6168   22.5198 H   0  0  0  0  0  0  0  0  0  0  0  0
    9.0817   -1.2899   23.6102 H   0  0  0  0  0  0  0  0  0  0  0  0
    6.7617   -2.9868   23.4286 H   0  0  0  0  0  0  0  0  0  0  0  0
    7.1866   -4.6490   25.2595 C   0  0  0  0  0  0  0  0  0  0  0  0
    6.5312   -5.6485   24.4842 C   0  0  0  0  0  0  0  0  0  0  0  0
    6.7746   -5.8629   22.9661 C   0  0  0  0  0  0  0  0  0  0  0  0
    6.0046   -5.0407   22.2241 F   0  0  0  0  0  0  0  0  0  0  0  0
    6.4761   -7.1147   22.5852 F   0  0  0  0  0  0  0  0  0  0  0  0
    8.0531   -5.6375   22.6093 F   0  0  0  0  0  0  0  0  0  0  0  0
    5.6374   -6.4814   25.1656 C   0  0  0  0  0  0  0  0  0  0  0  0
    5.5171   -6.3286   26.5447 C   0  0  0  0  0  0  0  0  0  0  0  0
    4.7118   -7.1260   27.2370 O   0  0  0  0  0  0  0  0  0  0  0  0
    4.9078   -6.7651   28.1211 H   0  0  0  0  0  0  0  0  0  0  0  0
    6.1602   -5.4419   27.2824 N   0  0  0  0  0  0  0  0  0  0  0  0
    7.0054   -4.6262   26.6452 C   0  0  0  0  0  0  0  0  0  0  0  0
    7.5390   -3.9231   27.2810 H   0  0  0  0  0  0  0  0  0  0  0  0
    5.0774   -7.3044   24.7357 H   0  0  0  0  0  0  0  0  0  0  0  0
  1  2  2  0
  2  3  1  0
  3  4  1  0
  4  5  1  0
  5  6  3  0
  6  7  1  0
  7  8  2  0
  8  9  1  0
  9 10  2  0
 10 11  1  0
 11 12  2  0
 12 13  1  0
 10 14  1  0
  9 15  1  0
  8 16  1  0
  4 17  1  0
  4 18  1  0
  3 19  1  0
  2 20  1  0
 20 21  2  0
 21 22  1  0
 22 23  1  0
 22 24  1  0
 22 25  1  0
 21 26  1  0
 26 27  2  0
 27 28  1  0
 28 29  1  0
 27 30  1  0
 30 31  2  0
 31 32  1  0
 26 33  1  0
 12  7  1  0
 31 20  1  0
M  END
>  <cnnaffinity>  (1) 
-5.17952

>  <filename>  (1) 
O=C(NCC#Cc1cccnc1)c1cnc(O)cc1C(F)(F)F

$$$$
