
     RDKit          3D

 42 45  0  0  0  0  0  0  0  0999 V2000
    4.9702    1.8296   17.0177 H   0  0  0  0  0  0  0  0  0  0  0  0
    5.4857    1.3100   17.8223 C   0  0  0  0  0  0  0  0  0  0  0  0
    6.6491    0.7197   17.5027 N   0  0  0  0  0  0  0  0  0  0  0  0
    7.3056    0.0643   18.4672 C   0  0  0  0  0  0  0  0  0  0  0  0
    8.2389   -0.4137   18.1723 H   0  0  0  0  0  0  0  0  0  0  0  0
    6.8346   -0.0535   19.7870 C   0  0  0  0  0  0  0  0  0  0  0  0
    7.5267   -0.8413   20.7411 N   0  0  0  0  0  0  0  0  0  0  0  0
    8.8860   -0.8151   21.0615 C   0  0  0  0  0  0  0  0  0  0  0  0
    9.5404   -0.1193   20.5589 H   0  0  0  0  0  0  0  0  0  0  0  0
    9.1304   -1.7117   22.0535 C   0  0  0  0  0  0  0  0  0  0  0  0
   10.0186   -1.9734   22.5976 H   0  0  0  0  0  0  0  0  0  0  0  0
    7.9142   -2.3101   22.3428 N   0  0  0  0  0  0  0  0  0  0  0  0
    7.4982   -3.2795   23.1842 N   0  0  0  0  0  0  0  0  0  0  0  0
    6.1828   -3.3637   22.8854 C   0  0  0  0  0  0  0  0  0  0  0  0
    5.1131   -4.2740   23.4810 C   0  0  0  0  0  0  0  0  0  0  0  0
    3.9516   -4.1807   23.0885 O   0  0  0  0  0  0  0  0  0  0  0  0
    5.4301   -5.2075   24.4169 N   0  0  0  0  0  0  0  0  0  0  0  0
    6.3398   -5.1835   24.8541 H   0  0  0  0  0  0  0  0  0  0  0  0
    4.3760   -6.0676   24.9396 C   0  0  0  0  0  0  0  0  0  0  0  0
    3.9745   -6.6605   24.1099 H   0  0  0  0  0  0  0  0  0  0  0  0
    3.5269   -5.4595   25.2801 H   0  0  0  0  0  0  0  0  0  0  0  0
    4.8757   -7.0132   26.0206 C   0  0  0  0  0  0  0  0  0  0  0  0
    4.0431   -7.6782   26.2804 H   0  0  0  0  0  0  0  0  0  0  0  0
    5.6491   -7.6389   25.5742 H   0  0  0  0  0  0  0  0  0  0  0  0
    5.4277   -6.3480   27.2571 C   0  0  0  0  0  0  0  0  0  0  0  0
    6.7995   -6.0662   27.3651 C   0  0  0  0  0  0  0  0  0  0  0  0
    7.4782   -6.3703   26.5697 H   0  0  0  0  0  0  0  0  0  0  0  0
    7.3155   -5.4196   28.4914 C   0  0  0  0  0  0  0  0  0  0  0  0
    8.3762   -5.1941   28.5280 H   0  0  0  0  0  0  0  0  0  0  0  0
    6.4650   -5.0630   29.5438 C   0  0  0  0  0  0  0  0  0  0  0  0
    6.8445   -4.5472   30.4226 H   0  0  0  0  0  0  0  0  0  0  0  0
    5.0999   -5.3499   29.4530 C   0  0  0  0  0  0  0  0  0  0  0  0
    4.4329   -5.0814   30.2680 H   0  0  0  0  0  0  0  0  0  0  0  0
    4.5860   -5.9833   28.3175 C   0  0  0  0  0  0  0  0  0  0  0  0
    3.5228   -6.2069   28.2577 H   0  0  0  0  0  0  0  0  0  0  0  0
    5.7851   -2.4613   21.8743 C   0  0  0  0  0  0  0  0  0  0  0  0
    4.7696   -2.3580   21.5670 H   0  0  0  0  0  0  0  0  0  0  0  0
    6.9435   -1.7902   21.5591 C   0  0  0  0  0  0  0  0  0  0  0  0
    5.6342    0.5987   20.1179 C   0  0  0  0  0  0  0  0  0  0  0  0
    5.2712    0.5770   21.1455 H   0  0  0  0  0  0  0  0  0  0  0  0
    4.9465    1.2852   19.1136 C   0  0  0  0  0  0  0  0  0  0  0  0
    4.0174    1.8090   19.3225 H   0  0  0  0  0  0  0  0  0  0  0  0
  1  2  1  0
  2  3  2  0
  3  4  1  0
  4  5  1  0
  4  6  2  0
  6  7  1  0
  7  8  1  0
  8  9  1  0
  8 10  2  0
 10 11  1  0
 10 12  1  0
 12 13  1  0
 13 14  2  0
 14 15  1  0
 15 16  2  0
 15 17  1  0
 17 18  1  0
 17 19  1  0
 19 20  1  0
 19 21  1  0
 19 22  1  0
 22 23  1  0
 22 24  1  0
 22 25  1  0
 25 26  2  0
 26 27  1  0
 26 28  1  0
 28 29  1  0
 28 30  2  0
 30 31  1  0
 30 32  1  0
 32 33  1  0
 32 34  2  0
 34 35  1  0
 14 36  1  0
 36 37  1  0
 36 38  2  0
  6 39  1  0
 39 40  1  0
 39 41  2  0
 41 42  1  0
 41  2  1  0
 38  7  1  0
 38 12  1  0
 34 25  1  0
M  END
>  <cnnaffinity>  (1) 
-5.27838

>  <filename>  (1) 
O=C(NCCc1ccccc1)c1cc2n(-c3cccnc3)ccn2n1

$$$$
