
     RDKit          3D

 33 35  0  0  0  0  0  0  0  0999 V2000
    6.2809   -7.0457   21.4868 H   0  0  0  0  0  0  0  0  0  0  0  0
    5.7263   -6.1922   21.8684 C   0  0  0  0  0  0  0  0  0  0  0  0
    6.1418   -4.9929   21.4883 N   0  0  0  0  0  0  0  0  0  0  0  0
    5.4873   -3.9772   22.0239 C   0  0  0  0  0  0  0  0  0  0  0  0
    5.8405   -2.7028   21.6846 N   0  0  0  0  0  0  0  0  0  0  0  0
    5.2528   -2.0507   22.1624 H   0  0  0  0  0  0  0  0  0  0  0  0
    7.1368   -2.3282   21.4265 C   0  0  0  0  0  0  0  0  0  0  0  0
    8.0718   -3.0915   21.4543 O   0  0  0  0  0  0  0  0  0  0  0  0
    7.3068   -0.8073   21.1344 C   0  0  0  0  0  0  0  0  0  0  0  0
    6.5317   -0.1383   20.0020 C   0  0  0  0  0  0  0  0  0  0  0  0
    7.0954   -0.0909   18.7099 C   0  0  0  0  0  0  0  0  0  0  0  0
    8.0385   -0.6101   18.5489 H   0  0  0  0  0  0  0  0  0  0  0  0
    6.5846    0.5733   17.6655 N   0  0  0  0  0  0  0  0  0  0  0  0
    5.4460    1.2495   17.8747 C   0  0  0  0  0  0  0  0  0  0  0  0
    5.0483    1.7811   17.0111 H   0  0  0  0  0  0  0  0  0  0  0  0
    4.7737    1.2679   19.1012 C   0  0  0  0  0  0  0  0  0  0  0  0
    3.8589    1.8471   19.1958 H   0  0  0  0  0  0  0  0  0  0  0  0
    5.3246    0.5613   20.1809 C   0  0  0  0  0  0  0  0  0  0  0  0
    4.8493    0.6039   21.1620 H   0  0  0  0  0  0  0  0  0  0  0  0
    8.7275   -0.2966   21.3400 C   0  0  0  0  0  0  0  0  0  0  0  0
    9.4698   -1.0385   21.6327 H   0  0  0  0  0  0  0  0  0  0  0  0
    9.1033    0.4885   20.6806 H   0  0  0  0  0  0  0  0  0  0  0  0
    7.6663    0.0644   22.3340 C   0  0  0  0  0  0  0  0  0  0  0  0
    7.6775   -0.3868   23.3232 H   0  0  0  0  0  0  0  0  0  0  0  0
    7.2806    1.0841   22.3421 H   0  0  0  0  0  0  0  0  0  0  0  0
    4.4316   -4.0304   22.8192 N   0  0  0  0  0  0  0  0  0  0  0  0
    3.9909   -5.2540   23.1729 C   0  0  0  0  0  0  0  0  0  0  0  0
    2.7194   -5.4281   24.0568 C   0  0  0  0  0  0  0  0  0  0  0  0
    2.1933   -4.2725   24.4611 F   0  0  0  0  0  0  0  0  0  0  0  0
    1.7611   -6.1030   23.3822 F   0  0  0  0  0  0  0  0  0  0  0  0
    2.9897   -6.1681   25.1543 F   0  0  0  0  0  0  0  0  0  0  0  0
    4.6467   -6.3993   22.7224 C   0  0  0  0  0  0  0  0  0  0  0  0
    4.3285   -7.3938   22.9920 H   0  0  0  0  0  0  0  0  0  0  0  0
  1  2  1  0
  2  3  2  0
  3  4  1  0
  4  5  1  0
  5  6  1  0
  5  7  1  0
  7  8  2  0
  7  9  1  0
  9 10  1  0
 10 11  2  0
 11 12  1  0
 11 13  1  0
 13 14  2  0
 14 15  1  0
 14 16  1  0
 16 17  1  0
 16 18  2  0
 18 19  1  0
  9 20  1  0
 20 21  1  0
 20 22  1  0
 20 23  1  0
 23 24  1  0
 23 25  1  0
  4 26  2  0
 26 27  1  0
 27 28  1  0
 28 29  1  0
 28 30  1  0
 28 31  1  0
 27 32  2  0
 32 33  1  0
 32  2  1  0
 23  9  1  0
 18 10  1  0
M  END
>  <cnnaffinity>  (1) 
-5.5494

>  <filename>  (1) 
O=C(Nc1nccc(C(F)(F)F)n1)C1(c2cccnc2)CC1

$$$$
