
     RDKit          3D

 37 38  0  0  0  0  0  0  0  0999 V2000
    7.8069    0.4367   22.9208 O   0  0  0  0  0  0  0  0  0  0  0  0
    8.2242   -0.0237   21.8717 C   0  0  0  0  0  0  0  0  0  0  0  0
    7.3436   -0.8569   20.9266 C   0  0  0  0  0  0  0  0  0  0  0  0
    6.6583   -0.0765   19.8033 C   0  0  0  0  0  0  0  0  0  0  0  0
    5.4962    0.6657   20.0661 C   0  0  0  0  0  0  0  0  0  0  0  0
    4.8820    1.3626   19.0234 C   0  0  0  0  0  0  0  0  0  0  0  0
    5.4538    1.3063   17.7503 C   0  0  0  0  0  0  0  0  0  0  0  0
    6.5662    0.6132   17.4695 N   0  0  0  0  0  0  0  0  0  0  0  0
    7.1406   -0.0539   18.4794 C   0  0  0  0  0  0  0  0  0  0  0  0
    8.0449   -0.6011   18.2111 H   0  0  0  0  0  0  0  0  0  0  0  0
    4.9988    1.8397   16.9185 H   0  0  0  0  0  0  0  0  0  0  0  0
    3.9828    1.9495   19.1796 H   0  0  0  0  0  0  0  0  0  0  0  0
    5.0889    0.6985   21.0793 H   0  0  0  0  0  0  0  0  0  0  0  0
    6.5953   -1.3009   21.5887 H   0  0  0  0  0  0  0  0  0  0  0  0
    7.9252   -1.6934   20.5177 H   0  0  0  0  0  0  0  0  0  0  0  0
    9.5158    0.1463   21.4630 N   0  0  0  0  0  0  0  0  0  0  0  0
   10.4486    1.0399   22.1478 C   0  0  0  0  0  0  0  0  0  0  0  0
   10.0074    2.5109   22.0363 C   0  0  0  0  0  0  0  0  0  0  0  0
   11.1813    3.7079   22.7599 S   0  0  0  0  0  0  0  0  0  0  0  0
   10.0679    4.6773   23.8533 C   0  0  0  0  0  0  0  0  0  0  0  0
   10.7967    5.7101   24.7043 C   0  0  0  0  0  0  0  0  0  0  0  0
   12.0164    5.4144   25.3238 C   0  0  0  0  0  0  0  0  0  0  0  0
   12.6368    6.3614   26.1346 C   0  0  0  0  0  0  0  0  0  0  0  0
   12.1335    7.5880   26.3571 N   0  0  0  0  0  0  0  0  0  0  0  0
   10.9778    7.8621   25.7754 C   0  0  0  0  0  0  0  0  0  0  0  0
   10.3479    9.4698   26.0332 Cl  0  0  0  0  0  0  0  0  0  0  0  0
   10.2462    6.9733   24.9696 C   0  0  0  0  0  0  0  0  0  0  0  0
    9.2870    7.2903   24.5753 H   0  0  0  0  0  0  0  0  0  0  0  0
   13.5775    6.1417   26.6352 H   0  0  0  0  0  0  0  0  0  0  0  0
   12.4787    4.4612   25.1253 H   0  0  0  0  0  0  0  0  0  0  0  0
    9.5413    3.9704   24.5055 H   0  0  0  0  0  0  0  0  0  0  0  0
    9.3108    5.1631   23.2334 H   0  0  0  0  0  0  0  0  0  0  0  0
    9.0312    2.6085   22.5181 H   0  0  0  0  0  0  0  0  0  0  0  0
    9.8622    2.7295   20.9727 H   0  0  0  0  0  0  0  0  0  0  0  0
   11.4409    0.9173   21.7070 H   0  0  0  0  0  0  0  0  0  0  0  0
   10.5453    0.7264   23.1931 H   0  0  0  0  0  0  0  0  0  0  0  0
    9.7386   -0.1951   20.5443 H   0  0  0  0  0  0  0  0  0  0  0  0
  1  2  2  0
  2  3  1  0
  3  4  1  0
  4  5  2  0
  5  6  1  0
  6  7  2  0
  7  8  1  0
  8  9  2  0
  9 10  1  0
  7 11  1  0
  6 12  1  0
  5 13  1  0
  3 14  1  0
  3 15  1  0
  2 16  1  0
 16 17  1  0
 17 18  1  0
 18 19  1  0
 19 20  1  0
 20 21  1  0
 21 22  2  0
 22 23  1  0
 23 24  2  0
 24 25  1  0
 25 26  1  0
 25 27  2  0
 27 28  1  0
 23 29  1  0
 22 30  1  0
 20 31  1  0
 20 32  1  0
 18 33  1  0
 18 34  1  0
 17 35  1  0
 17 36  1  0
 16 37  1  0
  9  4  1  0
 27 21  1  0
M  END
>  <cnnaffinity>  (1) 
-4.62932

>  <filename>  (1) 
O=C(Cc1cccnc1)NCCSCc1ccnc(Cl)c1

$$$$
