
     RDKit          3D

 28 30  0  0  0  0  0  0  0  0999 V2000
    7.0586    0.8786   22.6621 O   0  0  0  0  0  0  0  0  0  0  0  0
    7.3690   -0.2378   22.2907 C   0  0  0  0  0  0  0  0  0  0  0  0
    7.3296   -0.6578   20.9771 N   0  0  0  0  0  0  0  0  0  0  0  0
    6.6686    0.0012   19.9057 C   0  0  0  0  0  0  0  0  0  0  0  0
    5.4522    0.6525   20.1520 C   0  0  0  0  0  0  0  0  0  0  0  0
    4.8115    1.3014   19.0937 C   0  0  0  0  0  0  0  0  0  0  0  0
    5.4042    1.2875   17.8269 C   0  0  0  0  0  0  0  0  0  0  0  0
    6.5665    0.6643   17.5718 N   0  0  0  0  0  0  0  0  0  0  0  0
    7.1784    0.0408   18.5877 C   0  0  0  0  0  0  0  0  0  0  0  0
    8.1301   -0.4330   18.3470 H   0  0  0  0  0  0  0  0  0  0  0  0
    4.9378    1.7962   16.9875 H   0  0  0  0  0  0  0  0  0  0  0  0
    3.8791    1.8347   19.2488 H   0  0  0  0  0  0  0  0  0  0  0  0
    5.0476    0.6475   21.1618 H   0  0  0  0  0  0  0  0  0  0  0  0
    7.9119   -1.4549   20.7851 H   0  0  0  0  0  0  0  0  0  0  0  0
    7.8427   -1.2829   23.2469 C   0  0  0  0  0  0  0  0  0  0  0  0
    8.0492   -2.6259   23.1070 C   0  0  0  0  0  0  0  0  0  0  0  0
    8.4035   -3.2651   24.3371 C   0  0  0  0  0  0  0  0  0  0  0  0
    8.4489   -2.3589   25.4251 C   0  0  0  0  0  0  0  0  0  0  0  0
    8.7906   -2.7945   26.7208 C   0  0  0  0  0  0  0  0  0  0  0  0
    9.0893   -4.1385   26.9142 C   0  0  0  0  0  0  0  0  0  0  0  0
    9.0456   -5.0590   25.8483 C   0  0  0  0  0  0  0  0  0  0  0  0
    8.6964   -4.6236   24.5794 C   0  0  0  0  0  0  0  0  0  0  0  0
    8.6040   -5.7589   23.2700 Cl  0  0  0  0  0  0  0  0  0  0  0  0
    9.2795   -6.1070   26.0067 H   0  0  0  0  0  0  0  0  0  0  0  0
    9.3588   -4.4973   27.9027 H   0  0  0  0  0  0  0  0  0  0  0  0
    8.8245   -2.0983   27.5552 H   0  0  0  0  0  0  0  0  0  0  0  0
    8.0395   -0.7559   24.9005 S   0  0  0  0  0  0  0  0  0  0  0  0
    7.9203   -3.2175   22.2039 H   0  0  0  0  0  0  0  0  0  0  0  0
  1  2  2  0
  2  3  1  0
  3  4  1  0
  4  5  2  0
  5  6  1  0
  6  7  2  0
  7  8  1  0
  8  9  2  0
  9 10  1  0
  7 11  1  0
  6 12  1  0
  5 13  1  0
  3 14  1  0
  2 15  1  0
 15 16  2  0
 16 17  1  0
 17 18  2  0
 18 19  1  0
 19 20  2  0
 20 21  1  0
 21 22  2  0
 22 23  1  0
 21 24  1  0
 20 25  1  0
 19 26  1  0
 18 27  1  0
 16 28  1  0
  9  4  1  0
 27 15  1  0
 22 17  1  0
M  END
>  <cnnaffinity>  (1) 
-5.19589

>  <filename>  (1) 
O=C(Nc1cccnc1)c1cc2c(Cl)cccc2s1

$$$$
