
     RDKit          3D

 33 35  0  0  0  0  0  0  0  0999 V2000
    4.9703    1.7760   16.9736 H   0  0  0  0  0  0  0  0  0  0  0  0
    5.4368    1.2662   17.8122 C   0  0  0  0  0  0  0  0  0  0  0  0
    6.5934    0.6312   17.5595 N   0  0  0  0  0  0  0  0  0  0  0  0
    7.2023    0.0248   18.5871 C   0  0  0  0  0  0  0  0  0  0  0  0
    8.1346   -0.4918   18.3627 H   0  0  0  0  0  0  0  0  0  0  0  0
    6.7035    0.0336   19.9124 C   0  0  0  0  0  0  0  0  0  0  0  0
    7.3923   -0.5822   20.9830 N   0  0  0  0  0  0  0  0  0  0  0  0
    7.9239   -1.4191   20.8106 H   0  0  0  0  0  0  0  0  0  0  0  0
    7.4020   -0.1630   22.2918 C   0  0  0  0  0  0  0  0  0  0  0  0
    6.9630    0.9070   22.6744 O   0  0  0  0  0  0  0  0  0  0  0  0
    8.0119   -1.1935   23.2495 C   0  0  0  0  0  0  0  0  0  0  0  0
    9.3945   -1.4613   23.0936 O   0  0  0  0  0  0  0  0  0  0  0  0
   10.2942   -0.4724   23.3950 C   0  0  0  0  0  0  0  0  0  0  0  0
   10.0024    0.6755   24.1402 C   0  0  0  0  0  0  0  0  0  0  0  0
    8.9779    0.9189   24.4079 H   0  0  0  0  0  0  0  0  0  0  0  0
   11.0566    1.5075   24.5352 C   0  0  0  0  0  0  0  0  0  0  0  0
   10.8352    2.3742   25.1474 H   0  0  0  0  0  0  0  0  0  0  0  0
   12.3719    1.2575   24.1299 C   0  0  0  0  0  0  0  0  0  0  0  0
   13.1909    1.8978   24.4373 H   0  0  0  0  0  0  0  0  0  0  0  0
   12.6162    0.1606   23.2998 C   0  0  0  0  0  0  0  0  0  0  0  0
   14.2150   -0.1691   22.7032 Cl  0  0  0  0  0  0  0  0  0  0  0  0
   11.5914   -0.6978   22.9162 C   0  0  0  0  0  0  0  0  0  0  0  0
   11.7866   -1.5471   22.2762 H   0  0  0  0  0  0  0  0  0  0  0  0
    7.4361   -1.3217   24.6276 C   0  0  0  0  0  0  0  0  0  0  0  0
    8.1459   -1.5234   25.4271 H   0  0  0  0  0  0  0  0  0  0  0  0
    6.5902   -0.6782   24.8697 H   0  0  0  0  0  0  0  0  0  0  0  0
    7.2261   -2.4136   23.6063 C   0  0  0  0  0  0  0  0  0  0  0  0
    6.2370   -2.5354   23.1727 H   0  0  0  0  0  0  0  0  0  0  0  0
    7.8008   -3.3276   23.7448 H   0  0  0  0  0  0  0  0  0  0  0  0
    5.4831    0.6749   20.1512 C   0  0  0  0  0  0  0  0  0  0  0  0
    5.0655    0.6853   21.1561 H   0  0  0  0  0  0  0  0  0  0  0  0
    4.8401    1.2932   19.0770 C   0  0  0  0  0  0  0  0  0  0  0  0
    3.8999    1.8101   19.2229 H   0  0  0  0  0  0  0  0  0  0  0  0
  1  2  1  0
  2  3  2  0
  3  4  1  0
  4  5  1  0
  4  6  2  0
  6  7  1  0
  7  8  1  0
  7  9  1  0
  9 10  2  0
  9 11  1  0
 11 12  1  0
 12 13  1  0
 13 14  2  0
 14 15  1  0
 14 16  1  0
 16 17  1  0
 16 18  2  0
 18 19  1  0
 18 20  1  0
 20 21  1  0
 20 22  2  0
 22 23  1  0
 11 24  1  0
 24 25  1  0
 24 26  1  0
 24 27  1  0
 27 28  1  0
 27 29  1  0
  6 30  1  0
 30 31  1  0
 30 32  2  0
 32 33  1  0
 32  2  1  0
 27 11  1  0
 22 13  1  0
M  END
>  <cnnaffinity>  (1) 
-5.32074

>  <filename>  (1) 
O=C(Nc1cccnc1)C1(Oc2cccc(Cl)c2)CC1

$$$$
