
     RDKit          3D

 22 23  0  0  0  0  0  0  0  0999 V2000
    4.9151    1.7779   16.9988 H   0  0  0  0  0  0  0  0  0  0  0  0
    5.4045    1.2892   17.8442 C   0  0  0  0  0  0  0  0  0  0  0  0
    6.5712    0.6704   17.5997 N   0  0  0  0  0  0  0  0  0  0  0  0
    7.1867    0.0512   18.6186 C   0  0  0  0  0  0  0  0  0  0  0  0
    8.1294   -0.4396   18.3896 H   0  0  0  0  0  0  0  0  0  0  0  0
    6.6707    0.0183   19.9319 C   0  0  0  0  0  0  0  0  0  0  0  0
    7.3512   -0.7242   20.9231 O   0  0  0  0  0  0  0  0  0  0  0  0
    7.3621   -0.3189   22.2341 C   0  0  0  0  0  0  0  0  0  0  0  0
    6.9907    0.7530   22.6262 O   0  0  0  0  0  0  0  0  0  0  0  0
    7.8660   -1.3913   23.1710 C   0  0  0  0  0  0  0  0  0  0  0  0
    8.6727   -1.9774   22.7338 H   0  0  0  0  0  0  0  0  0  0  0  0
    8.2085   -0.8886   24.0757 H   0  0  0  0  0  0  0  0  0  0  0  0
    6.7421   -2.3000   23.5084 C   0  0  0  0  0  0  0  0  0  0  0  0
    6.4457   -3.4256   22.9093 N   0  0  0  0  0  0  0  0  0  0  0  0
    5.3258   -3.8948   23.5082 N   0  0  0  0  0  0  0  0  0  0  0  0
    4.9396   -3.1074   24.4458 N   0  0  0  0  0  0  0  0  0  0  0  0
    5.8289   -2.1064   24.4676 N   0  0  0  0  0  0  0  0  0  0  0  0
    5.7099   -1.3281   25.0903 H   0  0  0  0  0  0  0  0  0  0  0  0
    5.4473    0.6484   20.1758 C   0  0  0  0  0  0  0  0  0  0  0  0
    5.0084    0.6326   21.1734 H   0  0  0  0  0  0  0  0  0  0  0  0
    4.8112    1.3005   19.1102 C   0  0  0  0  0  0  0  0  0  0  0  0
    3.8790    1.8378   19.2644 H   0  0  0  0  0  0  0  0  0  0  0  0
  1  2  1  0
  2  3  2  0
  3  4  1  0
  4  5  1  0
  4  6  2  0
  6  7  1  0
  7  8  1  0
  8  9  2  0
  8 10  1  0
 10 11  1  0
 10 12  1  0
 10 13  1  0
 13 14  2  0
 14 15  1  0
 15 16  2  0
 16 17  1  0
 17 18  1  0
  6 19  1  0
 19 20  1  0
 19 21  2  0
 21 22  1  0
 21  2  1  0
 17 13  1  0
M  END
>  <cnnaffinity>  (1) 
-4.34351

>  <filename>  (1) 
O=C(Cc1nnn[nH]1)Oc1cccnc1

$$$$
