
     RDKit          3D

 32 34  0  0  0  0  0  0  0  0999 V2000
    7.3494   -1.5594   21.0270 O   0  0  0  0  0  0  0  0  0  0  0  0
    6.7221   -0.5019   21.1601 C   0  0  0  0  0  0  0  0  0  0  0  0
    6.3013    0.1482   19.9151 C   0  0  0  0  0  0  0  0  0  0  0  0
    5.3122    1.1355   19.8894 C   0  0  0  0  0  0  0  0  0  0  0  0
    4.9473    1.6411   18.6464 C   0  0  0  0  0  0  0  0  0  0  0  0
    5.5814    1.1890   17.4879 C   0  0  0  0  0  0  0  0  0  0  0  0
    6.5516    0.2598   17.5165 N   0  0  0  0  0  0  0  0  0  0  0  0
    6.8956   -0.2519   18.7075 C   0  0  0  0  0  0  0  0  0  0  0  0
    7.6787   -1.0063   18.7343 H   0  0  0  0  0  0  0  0  0  0  0  0
    5.2744    1.5957   16.5297 H   0  0  0  0  0  0  0  0  0  0  0  0
    4.1729    2.3950   18.5620 H   0  0  0  0  0  0  0  0  0  0  0  0
    4.8259    1.4957   20.7967 H   0  0  0  0  0  0  0  0  0  0  0  0
    6.4571    0.0560   22.5300 C   0  0  0  0  0  0  0  0  0  0  0  0
    5.7775    1.1529   22.8497 N   0  0  0  0  0  0  0  0  0  0  0  0
    5.8899    1.2899   24.2319 C   0  0  0  0  0  0  0  0  0  0  0  0
    6.6185    0.2620   24.7606 C   0  0  0  0  0  0  0  0  0  0  0  0
    6.9878   -0.5244   23.6902 N   0  0  0  0  0  0  0  0  0  0  0  0
    7.9864   -1.6200   23.7410 C   0  0  0  0  0  0  0  0  0  0  0  0
    9.3387   -1.2268   23.1589 C   0  0  0  0  0  0  0  0  0  0  0  0
    9.6519    0.0753   23.0114 N   0  0  0  0  0  0  0  0  0  0  0  0
   10.8652    0.4373   22.5603 C   0  0  0  0  0  0  0  0  0  0  0  0
   11.2369    2.2789   22.2264 Br  0  0  0  0  0  0  0  0  0  0  0  0
   11.8484   -0.5039   22.2601 C   0  0  0  0  0  0  0  0  0  0  0  0
   11.5442   -1.8538   22.3527 C   0  0  0  0  0  0  0  0  0  0  0  0
   10.2750   -2.2142   22.8096 C   0  0  0  0  0  0  0  0  0  0  0  0
   10.0114   -3.2584   22.9002 H   0  0  0  0  0  0  0  0  0  0  0  0
   12.2926   -2.5928   22.0857 H   0  0  0  0  0  0  0  0  0  0  0  0
   12.8292   -0.1824   21.9288 H   0  0  0  0  0  0  0  0  0  0  0  0
    7.5815   -2.4968   23.2303 H   0  0  0  0  0  0  0  0  0  0  0  0
    8.1521   -1.9120   24.7810 H   0  0  0  0  0  0  0  0  0  0  0  0
    6.8776    0.1168   25.8074 H   0  0  0  0  0  0  0  0  0  0  0  0
    5.4795    2.1150   24.8071 H   0  0  0  0  0  0  0  0  0  0  0  0
  1  2  2  0
  2  3  1  0
  3  4  2  0
  4  5  1  0
  5  6  2  0
  6  7  1  0
  7  8  2  0
  8  9  1  0
  6 10  1  0
  5 11  1  0
  4 12  1  0
  2 13  1  0
 13 14  2  0
 14 15  1  0
 15 16  2  0
 16 17  1  0
 17 18  1  0
 18 19  1  0
 19 20  2  0
 20 21  1  0
 21 22  1  0
 21 23  2  0
 23 24  1  0
 24 25  2  0
 25 26  1  0
 24 27  1  0
 23 28  1  0
 18 29  1  0
 18 30  1  0
 16 31  1  0
 15 32  1  0
  8  3  1  0
 17 13  1  0
 25 19  1  0
M  END
>  <cnnaffinity>  (1) 
-5.43492

>  <filename>  (1) 
O=C(c1cccnc1)c1nccn1Cc1cccc(Br)n1

$$$$
