
     RDKit          3D

 24 25  0  0  0  0  0  0  0  0999 V2000
    5.1136    1.6886   17.0914 H   0  0  0  0  0  0  0  0  0  0  0  0
    5.5059    1.1018   17.9215 C   0  0  0  0  0  0  0  0  0  0  0  0
    6.6514    0.4372   17.7034 N   0  0  0  0  0  0  0  0  0  0  0  0
    7.1885   -0.2179   18.7365 C   0  0  0  0  0  0  0  0  0  0  0  0
    8.1175   -0.7541   18.5382 H   0  0  0  0  0  0  0  0  0  0  0  0
    6.6212   -0.2403   20.0110 C   0  0  0  0  0  0  0  0  0  0  0  0
    7.4037   -0.8227   21.1089 C   0  0  0  0  0  0  0  0  0  0  0  0
    8.9872   -0.5011   21.3724 S   0  0  0  0  0  0  0  0  0  0  0  0
    6.7299   -1.6368   21.9761 N   0  0  0  0  0  0  0  0  0  0  0  0
    7.2287   -1.7807   22.8371 H   0  0  0  0  0  0  0  0  0  0  0  0
    5.8345   -2.6359   21.6086 C   0  0  0  0  0  0  0  0  0  0  0  0
    5.5682   -2.8693   20.4473 O   0  0  0  0  0  0  0  0  0  0  0  0
    5.2542   -3.3487   22.7611 C   0  0  0  0  0  0  0  0  0  0  0  0
    5.4550   -3.0540   24.1309 C   0  0  0  0  0  0  0  0  0  0  0  0
    6.0997   -2.3059   24.5816 H   0  0  0  0  0  0  0  0  0  0  0  0
    4.6944   -3.8122   24.9049 N   0  0  0  0  0  0  0  0  0  0  0  0
    4.0278   -4.6043   24.0544 N   0  0  0  0  0  0  0  0  0  0  0  0
    3.3252   -5.2273   24.4330 H   0  0  0  0  0  0  0  0  0  0  0  0
    4.3152   -4.3710   22.7598 C   0  0  0  0  0  0  0  0  0  0  0  0
    3.8724   -4.9566   21.9612 H   0  0  0  0  0  0  0  0  0  0  0  0
    5.3836    0.3893   20.2130 C   0  0  0  0  0  0  0  0  0  0  0  0
    4.8762    0.3272   21.1763 H   0  0  0  0  0  0  0  0  0  0  0  0
    4.8323    1.0911   19.1468 C   0  0  0  0  0  0  0  0  0  0  0  0
    3.9162    1.6534   19.2624 H   0  0  0  0  0  0  0  0  0  0  0  0
  1  2  1  0
  2  3  2  0
  3  4  1  0
  4  5  1  0
  4  6  2  0
  6  7  1  0
  7  8  2  0
  7  9  1  0
  9 10  1  0
  9 11  1  0
 11 12  2  0
 11 13  1  0
 13 14  1  0
 14 15  1  0
 14 16  2  0
 16 17  1  0
 17 18  1  0
 17 19  1  0
 19 20  1  0
  6 21  1  0
 21 22  1  0
 21 23  2  0
 23 24  1  0
 23  2  1  0
 19 13  2  0
M  END
>  <cnnaffinity>  (1) 
-4.6099

>  <filename>  (1) 
O=C(NC(=S)c1cccnc1)c1cn[nH]c1

$$$$
