
     RDKit          3D

 35 37  0  0  0  0  0  0  0  0999 V2000
    4.9248    1.8055   16.9804 H   0  0  0  0  0  0  0  0  0  0  0  0
    5.3873    1.2972   17.8242 C   0  0  0  0  0  0  0  0  0  0  0  0
    6.5482    0.6764   17.5666 N   0  0  0  0  0  0  0  0  0  0  0  0
    7.1555    0.0559   18.5836 C   0  0  0  0  0  0  0  0  0  0  0  0
    8.1054   -0.4263   18.3482 H   0  0  0  0  0  0  0  0  0  0  0  0
    6.6404    0.0094   19.8914 C   0  0  0  0  0  0  0  0  0  0  0  0
    7.4166   -0.6697   20.9969 C   0  0  0  0  0  0  0  0  0  0  0  0
    6.8783   -0.6103   21.9443 H   0  0  0  0  0  0  0  0  0  0  0  0
    7.6039   -1.7222   20.7683 H   0  0  0  0  0  0  0  0  0  0  0  0
    8.7487   -0.1083   21.1910 N   0  0  0  0  0  0  0  0  0  0  0  0
    9.7904   -0.8614   20.8361 N   0  0  0  0  0  0  0  0  0  0  0  0
   10.8660   -0.1265   21.0361 C   0  0  0  0  0  0  0  0  0  0  0  0
   11.8177   -0.5471   20.7355 H   0  0  0  0  0  0  0  0  0  0  0  0
   10.5237    1.1440   21.5345 C   0  0  0  0  0  0  0  0  0  0  0  0
   11.2181    1.9199   21.8362 H   0  0  0  0  0  0  0  0  0  0  0  0
    9.1337    1.1169   21.6414 C   0  0  0  0  0  0  0  0  0  0  0  0
    8.1533    2.0551   22.2726 C   0  0  0  0  0  0  0  0  0  0  0  0
    7.0499    1.7002   22.6612 O   0  0  0  0  0  0  0  0  0  0  0  0
    8.6234    3.3363   22.3966 N   0  0  0  0  0  0  0  0  0  0  0  0
    9.3861    3.5895   21.7911 H   0  0  0  0  0  0  0  0  0  0  0  0
    8.0502    4.3580   23.1827 C   0  0  0  0  0  0  0  0  0  0  0  0
    8.1069    5.6949   22.7683 C   0  0  0  0  0  0  0  0  0  0  0  0
    8.5949    5.9482   21.8286 H   0  0  0  0  0  0  0  0  0  0  0  0
    7.5086    6.6956   23.5467 C   0  0  0  0  0  0  0  0  0  0  0  0
    7.5137    7.7357   23.2314 H   0  0  0  0  0  0  0  0  0  0  0  0
    6.8821    6.3490   24.7488 C   0  0  0  0  0  0  0  0  0  0  0  0
    6.1230    7.5793   25.7192 Cl  0  0  0  0  0  0  0  0  0  0  0  0
    6.8511    5.0218   25.1865 C   0  0  0  0  0  0  0  0  0  0  0  0
    6.3537    4.7728   26.1203 H   0  0  0  0  0  0  0  0  0  0  0  0
    7.4365    4.0288   24.4004 C   0  0  0  0  0  0  0  0  0  0  0  0
    7.4207    2.9870   24.6981 H   0  0  0  0  0  0  0  0  0  0  0  0
    5.4270    0.6567   20.1390 C   0  0  0  0  0  0  0  0  0  0  0  0
    5.0138    0.6653   21.1474 H   0  0  0  0  0  0  0  0  0  0  0  0
    4.7875    1.3124   19.0848 C   0  0  0  0  0  0  0  0  0  0  0  0
    3.8599    1.8517   19.2311 H   0  0  0  0  0  0  0  0  0  0  0  0
  1  2  1  0
  2  3  2  0
  3  4  1  0
  4  5  1  0
  4  6  2  0
  6  7  1  0
  7  8  1  0
  7  9  1  0
  7 10  1  0
 10 11  1  0
 11 12  2  0
 12 13  1  0
 12 14  1  0
 14 15  1  0
 14 16  2  0
 16 17  1  0
 17 18  2  0
 17 19  1  0
 19 20  1  0
 19 21  1  0
 21 22  2  0
 22 23  1  0
 22 24  1  0
 24 25  1  0
 24 26  2  0
 26 27  1  0
 26 28  1  0
 28 29  1  0
 28 30  2  0
 30 31  1  0
  6 32  1  0
 32 33  1  0
 32 34  2  0
 34 35  1  0
 34  2  1  0
 16 10  1  0
 30 21  1  0
M  END
>  <cnnaffinity>  (1) 
-5.36115

>  <filename>  (1) 
O=C(Nc1ccc(Cl)cc1)c1ccnn1Cc1cccnc1

$$$$
