
     RDKit          3D

 29 31  0  0  0  0  0  0  0  0999 V2000
    5.9723    1.4969   22.5114 O   0  0  0  0  0  0  0  0  0  0  0  0
    6.6574    0.5178   22.2739 C   0  0  0  0  0  0  0  0  0  0  0  0
    6.8436   -0.0037   21.0102 N   0  0  0  0  0  0  0  0  0  0  0  0
    6.2806    0.4098   19.7811 C   0  0  0  0  0  0  0  0  0  0  0  0
    5.0244    1.0311   19.7364 C   0  0  0  0  0  0  0  0  0  0  0  0
    4.5461    1.4612   18.4933 C   0  0  0  0  0  0  0  0  0  0  0  0
    5.3336    1.2752   17.3513 C   0  0  0  0  0  0  0  0  0  0  0  0
    6.5240    0.6507   17.3694 N   0  0  0  0  0  0  0  0  0  0  0  0
    6.9688    0.2195   18.5575 C   0  0  0  0  0  0  0  0  0  0  0  0
    7.9310   -0.2931   18.5577 H   0  0  0  0  0  0  0  0  0  0  0  0
    4.9990    1.6405   16.3851 H   0  0  0  0  0  0  0  0  0  0  0  0
    3.5840    1.9581   18.4072 H   0  0  0  0  0  0  0  0  0  0  0  0
    4.4687    1.1854   20.6583 H   0  0  0  0  0  0  0  0  0  0  0  0
    7.5544   -0.7160   20.9946 H   0  0  0  0  0  0  0  0  0  0  0  0
    7.3370   -0.2661   23.3432 C   0  0  0  0  0  0  0  0  0  0  0  0
    6.8289   -0.5220   24.5766 C   0  0  0  0  0  0  0  0  0  0  0  0
    7.5714   -1.4273   25.2629 O   0  0  0  0  0  0  0  0  0  0  0  0
    8.6072   -1.7786   24.4559 C   0  0  0  0  0  0  0  0  0  0  0  0
    9.5467   -2.7648   24.7306 C   0  0  0  0  0  0  0  0  0  0  0  0
   10.5412   -2.9483   23.7752 C   0  0  0  0  0  0  0  0  0  0  0  0
   11.4372   -3.9260   24.0236 O   0  0  0  0  0  0  0  0  0  0  0  0
   12.0762   -3.9040   23.3027 H   0  0  0  0  0  0  0  0  0  0  0  0
   10.6019   -2.1554   22.6044 C   0  0  0  0  0  0  0  0  0  0  0  0
    9.6397   -1.1836   22.3586 C   0  0  0  0  0  0  0  0  0  0  0  0
    8.5745   -1.0356   23.2682 C   0  0  0  0  0  0  0  0  0  0  0  0
    9.7536   -0.5099   21.5110 H   0  0  0  0  0  0  0  0  0  0  0  0
   11.3924   -2.3246   21.8765 H   0  0  0  0  0  0  0  0  0  0  0  0
    9.4813   -3.4095   25.5931 H   0  0  0  0  0  0  0  0  0  0  0  0
    5.9586   -0.1585   25.1186 H   0  0  0  0  0  0  0  0  0  0  0  0
  1  2  2  0
  2  3  1  0
  3  4  1  0
  4  5  2  0
  5  6  1  0
  6  7  2  0
  7  8  1  0
  8  9  2  0
  9 10  1  0
  7 11  1  0
  6 12  1  0
  5 13  1  0
  3 14  1  0
  2 15  1  0
 15 16  2  0
 16 17  1  0
 17 18  1  0
 18 19  2  0
 19 20  1  0
 20 21  1  0
 21 22  1  0
 20 23  2  0
 23 24  1  0
 24 25  2  0
 24 26  1  0
 23 27  1  0
 19 28  1  0
 16 29  1  0
  9  4  1  0
 25 15  1  0
 25 18  1  0
M  END
>  <cnnaffinity>  (1) 
-4.949

>  <filename>  (1) 
O=C(Nc1cccnc1)c1coc2cc(O)ccc12

$$$$
