
     RDKit          3D

 40 43  0  0  0  0  0  0  0  0999 V2000
    9.7661   -4.1741   27.5397 O   0  0  0  0  0  0  0  0  0  0  0  0
    9.1376   -3.9384   26.5279 C   0  0  0  0  0  0  0  0  0  0  0  0
    9.1339   -2.6385   26.0856 N   0  0  0  0  0  0  0  0  0  0  0  0
    9.0305   -2.2644   24.7210 C   0  0  0  0  0  0  0  0  0  0  0  0
   10.0233   -2.7153   23.8217 C   0  0  0  0  0  0  0  0  0  0  0  0
    9.9298   -2.4460   22.4602 C   0  0  0  0  0  0  0  0  0  0  0  0
    8.8159   -1.7147   22.0354 C   0  0  0  0  0  0  0  0  0  0  0  0
    8.3876   -1.2921   20.7949 N   0  0  0  0  0  0  0  0  0  0  0  0
    7.2454   -0.5481   20.9996 C   0  0  0  0  0  0  0  0  0  0  0  0
    6.5448    0.0970   19.8920 C   0  0  0  0  0  0  0  0  0  0  0  0
    5.3139    0.7553   20.0603 C   0  0  0  0  0  0  0  0  0  0  0  0
    4.7492    1.3796   18.9508 C   0  0  0  0  0  0  0  0  0  0  0  0
    5.4176    1.3165   17.7218 C   0  0  0  0  0  0  0  0  0  0  0  0
    6.5798    0.6692   17.5432 N   0  0  0  0  0  0  0  0  0  0  0  0
    7.1188    0.0886   18.6141 C   0  0  0  0  0  0  0  0  0  0  0  0
    8.0777   -0.3945   18.4361 H   0  0  0  0  0  0  0  0  0  0  0  0
    5.0091    1.8111   16.8450 H   0  0  0  0  0  0  0  0  0  0  0  0
    3.8217    1.9365   19.0282 H   0  0  0  0  0  0  0  0  0  0  0  0
    4.8293    0.7750   21.0395 H   0  0  0  0  0  0  0  0  0  0  0  0
    6.9074   -0.4678   22.2564 N   0  0  0  0  0  0  0  0  0  0  0  0
    7.8549   -1.2030   22.9326 C   0  0  0  0  0  0  0  0  0  0  0  0
    7.9524   -1.5005   24.2998 C   0  0  0  0  0  0  0  0  0  0  0  0
    7.2017   -1.1672   25.0060 H   0  0  0  0  0  0  0  0  0  0  0  0
    8.6435   -1.7032   19.9163 H   0  0  0  0  0  0  0  0  0  0  0  0
   10.6818   -2.7888   21.7599 H   0  0  0  0  0  0  0  0  0  0  0  0
   10.8486   -3.2955   24.2297 H   0  0  0  0  0  0  0  0  0  0  0  0
    9.8203   -2.1581   26.6508 H   0  0  0  0  0  0  0  0  0  0  0  0
    8.3410   -5.0148   25.7515 C   0  0  0  0  0  0  0  0  0  0  0  0
    6.6460   -4.5984   25.2066 S   0  0  0  0  0  0  0  0  0  0  0  0
    5.8340   -4.4154   26.8226 C   0  0  0  0  0  0  0  0  0  0  0  0
    5.9638   -5.6338   27.7501 C   0  0  0  0  0  0  0  0  0  0  0  0
    7.3937   -6.0890   28.0858 C   0  0  0  0  0  0  0  0  0  0  0  0
    8.3601   -6.5798   26.6301 S   0  0  0  0  0  0  0  0  0  0  0  0
    7.9766   -5.3355   28.6264 H   0  0  0  0  0  0  0  0  0  0  0  0
    7.3735   -6.9878   28.7123 H   0  0  0  0  0  0  0  0  0  0  0  0
    5.4268   -6.4822   27.3089 H   0  0  0  0  0  0  0  0  0  0  0  0
    5.4499   -5.3764   28.6851 H   0  0  0  0  0  0  0  0  0  0  0  0
    4.7750   -4.2302   26.5883 H   0  0  0  0  0  0  0  0  0  0  0  0
    6.2137   -3.5001   27.2940 H   0  0  0  0  0  0  0  0  0  0  0  0
    8.8832   -5.2064   24.8233 H   0  0  0  0  0  0  0  0  0  0  0  0
  1  2  2  0
  2  3  1  0
  3  4  1  0
  4  5  2  0
  5  6  1  0
  6  7  2  0
  7  8  1  0
  8  9  1  0
  9 10  1  0
 10 11  2  0
 11 12  1  0
 12 13  2  0
 13 14  1  0
 14 15  2  0
 15 16  1  0
 13 17  1  0
 12 18  1  0
 11 19  1  0
  9 20  2  0
 20 21  1  0
 21 22  2  0
 22 23  1  0
  8 24  1  0
  6 25  1  0
  5 26  1  0
  3 27  1  0
  2 28  1  0
 28 29  1  0
 29 30  1  0
 30 31  1  0
 31 32  1  0
 32 33  1  0
 32 34  1  0
 32 35  1  0
 31 36  1  0
 31 37  1  0
 30 38  1  0
 30 39  1  0
 28 40  1  0
 22  4  1  0
 33 28  1  0
 21  7  1  0
 15 10  1  0
M  END
>  <cnnaffinity>  (1) 
-5.55957

>  <filename>  (1) 
O=C(Nc1ccc2[nH]c(-c3cccnc3)nc2c1)C1SCCCS1

$$$$
