
     RDKit          3D

 34 36  0  0  0  0  0  0  0  0999 V2000
    6.1648   -0.9619   24.7586 O   0  0  0  0  0  0  0  0  0  0  0  0
    7.2609   -1.3293   25.1499 C   0  0  0  0  0  0  0  0  0  0  0  0
    7.5861   -1.4378   26.6353 C   0  0  0  0  0  0  0  0  0  0  0  0
    6.8545   -2.5862   27.2856 C   0  0  0  0  0  0  0  0  0  0  0  0
    5.6122   -2.3504   27.8909 C   0  0  0  0  0  0  0  0  0  0  0  0
    4.9119   -3.3926   28.5110 C   0  0  0  0  0  0  0  0  0  0  0  0
    5.4526   -4.6814   28.5284 C   0  0  0  0  0  0  0  0  0  0  0  0
    6.6965   -4.9219   27.9334 C   0  0  0  0  0  0  0  0  0  0  0  0
    7.4028   -3.8815   27.3148 C   0  0  0  0  0  0  0  0  0  0  0  0
    9.1180   -4.2348   26.5376 Br  0  0  0  0  0  0  0  0  0  0  0  0
    7.1237   -5.9195   27.9453 H   0  0  0  0  0  0  0  0  0  0  0  0
    4.9068   -5.4930   29.0010 H   0  0  0  0  0  0  0  0  0  0  0  0
    3.9523   -3.1993   28.9812 H   0  0  0  0  0  0  0  0  0  0  0  0
    5.2043   -1.3442   27.8919 H   0  0  0  0  0  0  0  0  0  0  0  0
    8.6663   -1.5605   26.7740 H   0  0  0  0  0  0  0  0  0  0  0  0
    7.2990   -0.4992   27.1153 H   0  0  0  0  0  0  0  0  0  0  0  0
    8.2447   -1.5908   24.2392 N   0  0  0  0  0  0  0  0  0  0  0  0
    8.0653   -1.4200   22.8961 C   0  0  0  0  0  0  0  0  0  0  0  0
    8.8387   -1.9508   21.9986 N   0  0  0  0  0  0  0  0  0  0  0  0
    8.4058   -1.5006   20.7681 N   0  0  0  0  0  0  0  0  0  0  0  0
    7.3757   -0.7084   20.9533 C   0  0  0  0  0  0  0  0  0  0  0  0
    6.6497    0.0070   19.9083 C   0  0  0  0  0  0  0  0  0  0  0  0
    5.4422    0.6601   20.1635 C   0  0  0  0  0  0  0  0  0  0  0  0
    4.8220    1.3052   19.0972 C   0  0  0  0  0  0  0  0  0  0  0  0
    5.4063    1.2927   17.8264 C   0  0  0  0  0  0  0  0  0  0  0  0
    6.5674    0.6606   17.5818 N   0  0  0  0  0  0  0  0  0  0  0  0
    7.1747    0.0392   18.6084 C   0  0  0  0  0  0  0  0  0  0  0  0
    8.1224   -0.4517   18.4144 H   0  0  0  0  0  0  0  0  0  0  0  0
    4.8998    1.8153   17.0185 H   0  0  0  0  0  0  0  0  0  0  0  0
    3.8861    1.8286   19.2401 H   0  0  0  0  0  0  0  0  0  0  0  0
    4.9897    0.6643   21.1563 H   0  0  0  0  0  0  0  0  0  0  0  0
    7.1134   -0.6614   22.2978 N   0  0  0  0  0  0  0  0  0  0  0  0
    6.4479   -0.0605   22.7698 H   0  0  0  0  0  0  0  0  0  0  0  0
    9.1051   -2.0140   24.5511 H   0  0  0  0  0  0  0  0  0  0  0  0
  1  2  2  0
  2  3  1  0
  3  4  1  0
  4  5  2  0
  5  6  1  0
  6  7  2  0
  7  8  1  0
  8  9  2  0
  9 10  1  0
  8 11  1  0
  7 12  1  0
  6 13  1  0
  5 14  1  0
  3 15  1  0
  3 16  1  0
  2 17  1  0
 17 18  1  0
 18 19  2  0
 19 20  1  0
 20 21  2  0
 21 22  1  0
 22 23  2  0
 23 24  1  0
 24 25  2  0
 25 26  1  0
 26 27  2  0
 27 28  1  0
 25 29  1  0
 24 30  1  0
 23 31  1  0
 21 32  1  0
 32 33  1  0
 17 34  1  0
  9  4  1  0
 32 18  1  0
 27 22  1  0
M  END
>  <cnnaffinity>  (1) 
-5.22172

>  <filename>  (1) 
O=C(Cc1ccccc1Br)Nc1nnc(-c2cccnc2)[nH]1

$$$$
