
     RDKit          3D

 33 35  0  0  0  0  0  0  0  0999 V2000
    4.9858    1.7816   16.9940 H   0  0  0  0  0  0  0  0  0  0  0  0
    5.4649    1.2786   17.8330 C   0  0  0  0  0  0  0  0  0  0  0  0
    6.6261    0.6545   17.5748 N   0  0  0  0  0  0  0  0  0  0  0  0
    7.2307    0.0348   18.6002 C   0  0  0  0  0  0  0  0  0  0  0  0
    8.1601   -0.4796   18.3620 H   0  0  0  0  0  0  0  0  0  0  0  0
    6.7231   -0.0072   19.9144 C   0  0  0  0  0  0  0  0  0  0  0  0
    7.3820   -0.7497   20.9972 C   0  0  0  0  0  0  0  0  0  0  0  0
    6.8166   -1.2749   22.0969 C   0  0  0  0  0  0  0  0  0  0  0  0
    5.8001   -1.3002   22.4175 H   0  0  0  0  0  0  0  0  0  0  0  0
    7.8011   -1.9174   22.8509 N   0  0  0  0  0  0  0  0  0  0  0  0
    7.6186   -2.4468   24.1344 C   0  0  0  0  0  0  0  0  0  0  0  0
    6.6600   -2.0916   24.7875 O   0  0  0  0  0  0  0  0  0  0  0  0
    8.5225   -3.3961   24.4975 N   0  0  0  0  0  0  0  0  0  0  0  0
    9.4258   -3.3324   24.0443 H   0  0  0  0  0  0  0  0  0  0  0  0
    8.3952   -4.1358   25.6921 C   0  0  0  0  0  0  0  0  0  0  0  0
    9.5486   -4.4665   26.4069 C   0  0  0  0  0  0  0  0  0  0  0  0
   10.5164   -4.1484   26.0270 H   0  0  0  0  0  0  0  0  0  0  0  0
    9.4406   -5.1835   27.6041 C   0  0  0  0  0  0  0  0  0  0  0  0
   10.3325   -5.4050   28.1831 H   0  0  0  0  0  0  0  0  0  0  0  0
    8.1882   -5.6080   28.0622 C   0  0  0  0  0  0  0  0  0  0  0  0
    8.1004   -6.1831   28.9793 H   0  0  0  0  0  0  0  0  0  0  0  0
    7.0400   -5.2952   27.3271 C   0  0  0  0  0  0  0  0  0  0  0  0
    6.0572   -5.6091   27.6735 H   0  0  0  0  0  0  0  0  0  0  0  0
    7.1339   -4.5494   26.1518 C   0  0  0  0  0  0  0  0  0  0  0  0
    6.2454   -4.2688   25.6001 H   0  0  0  0  0  0  0  0  0  0  0  0
    9.0176   -1.7848   22.2226 C   0  0  0  0  0  0  0  0  0  0  0  0
   10.0933   -2.2041   22.6119 O   0  0  0  0  0  0  0  0  0  0  0  0
    8.7406   -1.0877   21.0796 N   0  0  0  0  0  0  0  0  0  0  0  0
    9.5264   -0.7281   20.5705 H   0  0  0  0  0  0  0  0  0  0  0  0
    5.4962    0.6473   20.1523 C   0  0  0  0  0  0  0  0  0  0  0  0
    5.0517    0.6616   21.1506 H   0  0  0  0  0  0  0  0  0  0  0  0
    4.8610    1.2992   19.0968 C   0  0  0  0  0  0  0  0  0  0  0  0
    3.9185    1.8197   19.2341 H   0  0  0  0  0  0  0  0  0  0  0  0
  1  2  1  0
  2  3  2  0
  3  4  1  0
  4  5  1  0
  4  6  2  0
  6  7  1  0
  7  8  2  0
  8  9  1  0
  8 10  1  0
 10 11  1  0
 11 12  2  0
 11 13  1  0
 13 14  1  0
 13 15  1  0
 15 16  2  0
 16 17  1  0
 16 18  1  0
 18 19  1  0
 18 20  2  0
 20 21  1  0
 20 22  1  0
 22 23  1  0
 22 24  2  0
 24 25  1  0
 10 26  1  0
 26 27  2  0
 26 28  1  0
 28 29  1  0
  6 30  1  0
 30 31  1  0
 30 32  2  0
 32 33  1  0
 32  2  1  0
 28  7  1  0
 24 15  1  0
M  END
>  <cnnaffinity>  (1) 
-5.13797

>  <filename>  (1) 
O=C(Nc1ccccc1)n1cc(-c2cccnc2)[nH]c1=O

$$$$
