
     RDKit          3D

 34 36  0  0  0  0  0  0  0  0999 V2000
    4.9396    1.7728   17.0210 H   0  0  0  0  0  0  0  0  0  0  0  0
    5.4183    1.2739   17.8609 C   0  0  0  0  0  0  0  0  0  0  0  0
    6.5825    0.6570   17.6008 N   0  0  0  0  0  0  0  0  0  0  0  0
    7.1960    0.0373   18.6182 C   0  0  0  0  0  0  0  0  0  0  0  0
    8.1430   -0.4384   18.3704 H   0  0  0  0  0  0  0  0  0  0  0  0
    6.7000   -0.0291   19.9583 C   0  0  0  0  0  0  0  0  0  0  0  0
    7.3709   -0.6806   20.9672 N   0  0  0  0  0  0  0  0  0  0  0  0
    7.0541   -0.8756   22.3687 C   0  0  0  0  0  0  0  0  0  0  0  0
    6.1422   -1.4515   22.5620 H   0  0  0  0  0  0  0  0  0  0  0  0
    7.0085    0.0403   22.9705 H   0  0  0  0  0  0  0  0  0  0  0  0
    8.3660   -1.6965   22.4975 C   0  0  0  0  0  0  0  0  0  0  0  0
    9.1096   -1.2437   23.1583 H   0  0  0  0  0  0  0  0  0  0  0  0
    8.2285   -3.1747   22.8712 C   0  0  0  0  0  0  0  0  0  0  0  0
    8.8115   -4.0178   22.2287 O   0  0  0  0  0  0  0  0  0  0  0  0
    7.3487   -3.5672   24.0881 C   0  0  0  0  0  0  0  0  0  0  0  0
    7.3225   -2.6748   25.0946 N   0  0  0  0  0  0  0  0  0  0  0  0
    6.6363   -2.9584   26.2059 C   0  0  0  0  0  0  0  0  0  0  0  0
    6.6636   -2.2040   26.9899 H   0  0  0  0  0  0  0  0  0  0  0  0
    5.9219   -4.1450   26.3693 C   0  0  0  0  0  0  0  0  0  0  0  0
    5.3821   -4.3256   27.2923 H   0  0  0  0  0  0  0  0  0  0  0  0
    5.9087   -5.0682   25.3309 C   0  0  0  0  0  0  0  0  0  0  0  0
    5.3493   -6.0004   25.4227 H   0  0  0  0  0  0  0  0  0  0  0  0
    6.6181   -4.7781   24.1578 C   0  0  0  0  0  0  0  0  0  0  0  0
    6.5818   -5.7501   23.0009 C   0  0  0  0  0  0  0  0  0  0  0  0
    5.5848   -6.6490   23.1369 F   0  0  0  0  0  0  0  0  0  0  0  0
    7.7215   -6.4454   22.9017 F   0  0  0  0  0  0  0  0  0  0  0  0
    6.3757   -5.1198   21.8308 F   0  0  0  0  0  0  0  0  0  0  0  0
    8.6269   -1.4144   20.9920 C   0  0  0  0  0  0  0  0  0  0  0  0
    8.6552   -2.3097   20.3715 H   0  0  0  0  0  0  0  0  0  0  0  0
    9.5181   -0.8202   20.7532 H   0  0  0  0  0  0  0  0  0  0  0  0
    5.4678    0.6255   20.1922 C   0  0  0  0  0  0  0  0  0  0  0  0
    5.0263    0.6205   21.1883 H   0  0  0  0  0  0  0  0  0  0  0  0
    4.8354    1.2833   19.1321 C   0  0  0  0  0  0  0  0  0  0  0  0
    3.9029    1.8158   19.2801 H   0  0  0  0  0  0  0  0  0  0  0  0
  1  2  1  0
  2  3  2  0
  3  4  1  0
  4  5  1  0
  4  6  2  0
  6  7  1  0
  7  8  1  0
  8  9  1  0
  8 10  1  0
  8 11  1  0
 11 12  1  0
 11 13  1  0
 13 14  2  0
 13 15  1  0
 15 16  2  0
 16 17  1  0
 17 18  1  0
 17 19  2  0
 19 20  1  0
 19 21  1  0
 21 22  1  0
 21 23  2  0
 23 24  1  0
 24 25  1  0
 24 26  1  0
 24 27  1  0
 11 28  1  0
 28 29  1  0
 28 30  1  0
  6 31  1  0
 31 32  1  0
 31 33  2  0
 33 34  1  0
 33  2  1  0
 28  7  1  0
 23 15  1  0
M  END
>  <cnnaffinity>  (1) 
-5.66264

>  <filename>  (1) 
O=C(c1ncccc1C(F)(F)F)C1CN(c2cccnc2)C1

$$$$
