
     RDKit          3D

 33 35  0  0  0  0  0  0  0  0999 V2000
    5.6949   -2.3547   21.7272 O   0  0  0  0  0  0  0  0  0  0  0  0
    6.7633   -1.8165   21.9008 C   0  0  0  0  0  0  0  0  0  0  0  0
    7.4336   -0.9708   21.0183 N   0  0  0  0  0  0  0  0  0  0  0  0
    6.7604   -0.2796   19.9440 C   0  0  0  0  0  0  0  0  0  0  0  0
    5.5312    0.3521   20.1631 C   0  0  0  0  0  0  0  0  0  0  0  0
    4.9787    1.1314   19.1379 C   0  0  0  0  0  0  0  0  0  0  0  0
    5.6448    1.2064   17.9092 C   0  0  0  0  0  0  0  0  0  0  0  0
    6.8056    0.5704   17.6686 N   0  0  0  0  0  0  0  0  0  0  0  0
    7.3458   -0.1464   18.6650 C   0  0  0  0  0  0  0  0  0  0  0  0
    8.2974   -0.6345   18.4599 H   0  0  0  0  0  0  0  0  0  0  0  0
    5.2386    1.8049   17.0927 H   0  0  0  0  0  0  0  0  0  0  0  0
    4.0559    1.6831   19.2886 H   0  0  0  0  0  0  0  0  0  0  0  0
    5.0443    0.2351   21.1301 H   0  0  0  0  0  0  0  0  0  0  0  0
    8.0096   -0.3565   21.5796 H   0  0  0  0  0  0  0  0  0  0  0  0
    7.5274   -1.9653   23.0356 N   0  0  0  0  0  0  0  0  0  0  0  0
    7.0564   -2.5647   24.1882 C   0  0  0  0  0  0  0  0  0  0  0  0
    5.7729   -2.7503   24.5811 C   0  0  0  0  0  0  0  0  0  0  0  0
    5.8843   -3.2507   25.8431 N   0  0  0  0  0  0  0  0  0  0  0  0
    4.8287   -3.5052   26.7794 C   0  0  0  0  0  0  0  0  0  0  0  0
    5.1096   -3.9836   28.0705 C   0  0  0  0  0  0  0  0  0  0  0  0
    4.0630   -4.1732   28.9772 C   0  0  0  0  0  0  0  0  0  0  0  0
    2.7403   -3.8981   28.6095 C   0  0  0  0  0  0  0  0  0  0  0  0
    2.4649   -3.4325   27.3215 C   0  0  0  0  0  0  0  0  0  0  0  0
    3.5006   -3.2385   26.4062 C   0  0  0  0  0  0  0  0  0  0  0  0
    3.2624   -2.8715   25.4123 H   0  0  0  0  0  0  0  0  0  0  0  0
    1.4451   -3.2109   27.0138 H   0  0  0  0  0  0  0  0  0  0  0  0
    1.9308   -4.0387   29.3212 H   0  0  0  0  0  0  0  0  0  0  0  0
    4.2841   -4.5348   29.9792 H   0  0  0  0  0  0  0  0  0  0  0  0
    6.1362   -4.1965   28.3594 H   0  0  0  0  0  0  0  0  0  0  0  0
    7.1810   -3.4031   26.1674 N   0  0  0  0  0  0  0  0  0  0  0  0
    7.8956   -2.9888   25.1641 N   0  0  0  0  0  0  0  0  0  0  0  0
    4.8687   -2.6036   24.0274 H   0  0  0  0  0  0  0  0  0  0  0  0
    8.5203   -1.8990   22.9479 H   0  0  0  0  0  0  0  0  0  0  0  0
  1  2  2  0
  2  3  1  0
  3  4  1  0
  4  5  2  0
  5  6  1  0
  6  7  2  0
  7  8  1  0
  8  9  2  0
  9 10  1  0
  7 11  1  0
  6 12  1  0
  5 13  1  0
  3 14  1  0
  2 15  1  0
 15 16  1  0
 16 17  2  0
 17 18  1  0
 18 19  1  0
 19 20  2  0
 20 21  1  0
 21 22  2  0
 22 23  1  0
 23 24  2  0
 24 25  1  0
 23 26  1  0
 22 27  1  0
 21 28  1  0
 20 29  1  0
 18 30  1  0
 30 31  2  0
 17 32  1  0
 15 33  1  0
  9  4  1  0
 31 16  1  0
 24 19  1  0
M  END
>  <cnnaffinity>  (1) 
-4.7149

>  <filename>  (1) 
O=C(Nc1cccnc1)Nc1cn(-c2ccccc2)nn1

$$$$
