
     RDKit          3D

 38 41  0  0  0  0  0  0  0  0999 V2000
    7.0572   -4.0226   25.0101 O   0  0  0  0  0  0  0  0  0  0  0  0
    6.5056   -3.0322   24.6103 C   0  0  0  0  0  0  0  0  0  0  0  0
    7.2682   -1.7382   24.4515 C   0  0  0  0  0  0  0  0  0  0  0  0
    7.6782   -1.5482   23.0369 C   0  0  0  0  0  0  0  0  0  0  0  0
    8.8034   -2.0261   22.4482 C   0  0  0  0  0  0  0  0  0  0  0  0
    8.8663   -1.5308   20.8065 S   0  0  0  0  0  0  0  0  0  0  0  0
    7.3294   -0.7272   21.0160 C   0  0  0  0  0  0  0  0  0  0  0  0
    6.6385   -0.0054   19.9390 C   0  0  0  0  0  0  0  0  0  0  0  0
    5.4179    0.6574   20.1703 C   0  0  0  0  0  0  0  0  0  0  0  0
    4.8018    1.3080   19.1041 C   0  0  0  0  0  0  0  0  0  0  0  0
    5.4247    1.2795   17.8511 C   0  0  0  0  0  0  0  0  0  0  0  0
    6.5858    0.6498   17.6150 N   0  0  0  0  0  0  0  0  0  0  0  0
    7.1762    0.0325   18.6422 C   0  0  0  0  0  0  0  0  0  0  0  0
    8.1265   -0.4528   18.4179 H   0  0  0  0  0  0  0  0  0  0  0  0
    4.9711    1.7860   17.0019 H   0  0  0  0  0  0  0  0  0  0  0  0
    3.8662    1.8435   19.2348 H   0  0  0  0  0  0  0  0  0  0  0  0
    4.9805    0.6587   21.1698 H   0  0  0  0  0  0  0  0  0  0  0  0
    6.8437   -0.8449   22.2191 N   0  0  0  0  0  0  0  0  0  0  0  0
    9.5825   -2.6031   22.9146 H   0  0  0  0  0  0  0  0  0  0  0  0
    8.1302   -1.8366   25.1154 H   0  0  0  0  0  0  0  0  0  0  0  0
    6.6392   -0.9006   24.7537 H   0  0  0  0  0  0  0  0  0  0  0  0
    5.1577   -2.9568   24.3400 N   0  0  0  0  0  0  0  0  0  0  0  0
    4.3742   -4.0799   24.1489 C   0  0  0  0  0  0  0  0  0  0  0  0
    4.9870   -5.1736   23.7870 N   0  0  0  0  0  0  0  0  0  0  0  0
    4.2593   -6.2975   23.6051 C   0  0  0  0  0  0  0  0  0  0  0  0
    2.8960   -6.3464   23.7472 C   0  0  0  0  0  0  0  0  0  0  0  0
    2.2046   -5.1599   24.1098 C   0  0  0  0  0  0  0  0  0  0  0  0
    0.7995   -5.0713   24.2575 C   0  0  0  0  0  0  0  0  0  0  0  0
    0.2379   -3.8679   24.6118 C   0  0  0  0  0  0  0  0  0  0  0  0
    0.9513   -2.7355   24.8451 N   0  0  0  0  0  0  0  0  0  0  0  0
    2.2669   -2.8001   24.7257 C   0  0  0  0  0  0  0  0  0  0  0  0
    2.9616   -3.9769   24.3370 C   0  0  0  0  0  0  0  0  0  0  0  0
    2.7953   -1.8687   24.9368 H   0  0  0  0  0  0  0  0  0  0  0  0
   -0.8419   -3.7693   24.7275 H   0  0  0  0  0  0  0  0  0  0  0  0
    0.1824   -5.9454   24.0907 H   0  0  0  0  0  0  0  0  0  0  0  0
    2.3527   -7.2686   23.5897 H   0  0  0  0  0  0  0  0  0  0  0  0
    4.8330   -7.1857   23.3410 H   0  0  0  0  0  0  0  0  0  0  0  0
    4.8297   -2.1095   23.9219 H   0  0  0  0  0  0  0  0  0  0  0  0
  1  2  2  0
  2  3  1  0
  3  4  1  0
  4  5  2  0
  5  6  1  0
  6  7  1  0
  7  8  1  0
  8  9  2  0
  9 10  1  0
 10 11  2  0
 11 12  1  0
 12 13  2  0
 13 14  1  0
 11 15  1  0
 10 16  1  0
  9 17  1  0
  7 18  2  0
  5 19  1  0
  3 20  1  0
  3 21  1  0
  2 22  1  0
 22 23  1  0
 23 24  2  0
 24 25  1  0
 25 26  2  0
 26 27  1  0
 27 28  2  0
 28 29  1  0
 29 30  2  0
 30 31  1  0
 31 32  2  0
 31 33  1  0
 29 34  1  0
 28 35  1  0
 26 36  1  0
 25 37  1  0
 22 38  1  0
 18  4  1  0
 32 23  1  0
 13  8  1  0
 32 27  1  0
M  END
>  <cnnaffinity>  (1) 
-6.04678

>  <filename>  (1) 
O=C(Cc1csc(-c2cccnc2)n1)Nc1nccc2ccncc12

$$$$
