
     RDKit          3D

 34 36  0  0  0  0  0  0  0  0999 V2000
    5.0129    1.7368   17.0200 H   0  0  0  0  0  0  0  0  0  0  0  0
    5.4593    1.2616   17.8897 C   0  0  0  0  0  0  0  0  0  0  0  0
    6.6209    0.6196   17.6907 N   0  0  0  0  0  0  0  0  0  0  0  0
    7.1860    0.0257   18.7444 C   0  0  0  0  0  0  0  0  0  0  0  0
    8.1215   -0.5017   18.5614 H   0  0  0  0  0  0  0  0  0  0  0  0
    6.6419    0.0649   20.0316 C   0  0  0  0  0  0  0  0  0  0  0  0
    7.4417   -0.6357   21.0750 C   0  0  0  0  0  0  0  0  0  0  0  0
    8.1415   -1.6023   20.8081 O   0  0  0  0  0  0  0  0  0  0  0  0
    7.3853   -0.1253   22.3325 N   0  0  0  0  0  0  0  0  0  0  0  0
    8.0645   -0.6665   23.4979 C   0  0  0  0  0  0  0  0  0  0  0  0
    9.1348   -0.8497   23.3277 H   0  0  0  0  0  0  0  0  0  0  0  0
    7.5950   -1.5846   23.8692 H   0  0  0  0  0  0  0  0  0  0  0  0
    7.7346    0.6579   24.2495 C   0  0  0  0  0  0  0  0  0  0  0  0
    8.6391    1.2052   24.5078 H   0  0  0  0  0  0  0  0  0  0  0  0
    6.7826    0.5763   25.4129 C   0  0  0  0  0  0  0  0  0  0  0  0
    5.9496   -0.4697   25.4065 N   0  0  0  0  0  0  0  0  0  0  0  0
    5.0428   -0.5959   26.3770 C   0  0  0  0  0  0  0  0  0  0  0  0
    4.4100   -1.4801   26.3301 H   0  0  0  0  0  0  0  0  0  0  0  0
    4.8947    0.3293   27.4117 C   0  0  0  0  0  0  0  0  0  0  0  0
    4.1401    0.1794   28.1744 H   0  0  0  0  0  0  0  0  0  0  0  0
    5.7305    1.4445   27.4275 C   0  0  0  0  0  0  0  0  0  0  0  0
    5.6537    2.2038   28.2078 H   0  0  0  0  0  0  0  0  0  0  0  0
    6.6794    1.5735   26.4084 C   0  0  0  0  0  0  0  0  0  0  0  0
    7.5980    2.7529   26.3262 C   0  0  0  0  0  0  0  0  0  0  0  0
    7.5310    3.3496   25.1139 F   0  0  0  0  0  0  0  0  0  0  0  0
    7.3413    3.6951   27.2483 F   0  0  0  0  0  0  0  0  0  0  0  0
    8.8884    2.3856   26.4883 F   0  0  0  0  0  0  0  0  0  0  0  0
    7.0832    1.1764   22.9250 C   0  0  0  0  0  0  0  0  0  0  0  0
    7.5959    2.0307   22.4550 H   0  0  0  0  0  0  0  0  0  0  0  0
    6.0062    1.3921   22.9711 H   0  0  0  0  0  0  0  0  0  0  0  0
    5.4109    0.7082   20.2272 C   0  0  0  0  0  0  0  0  0  0  0  0
    4.9206    0.7281   21.2037 H   0  0  0  0  0  0  0  0  0  0  0  0
    4.8130    1.3157   19.1294 C   0  0  0  0  0  0  0  0  0  0  0  0
    3.8655    1.8313   19.2307 H   0  0  0  0  0  0  0  0  0  0  0  0
  1  2  1  0
  2  3  2  0
  3  4  1  0
  4  5  1  0
  4  6  2  0
  6  7  1  0
  7  8  2  0
  7  9  1  0
  9 10  1  0
 10 11  1  0
 10 12  1  0
 10 13  1  0
 13 14  1  0
 13 15  1  0
 15 16  2  0
 16 17  1  0
 17 18  1  0
 17 19  2  0
 19 20  1  0
 19 21  1  0
 21 22  1  0
 21 23  2  0
 23 24  1  0
 24 25  1  0
 24 26  1  0
 24 27  1  0
 13 28  1  0
 28 29  1  0
 28 30  1  0
  6 31  1  0
 31 32  1  0
 31 33  2  0
 33 34  1  0
 33  2  1  0
 28  9  1  0
 23 15  1  0
M  END
>  <cnnaffinity>  (1) 
-5.04396

>  <filename>  (1) 
O=C(c1cccnc1)N1CC(c2ncccc2C(F)(F)F)C1

$$$$
