
     RDKit          3D

 42 44  0  0  0  0  0  0  0  0999 V2000
    7.2497   -2.2473   21.3197 O   0  0  0  0  0  0  0  0  0  0  0  0
    7.0255   -1.0675   21.5583 C   0  0  0  0  0  0  0  0  0  0  0  0
    6.5693   -0.1627   20.4630 C   0  0  0  0  0  0  0  0  0  0  0  0
    5.4261    0.6522   20.5174 C   0  0  0  0  0  0  0  0  0  0  0  0
    5.0285    1.2899   19.3437 C   0  0  0  0  0  0  0  0  0  0  0  0
    5.7991    1.1205   18.1884 C   0  0  0  0  0  0  0  0  0  0  0  0
    6.9123    0.3728   18.1417 N   0  0  0  0  0  0  0  0  0  0  0  0
    7.2743   -0.2597   19.2604 C   0  0  0  0  0  0  0  0  0  0  0  0
    8.1723   -0.8736   19.1977 H   0  0  0  0  0  0  0  0  0  0  0  0
    5.5070    1.6020   17.2581 H   0  0  0  0  0  0  0  0  0  0  0  0
    4.1383    1.9089   19.3094 H   0  0  0  0  0  0  0  0  0  0  0  0
    4.8465    0.7695   21.4366 H   0  0  0  0  0  0  0  0  0  0  0  0
    7.1572   -0.5289   22.8254 N   0  0  0  0  0  0  0  0  0  0  0  0
    7.7826    0.7835   23.0057 C   0  0  0  0  0  0  0  0  0  0  0  0
    9.2617    0.9237   22.5920 C   0  0  0  0  0  0  0  0  0  0  0  0
   10.2697   -0.0177   22.8812 C   0  0  0  0  0  0  0  0  0  0  0  0
   11.6298    0.2678   22.7138 C   0  0  0  0  0  0  0  0  0  0  0  0
   12.0209    1.4742   22.1305 C   0  0  0  0  0  0  0  0  0  0  0  0
   11.0448    2.3867   21.7221 C   0  0  0  0  0  0  0  0  0  0  0  0
    9.7035    2.1077   21.9778 C   0  0  0  0  0  0  0  0  0  0  0  0
    8.8058    3.0368   21.5809 F   0  0  0  0  0  0  0  0  0  0  0  0
   11.2984    3.3040   21.2012 H   0  0  0  0  0  0  0  0  0  0  0  0
   13.0726    1.6976   21.9799 H   0  0  0  0  0  0  0  0  0  0  0  0
   12.3761   -0.4643   23.0175 H   0  0  0  0  0  0  0  0  0  0  0  0
   10.0065   -1.0058   23.2171 H   0  0  0  0  0  0  0  0  0  0  0  0
    7.2097    1.5257   22.4332 H   0  0  0  0  0  0  0  0  0  0  0  0
    7.6819    1.0501   24.0662 H   0  0  0  0  0  0  0  0  0  0  0  0
    6.9348   -1.4534   23.9576 C   0  0  0  0  0  0  0  0  0  0  0  0
    8.2389   -2.0360   24.5146 C   0  0  0  0  0  0  0  0  0  0  0  0
    7.9793   -2.9880   25.6858 C   0  0  0  0  0  0  0  0  0  0  0  0
    7.1666   -2.3972   26.6846 O   0  0  0  0  0  0  0  0  0  0  0  0
    5.9240   -1.9336   26.1843 C   0  0  0  0  0  0  0  0  0  0  0  0
    6.1323   -0.8522   25.1182 C   0  0  0  0  0  0  0  0  0  0  0  0
    5.1748   -0.4610   24.7701 H   0  0  0  0  0  0  0  0  0  0  0  0
    6.6846   -0.0286   25.5836 H   0  0  0  0  0  0  0  0  0  0  0  0
    5.3729   -1.5626   27.0505 H   0  0  0  0  0  0  0  0  0  0  0  0
    5.3487   -2.7741   25.7565 H   0  0  0  0  0  0  0  0  0  0  0  0
    7.5199   -3.9224   25.3196 H   0  0  0  0  0  0  0  0  0  0  0  0
    8.9195   -3.2485   26.1792 H   0  0  0  0  0  0  0  0  0  0  0  0
    8.7724   -2.5614   23.7138 H   0  0  0  0  0  0  0  0  0  0  0  0
    8.8614   -1.2104   24.8840 H   0  0  0  0  0  0  0  0  0  0  0  0
    6.3416   -2.2874   23.5575 H   0  0  0  0  0  0  0  0  0  0  0  0
  1  2  2  0
  2  3  1  0
  3  4  2  0
  4  5  1  0
  5  6  2  0
  6  7  1  0
  7  8  2  0
  8  9  1  0
  6 10  1  0
  5 11  1  0
  4 12  1  0
  2 13  1  0
 13 14  1  0
 14 15  1  0
 15 16  2  0
 16 17  1  0
 17 18  2  0
 18 19  1  0
 19 20  2  0
 20 21  1  0
 19 22  1  0
 18 23  1  0
 17 24  1  0
 16 25  1  0
 14 26  1  0
 14 27  1  0
 13 28  1  0
 28 29  1  0
 29 30  1  0
 30 31  1  0
 31 32  1  0
 32 33  1  0
 33 34  1  0
 33 35  1  0
 32 36  1  0
 32 37  1  0
 30 38  1  0
 30 39  1  0
 29 40  1  0
 29 41  1  0
 28 42  1  0
  8  3  1  0
 20 15  1  0
 33 28  1  0
M  END
>  <cnnaffinity>  (1) 
-5.39921

>  <filename>  (1) 
O=C(c1cccnc1)N(Cc1ccccc1F)C1CCOCC1

$$$$
