
     RDKit          3D

 32 33  0  0  0  0  0  0  0  0999 V2000
    6.1619   -2.5970   24.2769 O   0  0  0  0  0  0  0  0  0  0  0  0
    6.8867   -1.7304   24.7312 C   0  0  0  0  0  0  0  0  0  0  0  0
    8.1506   -1.5083   24.2906 N   0  0  0  0  0  0  0  0  0  0  0  0
    8.5916   -1.9514   22.9782 C   0  0  0  0  0  0  0  0  0  0  0  0
    7.9364   -1.2499   21.8586 C   0  0  0  0  0  0  0  0  0  0  0  0
    7.3694   -0.6940   20.9470 C   0  0  0  0  0  0  0  0  0  0  0  0
    6.6684   -0.0049   19.8908 C   0  0  0  0  0  0  0  0  0  0  0  0
    5.4519    0.6589   20.1417 C   0  0  0  0  0  0  0  0  0  0  0  0
    4.7990    1.3152   19.0935 C   0  0  0  0  0  0  0  0  0  0  0  0
    5.3947    1.2987   17.8278 C   0  0  0  0  0  0  0  0  0  0  0  0
    6.5550    0.6783   17.5604 N   0  0  0  0  0  0  0  0  0  0  0  0
    7.1711    0.0524   18.5720 C   0  0  0  0  0  0  0  0  0  0  0  0
    8.1193   -0.4248   18.3322 H   0  0  0  0  0  0  0  0  0  0  0  0
    4.9252    1.8093   16.9896 H   0  0  0  0  0  0  0  0  0  0  0  0
    3.8628    1.8481   19.2377 H   0  0  0  0  0  0  0  0  0  0  0  0
    5.0471    0.6658   21.1565 H   0  0  0  0  0  0  0  0  0  0  0  0
    8.3897   -3.0223   22.8781 H   0  0  0  0  0  0  0  0  0  0  0  0
    9.6773   -1.8193   22.9198 H   0  0  0  0  0  0  0  0  0  0  0  0
    8.6733   -0.7932   24.7667 H   0  0  0  0  0  0  0  0  0  0  0  0
    6.4694   -0.9188   25.9176 C   0  0  0  0  0  0  0  0  0  0  0  0
    6.0144   -1.7196   26.9702 C   0  0  0  0  0  0  0  0  0  0  0  0
    5.6482   -1.2348   28.1554 N   0  0  0  0  0  0  0  0  0  0  0  0
    5.6775    0.0909   28.3197 C   0  0  0  0  0  0  0  0  0  0  0  0
    6.0711    0.9854   27.3176 C   0  0  0  0  0  0  0  0  0  0  0  0
    6.4683    0.4915   26.0619 C   0  0  0  0  0  0  0  0  0  0  0  0
    6.8525    1.4581   24.9150 C   0  0  0  0  0  0  0  0  0  0  0  0
    6.3904    1.0301   23.7221 F   0  0  0  0  0  0  0  0  0  0  0  0
    6.3631    2.6946   25.1019 F   0  0  0  0  0  0  0  0  0  0  0  0
    8.1924    1.5839   24.7940 F   0  0  0  0  0  0  0  0  0  0  0  0
    6.0366    2.0502   27.5260 H   0  0  0  0  0  0  0  0  0  0  0  0
    5.3545    0.4594   29.2900 H   0  0  0  0  0  0  0  0  0  0  0  0
    5.9568   -2.7996   26.8434 H   0  0  0  0  0  0  0  0  0  0  0  0
  1  2  2  0
  2  3  1  0
  3  4  1  0
  4  5  1  0
  5  6  3  0
  6  7  1  0
  7  8  2  0
  8  9  1  0
  9 10  2  0
 10 11  1  0
 11 12  2  0
 12 13  1  0
 10 14  1  0
  9 15  1  0
  8 16  1  0
  4 17  1  0
  4 18  1  0
  3 19  1  0
  2 20  1  0
 20 21  2  0
 21 22  1  0
 22 23  2  0
 23 24  1  0
 24 25  2  0
 25 26  1  0
 26 27  1  0
 26 28  1  0
 26 29  1  0
 24 30  1  0
 23 31  1  0
 21 32  1  0
 12  7  1  0
 25 20  1  0
M  END
>  <cnnaffinity>  (1) 
-5.02289

>  <filename>  (1) 
O=C(NCC#Cc1cccnc1)c1cnccc1C(F)(F)F

$$$$
