
     RDKit          3D

 30 32  0  0  0  0  0  0  0  0999 V2000
    5.0130    1.7464   17.1080 H   0  0  0  0  0  0  0  0  0  0  0  0
    5.4512    1.1891   17.9308 C   0  0  0  0  0  0  0  0  0  0  0  0
    6.5932    0.5442   17.6440 N   0  0  0  0  0  0  0  0  0  0  0  0
    7.1785   -0.1228   18.6435 C   0  0  0  0  0  0  0  0  0  0  0  0
    8.1113   -0.6402   18.4149 H   0  0  0  0  0  0  0  0  0  0  0  0
    6.6670   -0.1931   19.9513 C   0  0  0  0  0  0  0  0  0  0  0  0
    7.4857   -0.7876   21.0153 C   0  0  0  0  0  0  0  0  0  0  0  0
    8.7218   -0.4369   21.4926 C   0  0  0  0  0  0  0  0  0  0  0  0
    9.4455    0.2196   21.0369 H   0  0  0  0  0  0  0  0  0  0  0  0
    8.9352   -1.0557   22.6830 N   0  0  0  0  0  0  0  0  0  0  0  0
    7.9270   -1.7930   22.9696 N   0  0  0  0  0  0  0  0  0  0  0  0
    7.0240   -1.6689   21.9554 N   0  0  0  0  0  0  0  0  0  0  0  0
    5.9346   -2.5870   21.8270 C   0  0  0  0  0  0  0  0  0  0  0  0
    5.4567   -2.8613   20.7504 O   0  0  0  0  0  0  0  0  0  0  0  0
    5.5591   -3.0874   23.0478 N   0  0  0  0  0  0  0  0  0  0  0  0
    5.8964   -2.5490   23.8284 H   0  0  0  0  0  0  0  0  0  0  0  0
    4.4017   -3.8104   23.2720 C   0  0  0  0  0  0  0  0  0  0  0  0
    3.9779   -4.7596   22.3531 C   0  0  0  0  0  0  0  0  0  0  0  0
    4.6214   -5.0158   21.5248 H   0  0  0  0  0  0  0  0  0  0  0  0
    2.7256   -5.3302   22.5447 C   0  0  0  0  0  0  0  0  0  0  0  0
    2.3234   -6.0381   21.8212 H   0  0  0  0  0  0  0  0  0  0  0  0
    1.9319   -5.0526   23.5910 N   0  0  0  0  0  0  0  0  0  0  0  0
    2.4080   -4.1985   24.5073 C   0  0  0  0  0  0  0  0  0  0  0  0
    1.7677   -4.0054   25.3674 H   0  0  0  0  0  0  0  0  0  0  0  0
    3.6418   -3.5610   24.4105 C   0  0  0  0  0  0  0  0  0  0  0  0
    4.0083   -2.8942   25.1829 H   0  0  0  0  0  0  0  0  0  0  0  0
    5.4528    0.4624   20.2227 C   0  0  0  0  0  0  0  0  0  0  0  0
    5.0221    0.4437   21.2258 H   0  0  0  0  0  0  0  0  0  0  0  0
    4.8396    1.1720   19.1895 C   0  0  0  0  0  0  0  0  0  0  0  0
    3.9304    1.7438   19.3472 H   0  0  0  0  0  0  0  0  0  0  0  0
  1  2  1  0
  2  3  2  0
  3  4  1  0
  4  5  1  0
  4  6  2  0
  6  7  1  0
  7  8  2  0
  8  9  1  0
  8 10  1  0
 10 11  2  0
 11 12  1  0
 12 13  1  0
 13 14  2  0
 13 15  1  0
 15 16  1  0
 15 17  1  0
 17 18  2  0
 18 19  1  0
 18 20  1  0
 20 21  1  0
 20 22  2  0
 22 23  1  0
 23 24  1  0
 23 25  2  0
 25 26  1  0
  6 27  1  0
 27 28  1  0
 27 29  2  0
 29 30  1  0
 29  2  1  0
 12  7  1  0
 25 17  1  0
M  END
>  <cnnaffinity>  (1) 
-5.21785

>  <filename>  (1) 
O=C(Nc1ccncc1)n1nncc1-c1cccnc1

$$$$
