
     RDKit          3D

 32 34  0  0  0  0  0  0  0  0999 V2000
    5.0196    1.8666   16.9268 H   0  0  0  0  0  0  0  0  0  0  0  0
    5.4222    1.3092   17.7716 C   0  0  0  0  0  0  0  0  0  0  0  0
    6.5667    0.6422   17.5492 N   0  0  0  0  0  0  0  0  0  0  0  0
    7.0987   -0.0370   18.5722 C   0  0  0  0  0  0  0  0  0  0  0  0
    8.0274   -0.5739   18.3831 H   0  0  0  0  0  0  0  0  0  0  0  0
    6.5159   -0.0895   19.8504 C   0  0  0  0  0  0  0  0  0  0  0  0
    7.1372   -0.8144   20.9281 N   0  0  0  0  0  0  0  0  0  0  0  0
    7.8906   -0.2609   21.9547 C   0  0  0  0  0  0  0  0  0  0  0  0
    8.0198    1.2490   22.2244 C   0  0  0  0  0  0  0  0  0  0  0  0
    7.9975    2.0945   21.3512 O   0  0  0  0  0  0  0  0  0  0  0  0
    8.1393    1.5321   23.5583 N   0  0  0  0  0  0  0  0  0  0  0  0
    8.1104    0.7018   24.1369 H   0  0  0  0  0  0  0  0  0  0  0  0
    8.1379    2.8497   24.1469 C   0  0  0  0  0  0  0  0  0  0  0  0
    8.5135    3.5580   23.3944 H   0  0  0  0  0  0  0  0  0  0  0  0
    7.1218    3.1525   24.4962 H   0  0  0  0  0  0  0  0  0  0  0  0
    8.7648    3.3300   26.2038 C   0  0  0  0  0  0  0  0  0  0  0  0
    8.4949    2.7718   27.2633 H   0  0  0  0  0  0  0  0  0  0  0  0
    9.0395    4.6879   26.1671 C   0  0  0  0  0  0  0  0  0  0  0  0
    9.4089    5.3649   25.4309 H   0  0  0  0  0  0  0  0  0  0  0  0
    8.7146    4.7206   27.1371 H   0  0  0  0  0  0  0  0  0  0  0  0
    8.8338    3.2866   26.2059 C   0  0  0  0  0  0  0  0  0  0  0  0
   10.2470    1.7963   25.0848 H   0  0  0  0  0  0  0  0  0  0  0  0
   10.5243    2.2841   25.4390 H   0  0  0  0  0  0  0  0  0  0  0  0
    8.3900   -1.2013   22.7201 N   0  0  0  0  0  0  0  0  0  0  0  0
    7.9226   -2.3466   22.1774 N   0  0  0  0  0  0  0  0  0  0  0  0
    8.1051   -3.2489   22.5864 H   0  0  0  0  0  0  0  0  0  0  0  0
    7.0818   -2.1892   21.1336 C   0  0  0  0  0  0  0  0  0  0  0  0
    6.1874   -3.3737   20.3907 S   0  0  0  0  0  0  0  0  0  0  0  0
    5.3138    0.5837   20.0681 C   0  0  0  0  0  0  0  0  0  0  0  0
    4.8401    0.5401   21.0496 H   0  0  0  0  0  0  0  0  0  0  0  0
    4.7594    1.3020   19.0026 C   0  0  0  0  0  0  0  0  0  0  0  0
    3.8410    1.8666   19.1209 H   0  0  0  0  0  0  0  0  0  0  0  0
  1  2  1  0
  2  3  2  0
  3  4  1  0
  4  5  1  0
  4  6  2  0
  6  7  1  0
  7  8  1  0
  8  9  1  0
  9 10  2  0
  9 11  1  0
 11 12  1  0
 11 13  1  0
 13 14  1  0
 13 15  1  0
 13 16  1  0
 16 17  1  0
 16 18  1  0
 18 19  1  0
 18 20  1  0
 18 21  1  0
 21 22  1  0
 21 23  1  0
  8 24  2  0
 24 25  1  0
 25 26  1  0
 25 27  1  0
 27 28  2  0
  6 29  1  0
 29 30  1  0
 29 31  2  0
 31 32  1  0
 31  2  1  0
 27  7  1  0
 21 16  1  0
M  END
>  <cnnaffinity>  (1) 
-4.40561

>  <filename>  (1) 
O=C(NCC1CC1)c1n[nH]c(=S)n1-c1cccnc1

$$$$
