
     RDKit          3D

 42 44  0  0  0  0  0  0  0  0999 V2000
    7.1432    0.9251   22.3489 H   0  0  0  0  0  0  0  0  0  0  0  0
    7.4689   -0.0857   22.1562 C   0  0  0  0  0  0  0  0  0  0  0  0
    7.3194   -0.6516   20.9488 C   0  0  0  0  0  0  0  0  0  0  0  0
    6.6248   -0.0195   19.8157 C   0  0  0  0  0  0  0  0  0  0  0  0
    7.1669   -0.0251   18.5182 C   0  0  0  0  0  0  0  0  0  0  0  0
    8.1050   -0.5407   18.3136 H   0  0  0  0  0  0  0  0  0  0  0  0
    6.6090    0.5984   17.4733 N   0  0  0  0  0  0  0  0  0  0  0  0
    5.4541    1.2517   17.6853 C   0  0  0  0  0  0  0  0  0  0  0  0
    5.0292    1.7600   16.8223 H   0  0  0  0  0  0  0  0  0  0  0  0
    4.8085    1.2981   18.9283 C   0  0  0  0  0  0  0  0  0  0  0  0
    3.8815    1.8510   19.0418 H   0  0  0  0  0  0  0  0  0  0  0  0
    5.4118    0.6670   20.0153 C   0  0  0  0  0  0  0  0  0  0  0  0
    4.9743    0.6902   21.0157 H   0  0  0  0  0  0  0  0  0  0  0  0
    7.8717   -1.9091   20.7299 N   0  0  0  0  0  0  0  0  0  0  0  0
    7.5947   -2.4823   19.9481 H   0  0  0  0  0  0  0  0  0  0  0  0
    8.1598   -2.8030   21.7524 C   0  0  0  0  0  0  0  0  0  0  0  0
    8.1797   -3.9851   21.4660 O   0  0  0  0  0  0  0  0  0  0  0  0
    8.3685   -2.2299   23.0017 N   0  0  0  0  0  0  0  0  0  0  0  0
    8.7950   -2.9999   24.1200 N   0  0  0  0  0  0  0  0  0  0  0  0
    8.1808   -3.7688   24.3287 H   0  0  0  0  0  0  0  0  0  0  0  0
    9.3506   -2.4729   25.2674 C   0  0  0  0  0  0  0  0  0  0  0  0
    9.8992   -1.3830   25.3032 O   0  0  0  0  0  0  0  0  0  0  0  0
    9.1818   -3.3321   26.5341 C   0  0  0  0  0  0  0  0  0  0  0  0
    9.6150   -2.6552   27.2763 H   0  0  0  0  0  0  0  0  0  0  0  0
    9.9930   -4.6611   26.5565 C   0  0  0  0  0  0  0  0  0  0  0  0
   10.1331   -4.9285   27.6149 H   0  0  0  0  0  0  0  0  0  0  0  0
   10.9986   -4.4984   26.1491 H   0  0  0  0  0  0  0  0  0  0  0  0
    9.2942   -5.8349   25.8454 C   0  0  0  0  0  0  0  0  0  0  0  0
    9.8791   -6.7516   25.9929 H   0  0  0  0  0  0  0  0  0  0  0  0
    9.2839   -5.6629   24.7591 H   0  0  0  0  0  0  0  0  0  0  0  0
    7.8704   -6.0342   26.3933 C   0  0  0  0  0  0  0  0  0  0  0  0
    7.9444   -6.2814   27.4644 H   0  0  0  0  0  0  0  0  0  0  0  0
    7.3646   -6.8823   25.9257 H   0  0  0  0  0  0  0  0  0  0  0  0
    7.0178   -4.7661   26.2521 C   0  0  0  0  0  0  0  0  0  0  0  0
    6.8201   -4.5465   25.1915 H   0  0  0  0  0  0  0  0  0  0  0  0
    6.0269   -4.9272   26.6939 H   0  0  0  0  0  0  0  0  0  0  0  0
    7.7039   -3.5860   26.9587 C   0  0  0  0  0  0  0  0  0  0  0  0
    7.7289   -3.8262   28.0299 H   0  0  0  0  0  0  0  0  0  0  0  0
    7.1114   -2.6681   26.8546 H   0  0  0  0  0  0  0  0  0  0  0  0
    8.2215   -0.7761   23.2419 C   0  0  0  0  0  0  0  0  0  0  0  0
    7.7122   -0.6366   24.2089 H   0  0  0  0  0  0  0  0  0  0  0  0
    9.2220   -0.3370   23.4069 H   0  0  0  0  0  0  0  0  0  0  0  0
  1  2  1  0
  2  3  2  0
  3  4  1  0
  4  5  2  0
  5  6  1  0
  5  7  1  0
  7  8  2  0
  8  9  1  0
  8 10  1  0
 10 11  1  0
 10 12  2  0
 12 13  1  0
  3 14  1  0
 14 15  1  0
 14 16  1  0
 16 17  2  0
 16 18  1  0
 18 19  1  0
 19 20  1  0
 19 21  1  0
 21 22  2  0
 21 23  1  0
 23 24  1  0
 23 25  1  0
 25 26  1  0
 25 27  1  0
 25 28  1  0
 28 29  1  0
 28 30  1  0
 28 31  1  0
 31 32  1  0
 31 33  1  0
 31 34  1  0
 34 35  1  0
 34 36  1  0
 34 37  1  0
 37 38  1  0
 37 39  1  0
 18 40  1  0
 40 41  1  0
 40 42  1  0
 40  2  1  0
 12  4  1  0
 37 23  1  0
M  END
>  <cnnaffinity>  (1) 
-5.23258

>  <filename>  (1) 
O=C(NN1CC=C(c2cccnc2)NC1=O)C1CCCCC1

$$$$
