
     RDKit          3D

 29 31  0  0  0  0  0  0  0  0999 V2000
    9.9388   -2.4668   21.8953 H   0  0  0  0  0  0  0  0  0  0  0  0
    9.0065   -1.9112   21.9028 C   0  0  0  0  0  0  0  0  0  0  0  0
    8.5567   -1.3290   20.7583 N   0  0  0  0  0  0  0  0  0  0  0  0
    7.4192   -0.7178   20.9482 C   0  0  0  0  0  0  0  0  0  0  0  0
    6.6697    0.0012   19.9110 C   0  0  0  0  0  0  0  0  0  0  0  0
    7.1860    0.0527   18.6034 C   0  0  0  0  0  0  0  0  0  0  0  0
    8.1316   -0.4341   18.3769 H   0  0  0  0  0  0  0  0  0  0  0  0
    6.5729    0.6709   17.5898 N   0  0  0  0  0  0  0  0  0  0  0  0
    5.4081    1.2857   17.8471 C   0  0  0  0  0  0  0  0  0  0  0  0
    4.9235    1.7746   17.0038 H   0  0  0  0  0  0  0  0  0  0  0  0
    4.8123    1.3049   19.1128 C   0  0  0  0  0  0  0  0  0  0  0  0
    3.8800    1.8384   19.2631 H   0  0  0  0  0  0  0  0  0  0  0  0
    5.4459    0.6482   20.1649 C   0  0  0  0  0  0  0  0  0  0  0  0
    4.9988    0.6394   21.1600 H   0  0  0  0  0  0  0  0  0  0  0  0
    6.8191   -0.8291   22.5794 S   0  0  0  0  0  0  0  0  0  0  0  0
    8.2242   -1.7491   23.0137 C   0  0  0  0  0  0  0  0  0  0  0  0
    8.5194   -2.3414   24.3335 C   0  0  0  0  0  0  0  0  0  0  0  0
    9.3297   -3.2499   24.4076 O   0  0  0  0  0  0  0  0  0  0  0  0
    7.7831   -1.8522   25.5554 C   0  0  0  0  0  0  0  0  0  0  0  0
    7.5014   -0.4933   25.7805 C   0  0  0  0  0  0  0  0  0  0  0  0
    7.7976    0.2597   25.0551 H   0  0  0  0  0  0  0  0  0  0  0  0
    6.8237   -0.0853   26.9315 C   0  0  0  0  0  0  0  0  0  0  0  0
    6.6049    0.9634   27.1035 H   0  0  0  0  0  0  0  0  0  0  0  0
    6.3756   -1.0468   27.8377 C   0  0  0  0  0  0  0  0  0  0  0  0
    5.5848   -0.5386   29.3017 Cl  0  0  0  0  0  0  0  0  0  0  0  0
    6.5653   -2.4064   27.5755 C   0  0  0  0  0  0  0  0  0  0  0  0
    6.1149   -3.1680   28.2059 H   0  0  0  0  0  0  0  0  0  0  0  0
    7.3400   -2.7993   26.4927 C   0  0  0  0  0  0  0  0  0  0  0  0
    7.5947   -3.8531   26.3828 H   0  0  0  0  0  0  0  0  0  0  0  0
  1  2  1  0
  2  3  1  0
  3  4  2  0
  4  5  1  0
  5  6  2  0
  6  7  1  0
  6  8  1  0
  8  9  2  0
  9 10  1  0
  9 11  1  0
 11 12  1  0
 11 13  2  0
 13 14  1  0
  4 15  1  0
 15 16  1  0
 16 17  1  0
 17 18  2  0
 17 19  1  0
 19 20  2  0
 20 21  1  0
 20 22  1  0
 22 23  1  0
 22 24  2  0
 24 25  1  0
 24 26  1  0
 26 27  1  0
 26 28  2  0
 28 29  1  0
 16  2  2  0
 28 19  1  0
 13  5  1  0
M  END
>  <cnnaffinity>  (1) 
-4.90123

>  <filename>  (1) 
O=C(c1ccc(Cl)cc1)c1cnc(-c2cccnc2)s1

$$$$
