
     RDKit          3D

 31 33  0  0  0  0  0  0  0  0999 V2000
    6.9755    1.3927   22.0499 O   0  0  0  0  0  0  0  0  0  0  0  0
    7.4387    0.3914   21.5476 C   0  0  0  0  0  0  0  0  0  0  0  0
    8.7480    0.0135   21.6077 N   0  0  0  0  0  0  0  0  0  0  0  0
    9.8915    0.7286   21.9877 C   0  0  0  0  0  0  0  0  0  0  0  0
   11.0480   -0.0172   22.2448 C   0  0  0  0  0  0  0  0  0  0  0  0
   11.1049   -1.7476   22.0535 Cl  0  0  0  0  0  0  0  0  0  0  0  0
   12.2272    0.6390   22.6227 C   0  0  0  0  0  0  0  0  0  0  0  0
   12.2686    2.0524   22.6303 C   0  0  0  0  0  0  0  0  0  0  0  0
   11.1240    2.8317   22.3317 C   0  0  0  0  0  0  0  0  0  0  0  0
    9.9460    2.1536   22.0272 C   0  0  0  0  0  0  0  0  0  0  0  0
    9.0372    2.7002   21.8074 H   0  0  0  0  0  0  0  0  0  0  0  0
   11.1691    3.9189   22.3575 H   0  0  0  0  0  0  0  0  0  0  0  0
   13.5506    2.3613   22.9903 N   0  0  0  0  0  0  0  0  0  0  0  0
   14.3104    1.2597   23.1986 N   0  0  0  0  0  0  0  0  0  0  0  0
   13.5350    0.2240   22.9973 C   0  0  0  0  0  0  0  0  0  0  0  0
   13.9014   -0.7864   23.1173 H   0  0  0  0  0  0  0  0  0  0  0  0
   14.0150    3.2565   22.9997 H   0  0  0  0  0  0  0  0  0  0  0  0
    8.9339   -0.9203   21.2669 H   0  0  0  0  0  0  0  0  0  0  0  0
    6.5348   -0.6147   20.6953 C   0  0  0  0  0  0  0  0  0  0  0  0
    7.2653   -1.7379   20.3447 F   0  0  0  0  0  0  0  0  0  0  0  0
    5.5366   -1.0889   21.4707 F   0  0  0  0  0  0  0  0  0  0  0  0
    5.9453    0.0101   19.4598 C   0  0  0  0  0  0  0  0  0  0  0  0
    4.9065    0.9451   19.5633 C   0  0  0  0  0  0  0  0  0  0  0  0
    4.4918    1.5791   18.3934 C   0  0  0  0  0  0  0  0  0  0  0  0
    5.1473    1.2751   17.1957 C   0  0  0  0  0  0  0  0  0  0  0  0
    6.1227    0.3627   17.0886 N   0  0  0  0  0  0  0  0  0  0  0  0
    6.4997   -0.2632   18.2037 C   0  0  0  0  0  0  0  0  0  0  0  0
    7.2891   -1.0045   18.0992 H   0  0  0  0  0  0  0  0  0  0  0  0
    4.8876    1.7972   16.2791 H   0  0  0  0  0  0  0  0  0  0  0  0
    3.7101    2.3316   18.4024 H   0  0  0  0  0  0  0  0  0  0  0  0
    4.4613    1.1842   20.5311 H   0  0  0  0  0  0  0  0  0  0  0  0
  1  2  2  0
  2  3  1  0
  3  4  1  0
  4  5  2  0
  5  6  1  0
  5  7  1  0
  7  8  2  0
  8  9  1  0
  9 10  2  0
 10 11  1  0
  9 12  1  0
  8 13  1  0
 13 14  1  0
 14 15  2  0
 15 16  1  0
 13 17  1  0
  3 18  1  0
  2 19  1  0
 19 20  1  0
 19 21  1  0
 19 22  1  0
 22 23  2  0
 23 24  1  0
 24 25  2  0
 25 26  1  0
 26 27  2  0
 27 28  1  0
 25 29  1  0
 24 30  1  0
 23 31  1  0
 10  4  1  0
 27 22  1  0
 15  7  1  0
M  END
>  <cnnaffinity>  (1) 
-5.96437

>  <filename>  (1) 
O=C(Nc1ccc2[nH]ncc2c1Cl)C(F)(F)c1cccnc1

$$$$
