
     RDKit          3D

 26 27  0  0  0  0  0  0  0  0999 V2000
    9.1552   -1.0866   20.5951 H   0  0  0  0  0  0  0  0  0  0  0  0
    8.5859   -0.6342   21.2427 O   0  0  0  0  0  0  0  0  0  0  0  0
    7.2769   -1.1275   20.9867 N   0  0  0  0  0  0  0  0  0  0  0  0
    6.5828   -1.8499   22.0309 C   0  0  0  0  0  0  0  0  0  0  0  0
    5.5790   -2.4795   21.7925 O   0  0  0  0  0  0  0  0  0  0  0  0
    7.2081   -1.7270   23.2454 N   0  0  0  0  0  0  0  0  0  0  0  0
    8.0314   -1.1502   23.2568 H   0  0  0  0  0  0  0  0  0  0  0  0
    6.8797   -2.4641   24.3584 N   0  0  0  0  0  0  0  0  0  0  0  0
    7.6388   -3.4744   24.9002 C   0  0  0  0  0  0  0  0  0  0  0  0
    8.5794   -3.7470   24.4449 H   0  0  0  0  0  0  0  0  0  0  0  0
    6.9468   -3.9810   25.9747 C   0  0  0  0  0  0  0  0  0  0  0  0
    7.2906   -4.7770   26.6229 H   0  0  0  0  0  0  0  0  0  0  0  0
    5.7229   -3.2469   26.0820 C   0  0  0  0  0  0  0  0  0  0  0  0
    4.9556   -3.3365   26.8463 H   0  0  0  0  0  0  0  0  0  0  0  0
    5.7125   -2.3292   25.0645 C   0  0  0  0  0  0  0  0  0  0  0  0
    4.9867   -1.5853   24.7702 H   0  0  0  0  0  0  0  0  0  0  0  0
    6.6326   -0.2964   20.0222 C   0  0  0  0  0  0  0  0  0  0  0  0
    7.2643   -0.1304   18.7708 C   0  0  0  0  0  0  0  0  0  0  0  0
    8.2327   -0.5982   18.5924 H   0  0  0  0  0  0  0  0  0  0  0  0
    6.7564    0.5694   17.7591 N   0  0  0  0  0  0  0  0  0  0  0  0
    5.5934    1.2107   17.9742 C   0  0  0  0  0  0  0  0  0  0  0  0
    5.2076    1.7819   17.1307 H   0  0  0  0  0  0  0  0  0  0  0  0
    4.9147    1.1729   19.1960 C   0  0  0  0  0  0  0  0  0  0  0  0
    4.0025    1.7548   19.3037 H   0  0  0  0  0  0  0  0  0  0  0  0
    5.4312    0.4051   20.2519 C   0  0  0  0  0  0  0  0  0  0  0  0
    4.9238    0.3878   21.2176 H   0  0  0  0  0  0  0  0  0  0  0  0
  1  2  1  0
  2  3  1  0
  3  4  1  0
  4  5  2  0
  4  6  1  0
  6  7  1  0
  6  8  1  0
  8  9  1  0
  9 10  1  0
  9 11  2  0
 11 12  1  0
 11 13  1  0
 13 14  1  0
 13 15  2  0
 15 16  1  0
  3 17  1  0
 17 18  2  0
 18 19  1  0
 18 20  1  0
 20 21  2  0
 21 22  1  0
 21 23  1  0
 23 24  1  0
 23 25  2  0
 25 26  1  0
 15  8  1  0
 25 17  1  0
M  END
>  <cnnaffinity>  (1) 
-4.46326

>  <filename>  (1) 
O=C(Nn1cccc1)N(O)c1cccnc1

$$$$
