
     RDKit          3D

 28 29  0  0  0  0  0  0  0  0999 V2000
    4.9897    1.6508   16.8906 H   0  0  0  0  0  0  0  0  0  0  0  0
    5.5143    1.2214   17.7445 C   0  0  0  0  0  0  0  0  0  0  0  0
    6.6952    0.6327   17.4946 N   0  0  0  0  0  0  0  0  0  0  0  0
    7.3698    0.1174   18.5388 C   0  0  0  0  0  0  0  0  0  0  0  0
    8.3030   -0.3939   18.3120 H   0  0  0  0  0  0  0  0  0  0  0  0
    6.9105    0.1624   19.8789 C   0  0  0  0  0  0  0  0  0  0  0  0
    7.5436   -0.3765   21.0981 N   0  0  0  0  0  0  0  0  0  0  0  0
    7.2482   -1.3406   21.2136 H   0  0  0  0  0  0  0  0  0  0  0  0
    9.2260   -0.7198   21.2171 S   0  0  0  0  0  0  0  0  0  0  0  0
    9.2146   -2.0160   20.5525 O   0  0  0  0  0  0  0  0  0  0  0  0
    9.9371    0.4440   20.7176 O   0  0  0  0  0  0  0  0  0  0  0  0
    9.8553   -1.0244   23.0333 C   0  0  0  0  0  0  0  0  0  0  0  0
   10.5904   -1.9408   23.2705 O   0  0  0  0  0  0  0  0  0  0  0  0
    9.3066   -0.1110   24.0718 C   0  0  0  0  0  0  0  0  0  0  0  0
    9.2828   -0.5863   25.3963 C   0  0  0  0  0  0  0  0  0  0  0  0
    9.6339   -1.5941   25.6039 H   0  0  0  0  0  0  0  0  0  0  0  0
    8.8186    0.2206   26.4339 C   0  0  0  0  0  0  0  0  0  0  0  0
    8.7973   -0.1355   27.4565 H   0  0  0  0  0  0  0  0  0  0  0  0
    8.3757    1.5155   26.1418 C   0  0  0  0  0  0  0  0  0  0  0  0
    7.7672    2.5119   27.4354 Cl  0  0  0  0  0  0  0  0  0  0  0  0
    8.3979    2.0095   24.8386 C   0  0  0  0  0  0  0  0  0  0  0  0
    8.0573    3.0214   24.6487 H   0  0  0  0  0  0  0  0  0  0  0  0
    8.8510    1.1899   23.7974 C   0  0  0  0  0  0  0  0  0  0  0  0
    8.8437    1.5778   22.7821 H   0  0  0  0  0  0  0  0  0  0  0  0
    5.6608    0.7356   20.1002 C   0  0  0  0  0  0  0  0  0  0  0  0
    5.2862    0.7169   21.1215 H   0  0  0  0  0  0  0  0  0  0  0  0
    4.9519    1.2859   19.0255 C   0  0  0  0  0  0  0  0  0  0  0  0
    3.9859    1.7599   19.1772 H   0  0  0  0  0  0  0  0  0  0  0  0
  1  2  1  0
  2  3  2  0
  3  4  1  0
  4  5  1  0
  4  6  2  0
  6  7  1  0
  7  8  1  0
  7  9  1  0
  9 10  2  0
  9 11  2  0
  9 12  1  0
 12 13  2  0
 12 14  1  0
 14 15  2  0
 15 16  1  0
 15 17  1  0
 17 18  1  0
 17 19  2  0
 19 20  1  0
 19 21  1  0
 21 22  1  0
 21 23  2  0
 23 24  1  0
  6 25  1  0
 25 26  1  0
 25 27  2  0
 27 28  1  0
 27  2  1  0
 23 14  1  0
M  END
>  <cnnaffinity>  (1) 
-4.72309

>  <filename>  (1) 
O=C(c1ccc(Cl)cc1)S(=O)(=O)Nc1cccnc1

$$$$
