
     RDKit          3D

 32 34  0  0  0  0  0  0  0  0999 V2000
    4.9799    1.7447   17.1022 H   0  0  0  0  0  0  0  0  0  0  0  0
    5.4732    1.2321   17.9274 C   0  0  0  0  0  0  0  0  0  0  0  0
    6.6276    0.6117   17.6380 N   0  0  0  0  0  0  0  0  0  0  0  0
    7.2591   -0.0164   18.6364 C   0  0  0  0  0  0  0  0  0  0  0  0
    8.1985   -0.5049   18.4051 H   0  0  0  0  0  0  0  0  0  0  0  0
    6.7737   -0.0780   19.9610 C   0  0  0  0  0  0  0  0  0  0  0  0
    7.4685   -0.7752   21.0156 N   0  0  0  0  0  0  0  0  0  0  0  0
    8.8365   -0.6929   21.2855 C   0  0  0  0  0  0  0  0  0  0  0  0
    9.6549   -0.0773   20.6588 O   0  0  0  0  0  0  0  0  0  0  0  0
    9.0261   -1.5800   22.5338 C   0  0  0  0  0  0  0  0  0  0  0  0
   10.0361   -1.8766   23.1279 O   0  0  0  0  0  0  0  0  0  0  0  0
    7.7702   -2.0450   22.8447 N   0  0  0  0  0  0  0  0  0  0  0  0
    7.4391   -2.9755   23.8479 C   0  0  0  0  0  0  0  0  0  0  0  0
    6.4378   -3.6353   23.7882 O   0  0  0  0  0  0  0  0  0  0  0  0
    8.3587   -2.9864   24.8456 N   0  0  0  0  0  0  0  0  0  0  0  0
    9.2859   -2.6869   24.5879 H   0  0  0  0  0  0  0  0  0  0  0  0
    8.2352   -3.7471   25.9948 C   0  0  0  0  0  0  0  0  0  0  0  0
    9.3638   -4.3321   26.5605 C   0  0  0  0  0  0  0  0  0  0  0  0
   10.3409   -4.2336   26.0982 H   0  0  0  0  0  0  0  0  0  0  0  0
    9.1820   -5.0922   27.7160 C   0  0  0  0  0  0  0  0  0  0  0  0
   10.0389   -5.5576   28.2015 H   0  0  0  0  0  0  0  0  0  0  0  0
    7.9933   -5.2890   28.3028 N   0  0  0  0  0  0  0  0  0  0  0  0
    6.9264   -4.7091   27.7355 C   0  0  0  0  0  0  0  0  0  0  0  0
    5.9624   -4.8885   28.2100 H   0  0  0  0  0  0  0  0  0  0  0  0
    6.9909   -3.9272   26.5917 C   0  0  0  0  0  0  0  0  0  0  0  0
    6.1074   -3.5083   26.1383 H   0  0  0  0  0  0  0  0  0  0  0  0
    6.8646   -1.7417   21.8328 C   0  0  0  0  0  0  0  0  0  0  0  0
    5.8095   -2.2584   21.6350 O   0  0  0  0  0  0  0  0  0  0  0  0
    5.5539    0.5449   20.2418 C   0  0  0  0  0  0  0  0  0  0  0  0
    5.1395    0.4781   21.2494 H   0  0  0  0  0  0  0  0  0  0  0  0
    4.9019    1.2247   19.2054 C   0  0  0  0  0  0  0  0  0  0  0  0
    3.9675    1.7460   19.3818 H   0  0  0  0  0  0  0  0  0  0  0  0
  1  2  1  0
  2  3  2  0
  3  4  1  0
  4  5  1  0
  4  6  2  0
  6  7  1  0
  7  8  1  0
  8  9  2  0
  8 10  1  0
 10 11  2  0
 10 12  1  0
 12 13  1  0
 13 14  2  0
 13 15  1  0
 15 16  1  0
 15 17  1  0
 17 18  2  0
 18 19  1  0
 18 20  1  0
 20 21  1  0
 20 22  2  0
 22 23  1  0
 23 24  1  0
 23 25  2  0
 25 26  1  0
 12 27  1  0
 27 28  2  0
  6 29  1  0
 29 30  1  0
 29 31  2  0
 31 32  1  0
 31  2  1  0
 27  7  1  0
 25 17  1  0
M  END
>  <cnnaffinity>  (1) 
-5.11655

>  <filename>  (1) 
O=C(Nc1ccncc1)N1C(=O)C(=O)N(c2cccnc2)C1=O

$$$$
