
     RDKit          3D

 38 41  0  0  0  0  0  0  0  0999 V2000
    7.0981   -4.0322   24.8745 O   0  0  0  0  0  0  0  0  0  0  0  0
    6.5280   -3.0036   24.5782 C   0  0  0  0  0  0  0  0  0  0  0  0
    7.2965   -1.7116   24.4650 C   0  0  0  0  0  0  0  0  0  0  0  0
    7.7015   -1.5129   23.0438 C   0  0  0  0  0  0  0  0  0  0  0  0
    8.8199   -2.0131   22.4526 C   0  0  0  0  0  0  0  0  0  0  0  0
    8.8671   -1.5461   20.7944 S   0  0  0  0  0  0  0  0  0  0  0  0
    7.3437   -0.7145   21.0149 C   0  0  0  0  0  0  0  0  0  0  0  0
    6.6444   -0.0007   19.9388 C   0  0  0  0  0  0  0  0  0  0  0  0
    5.4228    0.6550   20.1791 C   0  0  0  0  0  0  0  0  0  0  0  0
    4.8025    1.3050   19.1151 C   0  0  0  0  0  0  0  0  0  0  0  0
    5.4157    1.2773   17.8573 C   0  0  0  0  0  0  0  0  0  0  0  0
    6.5751    0.6532   17.6138 N   0  0  0  0  0  0  0  0  0  0  0  0
    7.1743    0.0398   18.6372 C   0  0  0  0  0  0  0  0  0  0  0  0
    8.1238   -0.4352   18.3949 H   0  0  0  0  0  0  0  0  0  0  0  0
    4.9685    1.7786   17.0029 H   0  0  0  0  0  0  0  0  0  0  0  0
    3.8704    1.8423   19.2402 H   0  0  0  0  0  0  0  0  0  0  0  0
    4.9824    0.6527   21.1782 H   0  0  0  0  0  0  0  0  0  0  0  0
    6.8697   -0.8032   22.2265 N   0  0  0  0  0  0  0  0  0  0  0  0
    9.6028   -2.6048   22.9071 H   0  0  0  0  0  0  0  0  0  0  0  0
    6.7321   -0.8392   24.8022 H   0  0  0  0  0  0  0  0  0  0  0  0
    8.1652   -1.8676   25.1047 H   0  0  0  0  0  0  0  0  0  0  0  0
    5.1887   -2.9291   24.3142 N   0  0  0  0  0  0  0  0  0  0  0  0
    4.3756   -4.0439   24.0844 C   0  0  0  0  0  0  0  0  0  0  0  0
    4.8445   -5.1373   23.4000 C   0  0  0  0  0  0  0  0  0  0  0  0
    3.9862   -6.2434   23.2109 C   0  0  0  0  0  0  0  0  0  0  0  0
    2.7466   -6.3012   23.6537 N   0  0  0  0  0  0  0  0  0  0  0  0
    2.2754   -5.2210   24.3291 C   0  0  0  0  0  0  0  0  0  0  0  0
    0.9526   -5.2953   24.8094 C   0  0  0  0  0  0  0  0  0  0  0  0
    0.4574   -4.2246   25.4999 C   0  0  0  0  0  0  0  0  0  0  0  0
    1.1747   -3.0987   25.7484 N   0  0  0  0  0  0  0  0  0  0  0  0
    2.4154   -3.0213   25.3096 C   0  0  0  0  0  0  0  0  0  0  0  0
    3.0436   -4.0500   24.5690 C   0  0  0  0  0  0  0  0  0  0  0  0
    2.9490   -2.1033   25.5675 H   0  0  0  0  0  0  0  0  0  0  0  0
   -0.5579   -4.2228   25.8941 H   0  0  0  0  0  0  0  0  0  0  0  0
    0.4063   -6.2069   24.6048 H   0  0  0  0  0  0  0  0  0  0  0  0
    4.3431   -7.1278   22.6799 H   0  0  0  0  0  0  0  0  0  0  0  0
    5.8590   -5.1502   23.0295 H   0  0  0  0  0  0  0  0  0  0  0  0
    4.8514   -2.0353   23.9978 H   0  0  0  0  0  0  0  0  0  0  0  0
  1  2  2  0
  2  3  1  0
  3  4  1  0
  4  5  2  0
  5  6  1  0
  6  7  1  0
  7  8  1  0
  8  9  2  0
  9 10  1  0
 10 11  2  0
 11 12  1  0
 12 13  2  0
 13 14  1  0
 11 15  1  0
 10 16  1  0
  9 17  1  0
  7 18  2  0
  5 19  1  0
  3 20  1  0
  3 21  1  0
  2 22  1  0
 22 23  1  0
 23 24  2  0
 24 25  1  0
 25 26  2  0
 26 27  1  0
 27 28  2  0
 28 29  1  0
 29 30  2  0
 30 31  1  0
 31 32  2  0
 31 33  1  0
 29 34  1  0
 28 35  1  0
 25 36  1  0
 24 37  1  0
 22 38  1  0
 18  4  1  0
 32 23  1  0
 13  8  1  0
 32 27  1  0
M  END
>  <cnnaffinity>  (1) 
-6.05734

>  <filename>  (1) 
O=C(Cc1csc(-c2cccnc2)n1)Nc1ccnc2ccncc12

$$$$
