
     RDKit          3D

 31 33  0  0  0  0  0  0  0  0999 V2000
    4.9417    1.7973   17.0226 H   0  0  0  0  0  0  0  0  0  0  0  0
    5.4083    1.2775   17.8562 C   0  0  0  0  0  0  0  0  0  0  0  0
    6.5607    0.6465   17.5788 N   0  0  0  0  0  0  0  0  0  0  0  0
    7.1874    0.0279   18.5848 C   0  0  0  0  0  0  0  0  0  0  0  0
    8.1445   -0.4377   18.3638 H   0  0  0  0  0  0  0  0  0  0  0  0
    6.6822   -0.0214   19.8999 C   0  0  0  0  0  0  0  0  0  0  0  0
    7.3735   -0.6936   20.9438 N   0  0  0  0  0  0  0  0  0  0  0  0
    6.6614   -1.2454   21.9796 N   0  0  0  0  0  0  0  0  0  0  0  0
    7.5187   -1.7444   22.8286 C   0  0  0  0  0  0  0  0  0  0  0  0
    7.1800   -2.3858   24.1588 C   0  0  0  0  0  0  0  0  0  0  0  0
    8.0785   -2.5603   24.9714 O   0  0  0  0  0  0  0  0  0  0  0  0
    5.7700   -2.7916   24.4980 C   0  0  0  0  0  0  0  0  0  0  0  0
    5.3261   -2.6418   25.8270 C   0  0  0  0  0  0  0  0  0  0  0  0
    6.0047   -2.2366   26.5745 H   0  0  0  0  0  0  0  0  0  0  0  0
    4.0176   -2.9702   26.1842 C   0  0  0  0  0  0  0  0  0  0  0  0
    3.6277   -2.7568   27.1740 H   0  0  0  0  0  0  0  0  0  0  0  0
    3.1735   -3.5352   25.2225 C   0  0  0  0  0  0  0  0  0  0  0  0
    1.5010   -3.8261   25.6090 Cl  0  0  0  0  0  0  0  0  0  0  0  0
    3.6322   -3.8061   23.9326 C   0  0  0  0  0  0  0  0  0  0  0  0
    2.9777   -4.3103   23.2325 H   0  0  0  0  0  0  0  0  0  0  0  0
    4.9019   -3.3607   23.5500 C   0  0  0  0  0  0  0  0  0  0  0  0
    5.2113   -3.3918   22.5078 H   0  0  0  0  0  0  0  0  0  0  0  0
    8.9417   -1.5683   22.3722 C   0  0  0  0  0  0  0  0  0  0  0  0
    9.4536   -2.5132   22.1524 H   0  0  0  0  0  0  0  0  0  0  0  0
    9.5908   -1.0212   23.0663 H   0  0  0  0  0  0  0  0  0  0  0  0
    8.7572   -0.8027   21.0841 C   0  0  0  0  0  0  0  0  0  0  0  0
    9.5988   -0.3949   20.3193 O   0  0  0  0  0  0  0  0  0  0  0  0
    5.4673    0.6178   20.1747 C   0  0  0  0  0  0  0  0  0  0  0  0
    5.0732    0.5622   21.1903 H   0  0  0  0  0  0  0  0  0  0  0  0
    4.8241    1.2892   19.1305 C   0  0  0  0  0  0  0  0  0  0  0  0
    3.8920    1.8240   19.2858 H   0  0  0  0  0  0  0  0  0  0  0  0
  1  2  1  0
  2  3  2  0
  3  4  1  0
  4  5  1  0
  4  6  2  0
  6  7  1  0
  7  8  1  0
  8  9  2  0
  9 10  1  0
 10 11  2  0
 10 12  1  0
 12 13  2  0
 13 14  1  0
 13 15  1  0
 15 16  1  0
 15 17  2  0
 17 18  1  0
 17 19  1  0
 19 20  1  0
 19 21  2  0
 21 22  1  0
  9 23  1  0
 23 24  1  0
 23 25  1  0
 23 26  1  0
 26 27  2  0
  6 28  1  0
 28 29  1  0
 28 30  2  0
 30 31  1  0
 30  2  1  0
 26  7  1  0
 21 12  1  0
M  END
>  <cnnaffinity>  (1) 
-4.5848

>  <filename>  (1) 
O=C(C1=NN(c2cccnc2)C(=O)C1)c1ccc(Cl)cc1

$$$$
