
     RDKit          3D

 29 30  0  0  0  0  0  0  0  0999 V2000
    7.1180   -3.1649   23.1980 H   0  0  0  0  0  0  0  0  0  0  0  0
    7.8190   -2.6711   22.7459 O   0  0  0  0  0  0  0  0  0  0  0  0
    7.7855   -1.3203   23.2270 C   0  0  2  0  0  0  0  0  0  0  0  0
    7.1633   -1.2429   24.1269 H   0  0  0  0  0  0  0  0  0  0  0  0
    7.1069   -0.3038   22.2471 C   0  0  0  0  0  0  0  0  0  0  0  0
    6.5641    0.6819   22.7032 O   0  0  0  0  0  0  0  0  0  0  0  0
    7.2057   -0.6075   20.9166 N   0  0  0  0  0  0  0  0  0  0  0  0
    7.7424   -1.4405   20.7329 H   0  0  0  0  0  0  0  0  0  0  0  0
    6.5939    0.0737   19.8400 C   0  0  0  0  0  0  0  0  0  0  0  0
    7.1443    0.0495   18.5369 C   0  0  0  0  0  0  0  0  0  0  0  0
    8.0757   -0.4907   18.3558 H   0  0  0  0  0  0  0  0  0  0  0  0
    6.5826    0.6596   17.4850 N   0  0  0  0  0  0  0  0  0  0  0  0
    5.4249    1.3123   17.6909 C   0  0  0  0  0  0  0  0  0  0  0  0
    4.9795    1.7843   16.8200 H   0  0  0  0  0  0  0  0  0  0  0  0
    4.7927    1.3783   18.9369 C   0  0  0  0  0  0  0  0  0  0  0  0
    3.8503    1.9045   19.0500 H   0  0  0  0  0  0  0  0  0  0  0  0
    5.3932    0.7621   20.0384 C   0  0  0  0  0  0  0  0  0  0  0  0
    4.9663    0.8029   21.0361 H   0  0  0  0  0  0  0  0  0  0  0  0
    9.1680   -0.8077   23.6019 C   0  0  0  0  0  0  0  0  0  0  0  0
    9.3607   -0.1722   24.8456 C   0  0  0  0  0  0  0  0  0  0  0  0
    8.5279   -0.0722   25.5421 H   0  0  0  0  0  0  0  0  0  0  0  0
   10.6036    0.3306   25.2292 C   0  0  0  0  0  0  0  0  0  0  0  0
   10.7588    0.7830   26.2007 H   0  0  0  0  0  0  0  0  0  0  0  0
   11.6709    0.2272   24.3384 C   0  0  0  0  0  0  0  0  0  0  0  0
   13.2528    0.7040   24.8354 Cl  0  0  0  0  0  0  0  0  0  0  0  0
   11.5070   -0.3120   23.0692 C   0  0  0  0  0  0  0  0  0  0  0  0
   12.3260   -0.3357   22.3599 H   0  0  0  0  0  0  0  0  0  0  0  0
   10.2665   -0.8366   22.7228 C   0  0  0  0  0  0  0  0  0  0  0  0
   10.1866   -1.5479   21.1414 Cl  0  0  0  0  0  0  0  0  0  0  0  0
  1  2  1  0
  2  3  1  0
  3  4  1  1
  3  5  1  0
  5  6  2  0
  5  7  1  0
  7  8  1  0
  7  9  1  0
  9 10  2  0
 10 11  1  0
 10 12  1  0
 12 13  2  0
 13 14  1  0
 13 15  1  0
 15 16  1  0
 15 17  2  0
 17 18  1  0
  3 19  1  0
 19 20  2  0
 20 21  1  0
 20 22  1  0
 22 23  1  0
 22 24  2  0
 24 25  1  0
 24 26  1  0
 26 27  1  0
 26 28  2  0
 28 29  1  0
 17  9  1  0
 28 19  1  0
M  END
>  <cnnaffinity>  (1) 
-4.85269

>  <filename>  (1) 
O=C(Nc1cccnc1)[C@@H](O)c1ccc(Cl)cc1Cl

$$$$
