
     RDKit          3D

 30 31  0  0  0  0  0  0  0  0999 V2000
    4.9728   -2.6601   27.3077 H   0  0  0  0  0  0  0  0  0  0  0  0
    5.0817   -2.5328   26.3462 O   0  0  0  0  0  0  0  0  0  0  0  0
    4.2039   -3.4492   25.9303 C   0  0  0  0  0  0  0  0  0  0  0  0
    3.5226   -4.0283   26.7443 O   0  0  0  0  0  0  0  0  0  0  0  0
    4.0286   -3.6342   24.4135 C   0  0  0  0  0  0  0  0  0  0  0  0
    2.8205   -4.0872   23.9995 O   0  0  0  0  0  0  0  0  0  0  0  0
    2.1584   -4.0975   24.7085 H   0  0  0  0  0  0  0  0  0  0  0  0
    4.9169   -3.3296   23.4429 C   0  0  0  0  0  0  0  0  0  0  0  0
    4.5200   -3.1054   22.4543 H   0  0  0  0  0  0  0  0  0  0  0  0
    6.3562   -3.1422   23.6792 C   0  0  0  0  0  0  0  0  0  0  0  0
    6.9164   -3.7023   24.6110 O   0  0  0  0  0  0  0  0  0  0  0  0
    7.1862   -2.2357   22.7554 C   0  0  0  0  0  0  0  0  0  0  0  0
    6.5998   -1.5341   21.7259 N   0  0  0  0  0  0  0  0  0  0  0  0
    7.3233   -0.7343   20.9617 C   0  0  0  0  0  0  0  0  0  0  0  0
    6.6162    0.0101   19.8926 C   0  0  0  0  0  0  0  0  0  0  0  0
    7.1403    0.0548   18.5887 C   0  0  0  0  0  0  0  0  0  0  0  0
    8.0932   -0.4286   18.3740 H   0  0  0  0  0  0  0  0  0  0  0  0
    6.5404    0.6663   17.5616 N   0  0  0  0  0  0  0  0  0  0  0  0
    5.3864    1.3006   17.8082 C   0  0  0  0  0  0  0  0  0  0  0  0
    4.9356    1.8291   16.9703 H   0  0  0  0  0  0  0  0  0  0  0  0
    4.7734    1.3233   19.0655 C   0  0  0  0  0  0  0  0  0  0  0  0
    3.8498    1.8759   19.2042 H   0  0  0  0  0  0  0  0  0  0  0  0
    5.3862    0.6506   20.1218 C   0  0  0  0  0  0  0  0  0  0  0  0
    4.9245    0.6204   21.1093 H   0  0  0  0  0  0  0  0  0  0  0  0
    8.8184   -0.5830   21.1832 C   0  0  0  0  0  0  0  0  0  0  0  0
    9.6373    0.0950   20.5786 O   0  0  0  0  0  0  0  0  0  0  0  0
    9.2989   -1.3400   22.2539 N   0  0  0  0  0  0  0  0  0  0  0  0
   10.2957   -1.1805   22.3631 H   0  0  0  0  0  0  0  0  0  0  0  0
    8.5333   -2.1458   23.0410 C   0  0  0  0  0  0  0  0  0  0  0  0
    9.0009   -2.6857   23.8617 H   0  0  0  0  0  0  0  0  0  0  0  0
  1  2  1  0
  2  3  1  0
  3  4  2  0
  3  5  1  0
  5  6  1  0
  6  7  1  0
  5  8  2  3
  8  9  1  0
  8 10  1  0
 10 11  2  0
 10 12  1  0
 12 13  1  0
 13 14  2  0
 14 15  1  0
 15 16  2  0
 16 17  1  0
 16 18  1  0
 18 19  2  0
 19 20  1  0
 19 21  1  0
 21 22  1  0
 21 23  2  0
 23 24  1  0
 14 25  1  0
 25 26  2  0
 25 27  1  0
 27 28  1  0
 27 29  1  0
 29 30  1  0
 29 12  2  0
 23 15  1  0
M  END
>  <cnnaffinity>  (1) 
-4.78163

>  <filename>  (1) 
O=C(O)C(O)=CC(=O)c1c[nH]c(=O)c(-c2cccnc2)n1

$$$$
