
     RDKit          3D

 43 45  0  0  0  0  0  0  0  0999 V2000
    5.7408   -2.0270   21.4512 O   0  0  0  0  0  0  0  0  0  0  0  0
    6.7954   -1.4697   21.7687 C   0  0  0  0  0  0  0  0  0  0  0  0
    7.4127   -0.6624   20.8184 N   0  0  0  0  0  0  0  0  0  0  0  0
    6.7324   -0.0071   19.7724 C   0  0  0  0  0  0  0  0  0  0  0  0
    5.5089    0.5917   20.0673 C   0  0  0  0  0  0  0  0  0  0  0  0
    4.8407    1.2701   19.0422 C   0  0  0  0  0  0  0  0  0  0  0  0
    5.4084    1.3334   17.7588 C   0  0  0  0  0  0  0  0  0  0  0  0
    6.5922    0.7647   17.4602 N   0  0  0  0  0  0  0  0  0  0  0  0
    7.2370    0.1145   18.4541 C   0  0  0  0  0  0  0  0  0  0  0  0
    8.1947   -0.3392   18.2256 H   0  0  0  0  0  0  0  0  0  0  0  0
    4.8653    1.8569   16.9765 H   0  0  0  0  0  0  0  0  0  0  0  0
    3.8911    1.7600   19.2308 H   0  0  0  0  0  0  0  0  0  0  0  0
    5.1134    0.5480   21.0829 H   0  0  0  0  0  0  0  0  0  0  0  0
    8.4105   -0.5097   20.9244 H   0  0  0  0  0  0  0  0  0  0  0  0
    7.5917   -1.8269   23.0804 C   0  0  0  0  0  0  0  0  0  0  0  0
    7.9270   -3.3337   22.9439 C   0  0  0  0  0  0  0  0  0  0  0  0
    8.7663   -3.8799   24.0976 C   0  0  0  0  0  0  0  0  0  0  0  0
    8.0216   -3.6287   25.4053 C   0  0  0  0  0  0  0  0  0  0  0  0
    7.7688   -2.1378   25.6077 C   0  0  0  0  0  0  0  0  0  0  0  0
    7.0192   -1.5615   24.4645 N   0  0  0  0  0  0  0  0  0  0  0  0
    6.5075    0.0879   24.8937 S   0  0  0  0  0  0  0  0  0  0  0  0
    5.3831    0.5417   24.0591 O   0  0  0  0  0  0  0  0  0  0  0  0
    6.2056    0.1664   26.3368 O   0  0  0  0  0  0  0  0  0  0  0  0
    7.9750    1.0752   24.4695 C   0  0  0  0  0  0  0  0  0  0  0  0
    8.0419    1.7454   23.2314 C   0  0  0  0  0  0  0  0  0  0  0  0
    9.1507    2.5376   22.9322 C   0  0  0  0  0  0  0  0  0  0  0  0
   10.2093    2.6540   23.8358 C   0  0  0  0  0  0  0  0  0  0  0  0
   11.7116    3.7681   23.4360 Br  0  0  0  0  0  0  0  0  0  0  0  0
   10.1622    1.9395   25.0343 C   0  0  0  0  0  0  0  0  0  0  0  0
    9.0457    1.1786   25.3723 C   0  0  0  0  0  0  0  0  0  0  0  0
    9.0299    0.6825   26.3428 H   0  0  0  0  0  0  0  0  0  0  0  0
   11.0033    1.9766   25.7124 H   0  0  0  0  0  0  0  0  0  0  0  0
    9.1915    3.0754   21.9913 H   0  0  0  0  0  0  0  0  0  0  0  0
    7.2374    1.6833   22.4964 H   0  0  0  0  0  0  0  0  0  0  0  0
    8.7333   -1.6258   25.7299 H   0  0  0  0  0  0  0  0  0  0  0  0
    7.1976   -2.0225   26.5403 H   0  0  0  0  0  0  0  0  0  0  0  0
    7.0603   -4.1530   25.3828 H   0  0  0  0  0  0  0  0  0  0  0  0
    8.6044   -4.0269   26.2420 H   0  0  0  0  0  0  0  0  0  0  0  0
    9.7471   -3.3906   24.1187 H   0  0  0  0  0  0  0  0  0  0  0  0
    8.9263   -4.9579   23.9648 H   0  0  0  0  0  0  0  0  0  0  0  0
    8.4712   -3.5049   22.0098 H   0  0  0  0  0  0  0  0  0  0  0  0
    6.9999   -3.9161   22.8973 H   0  0  0  0  0  0  0  0  0  0  0  0
    8.5360   -1.2687   23.0185 H   0  0  0  0  0  0  0  0  0  0  0  0
  1  2  2  0
  2  3  1  0
  3  4  1  0
  4  5  2  0
  5  6  1  0
  6  7  2  0
  7  8  1  0
  8  9  2  0
  9 10  1  0
  7 11  1  0
  6 12  1  0
  5 13  1  0
  3 14  1  0
  2 15  1  0
 15 16  1  0
 16 17  1  0
 17 18  1  0
 18 19  1  0
 19 20  1  0
 20 21  1  0
 21 22  2  0
 21 23  2  0
 21 24  1  0
 24 25  2  0
 25 26  1  0
 26 27  2  0
 27 28  1  0
 27 29  1  0
 29 30  2  0
 30 31  1  0
 29 32  1  0
 26 33  1  0
 25 34  1  0
 19 35  1  0
 19 36  1  0
 18 37  1  0
 18 38  1  0
 17 39  1  0
 17 40  1  0
 16 41  1  0
 16 42  1  0
 15 43  1  0
  9  4  1  0
 20 15  1  0
 30 24  1  0
M  END
>  <cnnaffinity>  (1) 
-6.49944

>  <filename>  (1) 
O=C(Nc1cccnc1)C1CCCCN1S(=O)(=O)c1ccc(Br)cc1

$$$$
