
     RDKit          3D

 34 36  0  0  0  0  0  0  0  0999 V2000
   14.6176   -0.7261   21.4023 H   0  0  0  0  0  0  0  0  0  0  0  0
   13.8707   -0.2412   22.0217 C   0  0  0  0  0  0  0  0  0  0  0  0
   12.6111   -0.6821   21.8203 N   0  0  0  0  0  0  0  0  0  0  0  0
   11.6680   -0.0446   22.4783 C   0  0  0  0  0  0  0  0  0  0  0  0
    9.7907   -0.0167   21.8490 C   0  0  0  0  0  0  0  0  0  0  0  0
    9.7005    0.0410   21.4651 O   0  0  0  0  0  0  0  0  0  0  0  0
    8.3159   -0.3174   23.7626 N   0  0  0  0  0  0  0  0  0  0  0  0
    9.1662   -0.8185   23.9940 H   0  0  0  0  0  0  0  0  0  0  0  0
    7.3642   -0.9728   23.1844 C   0  0  0  0  0  0  0  0  0  0  0  0
    6.5929   -0.2775   22.1937 C   0  0  0  0  0  0  0  0  0  0  0  0
    6.7526    0.7970   22.1269 H   0  0  0  0  0  0  0  0  0  0  0  0
    5.8724   -0.9557   21.1935 C   0  0  0  0  0  0  0  0  0  0  0  0
    5.5776   -0.2076   19.9316 C   0  0  0  0  0  0  0  0  0  0  0  0
    6.5226   -0.2796   18.8879 C   0  0  0  0  0  0  0  0  0  0  0  0
    7.4027   -0.9117   19.0192 H   0  0  0  0  0  0  0  0  0  0  0  0
    6.4306    0.4023   17.7359 N   0  0  0  0  0  0  0  0  0  0  0  0
    5.3748    1.2185   17.6037 C   0  0  0  0  0  0  0  0  0  0  0  0
    5.3143    1.7573   16.6596 H   0  0  0  0  0  0  0  0  0  0  0  0
    4.3853    1.3807   18.5841 C   0  0  0  0  0  0  0  0  0  0  0  0
    3.5710    2.0759   18.4097 H   0  0  0  0  0  0  0  0  0  0  0  0
    4.4902    0.6618   19.7824 C   0  0  0  0  0  0  0  0  0  0  0  0
    3.7530    0.7703   20.5833 H   0  0  0  0  0  0  0  0  0  0  0  0
    5.6586   -2.3120   21.2861 C   0  0  0  0  0  0  0  0  0  0  0  0
    5.1890   -2.8746   20.4886 H   0  0  0  0  0  0  0  0  0  0  0  0
    6.1071   -2.9800   22.4037 N   0  0  0  0  0  0  0  0  0  0  0  0
    5.9168   -3.9497   22.6310 H   0  0  0  0  0  0  0  0  0  0  0  0
    6.9233   -2.4602   23.4091 C   0  0  0  0  0  0  0  0  0  0  0  0
    7.2333   -3.2057   24.3164 O   0  0  0  0  0  0  0  0  0  0  0  0
   11.8403    0.9218   23.4390 C   0  0  0  0  0  0  0  0  0  0  0  0
   10.9828    1.3383   23.9595 H   0  0  0  0  0  0  0  0  0  0  0  0
   13.1547    1.3693   23.6667 C   0  0  0  0  0  0  0  0  0  0  0  0
   13.3780    2.1633   24.3665 H   0  0  0  0  0  0  0  0  0  0  0  0
   14.1771    0.7972   22.9047 C   0  0  0  0  0  0  0  0  0  0  0  0
   15.1803    1.1861   22.9491 H   0  0  0  0  0  0  0  0  0  0  0  0
  1  2  1  0
  2  3  2  0
  3  4  1  0
  4  5  1  0
  5  6  2  0
  5  7  1  0
  7  8  1  0
  7  9  1  0
  9 10  2  0
 10 11  1  0
 10 12  1  0
 12 13  1  0
 13 14  2  0
 14 15  1  0
 14 16  1  0
 16 17  2  0
 17 18  1  0
 17 19  1  0
 19 20  1  0
 19 21  2  0
 21 22  1  0
 12 23  2  0
 23 24  1  0
 23 25  1  0
 25 26  1  0
 25 27  1  0
 27 28  2  0
  4 29  2  0
 29 30  1  0
 29 31  1  0
 31 32  1  0
 31 33  2  0
 33 34  1  0
 33  2  1  0
 27  9  1  0
 21 13  1  0
M  END
>  <cnnaffinity>  (1) 
-5.39876

>  <filename>  (1) 
O=C(Nc1cc(-c2cccnc2)c[nH]c1=O)c1ccccn1

$$$$
