
     RDKit          3D

 33 34  0  0  0  0  0  0  0  0999 V2000
    5.2706   -3.6469   21.7479 O   0  0  0  0  0  0  0  0  0  0  0  0
    6.4055   -3.5070   22.1890 C   0  0  0  0  0  0  0  0  0  0  0  0
    6.7420   -4.0272   23.5072 C   0  0  0  0  0  0  0  0  0  0  0  0
    8.0311   -4.3477   23.8724 C   0  0  0  0  0  0  0  0  0  0  0  0
    8.4223   -4.6971   25.2330 C   0  0  0  0  0  0  0  0  0  0  0  0
    7.4924   -5.0460   26.2309 C   0  0  0  0  0  0  0  0  0  0  0  0
    7.9445   -5.3747   27.5187 C   0  0  0  0  0  0  0  0  0  0  0  0
    6.7484   -5.8537   28.9224 Br  0  0  0  0  0  0  0  0  0  0  0  0
    9.3102   -5.3669   27.7922 C   0  0  0  0  0  0  0  0  0  0  0  0
   10.2303   -4.9797   26.8202 C   0  0  0  0  0  0  0  0  0  0  0  0
    9.7872   -4.6436   25.5471 C   0  0  0  0  0  0  0  0  0  0  0  0
   10.5228   -4.3368   24.8067 H   0  0  0  0  0  0  0  0  0  0  0  0
   11.2900   -4.9153   27.0348 H   0  0  0  0  0  0  0  0  0  0  0  0
    9.6430   -5.6928   28.7650 H   0  0  0  0  0  0  0  0  0  0  0  0
    6.4279   -5.0462   26.0064 H   0  0  0  0  0  0  0  0  0  0  0  0
    8.8194   -4.3024   23.1246 H   0  0  0  0  0  0  0  0  0  0  0  0
    5.9434   -4.0708   24.2343 H   0  0  0  0  0  0  0  0  0  0  0  0
    7.3768   -2.7568   21.5375 N   0  0  0  0  0  0  0  0  0  0  0  0
    7.1442   -1.9751   20.3655 O   0  0  0  0  0  0  0  0  0  0  0  0
    7.3176   -0.5744   20.6112 C   0  0  0  0  0  0  0  0  0  0  0  0
    6.6171    0.2051   19.5374 C   0  0  0  0  0  0  0  0  0  0  0  0
    5.4405    0.9121   19.7974 C   0  0  0  0  0  0  0  0  0  0  0  0
    4.8277    1.5623   18.7293 C   0  0  0  0  0  0  0  0  0  0  0  0
    5.4029    1.5039   17.4563 C   0  0  0  0  0  0  0  0  0  0  0  0
    6.5444    0.8336   17.2130 N   0  0  0  0  0  0  0  0  0  0  0  0
    7.1348    0.1995   18.2379 C   0  0  0  0  0  0  0  0  0  0  0  0
    8.0583   -0.3414   18.0521 H   0  0  0  0  0  0  0  0  0  0  0  0
    4.9143    2.0157   16.6345 H   0  0  0  0  0  0  0  0  0  0  0  0
    3.9095    2.1208   18.8699 H   0  0  0  0  0  0  0  0  0  0  0  0
    5.0100    0.9523   20.7980 H   0  0  0  0  0  0  0  0  0  0  0  0
    6.9027   -0.3180   21.5915 H   0  0  0  0  0  0  0  0  0  0  0  0
    8.3852   -0.3263   20.6233 H   0  0  0  0  0  0  0  0  0  0  0  0
    8.2842   -2.6965   21.9944 H   0  0  0  0  0  0  0  0  0  0  0  0
  1  2  2  0
  2  3  1  0
  3  4  2  3
  4  5  1  0
  5  6  2  0
  6  7  1  0
  7  8  1  0
  7  9  2  0
  9 10  1  0
 10 11  2  0
 11 12  1  0
 10 13  1  0
  9 14  1  0
  6 15  1  0
  4 16  1  0
  3 17  1  0
  2 18  1  0
 18 19  1  0
 19 20  1  0
 20 21  1  0
 21 22  2  0
 22 23  1  0
 23 24  2  0
 24 25  1  0
 25 26  2  0
 26 27  1  0
 24 28  1  0
 23 29  1  0
 22 30  1  0
 20 31  1  0
 20 32  1  0
 18 33  1  0
 11  5  1  0
 26 21  1  0
M  END
>  <cnnaffinity>  (1) 
-4.86829

>  <filename>  (1) 
O=C(C=Cc1cccc(Br)c1)NOCc1cccnc1

$$$$
