
     RDKit          3D

 28 29  0  0  0  0  0  0  0  0999 V2000
    5.2029    1.7680   16.9765 H   0  0  0  0  0  0  0  0  0  0  0  0
    5.5480    1.2315   17.8579 C   0  0  0  0  0  0  0  0  0  0  0  0
    6.6585    0.4935   17.6980 N   0  0  0  0  0  0  0  0  0  0  0  0
    7.1262   -0.1613   18.7620 C   0  0  0  0  0  0  0  0  0  0  0  0
    8.0218   -0.7666   18.6142 H   0  0  0  0  0  0  0  0  0  0  0  0
    6.5380   -0.0834   20.0433 C   0  0  0  0  0  0  0  0  0  0  0  0
    7.1763   -0.7262   21.2222 C   0  0  0  0  0  0  0  0  0  0  0  0
    8.0865   -2.0657   21.1456 S   0  0  0  0  0  0  0  0  0  0  0  0
    7.0010   -0.0040   22.5789 C   0  0  0  0  0  0  0  0  0  0  0  0
    6.6113   -0.5632   23.5774 O   0  0  0  0  0  0  0  0  0  0  0  0
    7.3995    1.4658   22.6054 C   0  0  0  0  0  0  0  0  0  0  0  0
    7.3976    1.8854   21.5960 H   0  0  0  0  0  0  0  0  0  0  0  0
    6.6538    1.9994   23.2039 H   0  0  0  0  0  0  0  0  0  0  0  0
    8.7792    1.6141   23.2091 C   0  0  0  0  0  0  0  0  0  0  0  0
    8.9318    1.6883   24.6015 C   0  0  0  0  0  0  0  0  0  0  0  0
    8.0465    1.5663   25.2274 H   0  0  0  0  0  0  0  0  0  0  0  0
   10.1871    1.9017   25.1772 C   0  0  0  0  0  0  0  0  0  0  0  0
   10.2732    1.9269   26.2575 H   0  0  0  0  0  0  0  0  0  0  0  0
   11.3133    2.0956   24.3649 C   0  0  0  0  0  0  0  0  0  0  0  0
   12.2867    2.3219   24.7928 H   0  0  0  0  0  0  0  0  0  0  0  0
   11.1892    1.9637   22.9770 C   0  0  0  0  0  0  0  0  0  0  0  0
   12.0349    2.0983   22.3077 H   0  0  0  0  0  0  0  0  0  0  0  0
    9.9424    1.6602   22.4237 C   0  0  0  0  0  0  0  0  0  0  0  0
    9.8840    1.2481   20.7399 Cl  0  0  0  0  0  0  0  0  0  0  0  0
    5.3584    0.6689   20.1854 C   0  0  0  0  0  0  0  0  0  0  0  0
    4.8722    0.7626   21.1602 H   0  0  0  0  0  0  0  0  0  0  0  0
    4.8506    1.3258   19.0657 C   0  0  0  0  0  0  0  0  0  0  0  0
    3.9451    1.9176   19.1211 H   0  0  0  0  0  0  0  0  0  0  0  0
  1  2  1  0
  2  3  2  0
  3  4  1  0
  4  5  1  0
  4  6  2  0
  6  7  1  0
  7  8  2  0
  7  9  1  0
  9 10  2  0
  9 11  1  0
 11 12  1  0
 11 13  1  0
 11 14  1  0
 14 15  2  0
 15 16  1  0
 15 17  1  0
 17 18  1  0
 17 19  2  0
 19 20  1  0
 19 21  1  0
 21 22  1  0
 21 23  2  0
 23 24  1  0
  6 25  1  0
 25 26  1  0
 25 27  2  0
 27 28  1  0
 27  2  1  0
 23 14  1  0
M  END
>  <cnnaffinity>  (1) 
-5.26635

>  <filename>  (1) 
O=C(Cc1ccccc1Cl)C(=S)c1cccnc1

$$$$
