
     RDKit          3D

 33 35  0  0  0  0  0  0  0  0999 V2000
    4.9857    1.8090   16.9884 H   0  0  0  0  0  0  0  0  0  0  0  0
    5.4259    1.2894   17.8349 C   0  0  0  0  0  0  0  0  0  0  0  0
    6.5798    0.6437   17.6060 N   0  0  0  0  0  0  0  0  0  0  0  0
    7.1535    0.0251   18.6449 C   0  0  0  0  0  0  0  0  0  0  0  0
    8.0888   -0.4882   18.4145 H   0  0  0  0  0  0  0  0  0  0  0  0
    6.6139    0.0050   19.9406 C   0  0  0  0  0  0  0  0  0  0  0  0
    7.3157   -0.6912   21.0608 C   0  0  0  0  0  0  0  0  0  0  0  0
    6.5505   -1.1934   21.9971 N   0  0  0  0  0  0  0  0  0  0  0  0
    7.1269   -1.8698   23.0534 N   0  0  0  0  0  0  0  0  0  0  0  0
    6.2478   -2.6229   23.9066 C   0  0  0  0  0  0  0  0  0  0  0  0
    5.3902   -3.3470   23.4671 O   0  0  0  0  0  0  0  0  0  0  0  0
    6.5219   -2.3969   25.2357 N   0  0  0  0  0  0  0  0  0  0  0  0
    7.5110   -2.3017   25.3981 H   0  0  0  0  0  0  0  0  0  0  0  0
    5.7497   -2.9212   26.2560 C   0  0  0  0  0  0  0  0  0  0  0  0
    4.3621   -2.9010   26.1729 C   0  0  0  0  0  0  0  0  0  0  0  0
    3.8826   -2.5111   25.2882 H   0  0  0  0  0  0  0  0  0  0  0  0
    3.6457   -3.4092   27.2468 C   0  0  0  0  0  0  0  0  0  0  0  0
    2.5599   -3.4082   27.2154 H   0  0  0  0  0  0  0  0  0  0  0  0
    4.2057   -3.9255   28.3498 N   0  0  0  0  0  0  0  0  0  0  0  0
    5.5423   -3.9399   28.3963 C   0  0  0  0  0  0  0  0  0  0  0  0
    5.9777   -4.3662   29.2962 H   0  0  0  0  0  0  0  0  0  0  0  0
    6.3633   -3.4444   27.3870 C   0  0  0  0  0  0  0  0  0  0  0  0
    7.4419   -3.4843   27.4677 H   0  0  0  0  0  0  0  0  0  0  0  0
    8.5126   -2.0663   23.2393 C   0  0  0  0  0  0  0  0  0  0  0  0
    8.9513   -2.6497   24.2248 O   0  0  0  0  0  0  0  0  0  0  0  0
    9.3224   -1.5008   22.1768 C   0  0  0  0  0  0  0  0  0  0  0  0
   10.3848   -1.6659   22.3131 H   0  0  0  0  0  0  0  0  0  0  0  0
    8.7537   -0.8256   21.1332 C   0  0  0  0  0  0  0  0  0  0  0  0
    9.3737   -0.3688   20.3728 H   0  0  0  0  0  0  0  0  0  0  0  0
    5.3829    0.6525   20.1508 C   0  0  0  0  0  0  0  0  0  0  0  0
    4.9217    0.6270   21.1392 H   0  0  0  0  0  0  0  0  0  0  0  0
    4.7912    1.3170   19.0797 C   0  0  0  0  0  0  0  0  0  0  0  0
    3.8624    1.8627   19.2031 H   0  0  0  0  0  0  0  0  0  0  0  0
  1  2  1  0
  2  3  2  0
  3  4  1  0
  4  5  1  0
  4  6  2  0
  6  7  1  0
  7  8  2  0
  8  9  1  0
  9 10  1  0
 10 11  2  0
 10 12  1  0
 12 13  1  0
 12 14  1  0
 14 15  2  0
 15 16  1  0
 15 17  1  0
 17 18  1  0
 17 19  2  0
 19 20  1  0
 20 21  1  0
 20 22  2  0
 22 23  1  0
  9 24  1  0
 24 25  2  0
 24 26  1  0
 26 27  1  0
 26 28  2  0
 28 29  1  0
  6 30  1  0
 30 31  1  0
 30 32  2  0
 32 33  1  0
 32  2  1  0
 28  7  1  0
 22 14  1  0
M  END
>  <cnnaffinity>  (1) 
-5.16181

>  <filename>  (1) 
O=C(Nc1ccncc1)n1nc(-c2cccnc2)ccc1=O

$$$$
