
     RDKit          3D

 30 32  0  0  0  0  0  0  0  0999 V2000
    4.9624    1.8674   16.7765 H   0  0  0  0  0  0  0  0  0  0  0  0
    5.4532    1.3534   17.5981 C   0  0  0  0  0  0  0  0  0  0  0  0
    6.5272    0.6109   17.2863 N   0  0  0  0  0  0  0  0  0  0  0  0
    7.1568   -0.0412   18.2736 C   0  0  0  0  0  0  0  0  0  0  0  0
    8.0345   -0.6153   17.9778 H   0  0  0  0  0  0  0  0  0  0  0  0
    6.7393    0.0060   19.6204 C   0  0  0  0  0  0  0  0  0  0  0  0
    7.3813   -0.7105   20.6789 N   0  0  0  0  0  0  0  0  0  0  0  0
    8.7179   -0.7930   20.9906 C   0  0  0  0  0  0  0  0  0  0  0  0
    9.4706   -0.3362   20.3640 H   0  0  0  0  0  0  0  0  0  0  0  0
    8.9377   -1.4538   22.0902 N   0  0  0  0  0  0  0  0  0  0  0  0
    7.6838   -1.8116   22.5750 C   0  0  0  0  0  0  0  0  0  0  0  0
    7.3758   -2.5228   23.8770 C   0  0  0  0  0  0  0  0  0  0  0  0
    6.2172   -2.5940   24.2672 O   0  0  0  0  0  0  0  0  0  0  0  0
    8.4786   -3.1382   24.7138 C   0  0  0  0  0  0  0  0  0  0  0  0
    9.7181   -3.5232   24.1683 C   0  0  0  0  0  0  0  0  0  0  0  0
    9.9388   -3.3220   23.1198 H   0  0  0  0  0  0  0  0  0  0  0  0
   10.6605   -4.1643   24.9722 C   0  0  0  0  0  0  0  0  0  0  0  0
   11.6245   -4.4363   24.5461 H   0  0  0  0  0  0  0  0  0  0  0  0
   10.3818   -4.4378   26.3172 C   0  0  0  0  0  0  0  0  0  0  0  0
   11.1093   -4.9637   26.9277 H   0  0  0  0  0  0  0  0  0  0  0  0
    9.1742   -4.0152   26.8865 C   0  0  0  0  0  0  0  0  0  0  0  0
    8.9726   -4.2051   27.9422 H   0  0  0  0  0  0  0  0  0  0  0  0
    8.2281   -3.3760   26.0857 C   0  0  0  0  0  0  0  0  0  0  0  0
    7.2776   -3.0729   26.5177 H   0  0  0  0  0  0  0  0  0  0  0  0
    6.7258   -1.3599   21.7040 C   0  0  0  0  0  0  0  0  0  0  0  0
    5.6527   -1.4883   21.7232 H   0  0  0  0  0  0  0  0  0  0  0  0
    5.6252    0.7963   19.9272 C   0  0  0  0  0  0  0  0  0  0  0  0
    5.3078    0.8825   20.9658 H   0  0  0  0  0  0  0  0  0  0  0  0
    4.9713    1.4784   18.9044 C   0  0  0  0  0  0  0  0  0  0  0  0
    4.1148    2.1069   19.1160 H   0  0  0  0  0  0  0  0  0  0  0  0
  1  2  1  0
  2  3  2  0
  3  4  1  0
  4  5  1  0
  4  6  2  0
  6  7  1  0
  7  8  1  0
  8  9  1  0
  8 10  2  0
 10 11  1  0
 11 12  1  0
 12 13  2  0
 12 14  1  0
 14 15  2  0
 15 16  1  0
 15 17  1  0
 17 18  1  0
 17 19  2  0
 19 20  1  0
 19 21  1  0
 21 22  1  0
 21 23  2  0
 23 24  1  0
 11 25  2  0
 25 26  1  0
  6 27  1  0
 27 28  1  0
 27 29  2  0
 29 30  1  0
 29  2  1  0
 25  7  1  0
 23 14  1  0
M  END
>  <cnnaffinity>  (1) 
-4.65548

>  <filename>  (1) 
O=C(c1ccccc1)c1cn(-c2cccnc2)cn1

$$$$
