
     RDKit          3D

 44 46  0  0  0  0  0  0  0  0999 V2000
    7.6761    1.1781   24.8191 O   0  0  0  0  0  0  0  0  0  0  0  0
    7.1967    0.7344   25.8510 C   0  0  0  0  0  0  0  0  0  0  0  0
    6.5215   -0.4540   25.9026 N   0  0  0  0  0  0  0  0  0  0  0  0
    6.2087   -1.2984   24.7508 C   0  0  0  0  0  0  0  0  0  0  0  0
    7.1095   -2.5367   24.4299 C   0  0  0  0  0  0  0  0  0  0  0  0
    7.5894   -3.2326   25.3048 O   0  0  0  0  0  0  0  0  0  0  0  0
    7.2558   -2.8787   23.1058 N   0  0  0  0  0  0  0  0  0  0  0  0
    8.0510   -4.0761   22.7593 C   0  0  0  0  0  0  0  0  0  0  0  0
    8.0167   -4.0904   21.2346 C   0  0  0  0  0  0  0  0  0  0  0  0
    6.6779   -3.4215   20.9203 C   0  0  0  0  0  0  0  0  0  0  0  0
    6.6238   -2.2664   21.9260 C   0  0  0  0  0  0  0  0  0  0  0  0
    7.3517   -0.9853   21.4480 C   0  0  0  0  0  0  0  0  0  0  0  0
    6.7117   -0.2966   20.2519 C   0  0  0  0  0  0  0  0  0  0  0  0
    5.5155    0.4268   20.3877 C   0  0  0  0  0  0  0  0  0  0  0  0
    4.9935    1.0960   19.2778 C   0  0  0  0  0  0  0  0  0  0  0  0
    5.6657    1.0008   18.0548 C   0  0  0  0  0  0  0  0  0  0  0  0
    6.7860    0.2861   17.8842 N   0  0  0  0  0  0  0  0  0  0  0  0
    7.2806   -0.3392   18.9622 C   0  0  0  0  0  0  0  0  0  0  0  0
    8.1930   -0.9125   18.7932 H   0  0  0  0  0  0  0  0  0  0  0  0
    5.2931    1.5206   17.1732 H   0  0  0  0  0  0  0  0  0  0  0  0
    4.0940    1.6973   19.3479 H   0  0  0  0  0  0  0  0  0  0  0  0
    5.0072    0.4701   21.3553 H   0  0  0  0  0  0  0  0  0  0  0  0
    8.3949   -1.2382   21.2252 H   0  0  0  0  0  0  0  0  0  0  0  0
    7.4067   -0.2796   22.2853 H   0  0  0  0  0  0  0  0  0  0  0  0
    5.5801   -2.0174   22.1275 H   0  0  0  0  0  0  0  0  0  0  0  0
    6.5734   -3.0719   19.8909 H   0  0  0  0  0  0  0  0  0  0  0  0
    5.8521   -4.1153   21.1172 H   0  0  0  0  0  0  0  0  0  0  0  0
    8.1219   -5.0908   20.8021 H   0  0  0  0  0  0  0  0  0  0  0  0
    8.8436   -3.4762   20.8546 H   0  0  0  0  0  0  0  0  0  0  0  0
    9.0656   -4.0013   23.1661 H   0  0  0  0  0  0  0  0  0  0  0  0
    7.6013   -4.9798   23.1920 H   0  0  0  0  0  0  0  0  0  0  0  0
    5.2121   -1.7189   24.9149 H   0  0  0  0  0  0  0  0  0  0  0  0
    6.1523   -0.6619   23.8677 H   0  0  0  0  0  0  0  0  0  0  0  0
    6.0657   -0.6445   26.7788 H   0  0  0  0  0  0  0  0  0  0  0  0
    7.2406    1.4936   27.1897 C   0  0  0  0  0  0  0  0  0  0  0  0
    7.3212    0.8635   28.4482 C   0  0  0  0  0  0  0  0  0  0  0  0
    7.3626    1.6319   29.6181 C   0  0  0  0  0  0  0  0  0  0  0  0
    7.3090    2.9726   29.6238 N   0  0  0  0  0  0  0  0  0  0  0  0
    7.2340    3.5817   28.4320 C   0  0  0  0  0  0  0  0  0  0  0  0
    7.2125    2.8992   27.2091 C   0  0  0  0  0  0  0  0  0  0  0  0
    7.1697    3.4675   26.2873 H   0  0  0  0  0  0  0  0  0  0  0  0
    7.1924    4.6718   28.4482 H   0  0  0  0  0  0  0  0  0  0  0  0
    7.4169    1.1385   30.5890 H   0  0  0  0  0  0  0  0  0  0  0  0
    7.3742   -0.2134   28.5294 H   0  0  0  0  0  0  0  0  0  0  0  0
  1  2  2  0
  2  3  1  0
  3  4  1  0
  4  5  1  0
  5  6  2  0
  5  7  1  0
  7  8  1  0
  8  9  1  0
  9 10  1  0
 10 11  1  0
 11 12  1  0
 12 13  1  0
 13 14  2  0
 14 15  1  0
 15 16  2  0
 16 17  1  0
 17 18  2  0
 18 19  1  0
 16 20  1  0
 15 21  1  0
 14 22  1  0
 12 23  1  0
 12 24  1  0
 11 25  1  0
 10 26  1  0
 10 27  1  0
  9 28  1  0
  9 29  1  0
  8 30  1  0
  8 31  1  0
  4 32  1  0
  4 33  1  0
  3 34  1  0
  2 35  1  0
 35 36  2  0
 36 37  1  0
 37 38  2  0
 38 39  1  0
 39 40  2  0
 40 41  1  0
 39 42  1  0
 37 43  1  0
 36 44  1  0
 11  7  1  0
 18 13  1  0
 40 35  1  0
M  END
>  <cnnaffinity>  (1) 
-5.27205

>  <filename>  (1) 
O=C(NCC(=O)N1CCCC1Cc1cccnc1)c1ccncc1

$$$$
