
     RDKit          3D

 28 29  0  0  0  0  0  0  0  0999 V2000
    6.4170   -0.5550   22.2055 O   0  0  0  0  0  0  0  0  0  0  0  0
    6.9198   -0.6512   21.0983 C   0  0  0  0  0  0  0  0  0  0  0  0
    8.0588   -1.4195   20.9341 N   0  0  0  0  0  0  0  0  0  0  0  0
    8.7041   -2.0895   21.9707 C   0  0  0  0  0  0  0  0  0  0  0  0
   10.0786   -2.2874   21.8958 C   0  0  0  0  0  0  0  0  0  0  0  0
   10.7448   -2.9896   22.9089 C   0  0  0  0  0  0  0  0  0  0  0  0
   10.0253   -3.5448   23.9733 C   0  0  0  0  0  0  0  0  0  0  0  0
   10.9277   -4.6565   25.2470 Br  0  0  0  0  0  0  0  0  0  0  0  0
    8.6440   -3.3123   24.0937 C   0  0  0  0  0  0  0  0  0  0  0  0
    7.9021   -3.9200   25.2772 C   0  0  0  0  0  0  0  0  0  0  0  0
    7.8820   -5.2735   25.1622 F   0  0  0  0  0  0  0  0  0  0  0  0
    8.5348   -3.6088   26.4382 F   0  0  0  0  0  0  0  0  0  0  0  0
    6.6177   -3.4796   25.3469 F   0  0  0  0  0  0  0  0  0  0  0  0
    7.9926   -2.5597   23.0851 C   0  0  0  0  0  0  0  0  0  0  0  0
    6.9283   -2.3392   23.1178 H   0  0  0  0  0  0  0  0  0  0  0  0
   11.8175   -3.1543   22.8597 H   0  0  0  0  0  0  0  0  0  0  0  0
   10.6266   -1.8962   21.0423 H   0  0  0  0  0  0  0  0  0  0  0  0
    8.5121   -1.3880   20.0271 H   0  0  0  0  0  0  0  0  0  0  0  0
    6.3588    0.0596   19.9637 C   0  0  0  0  0  0  0  0  0  0  0  0
    5.2254    0.8890   20.0329 C   0  0  0  0  0  0  0  0  0  0  0  0
    4.8114    1.4950   18.8478 C   0  0  0  0  0  0  0  0  0  0  0  0
    5.5169    1.2621   17.6628 C   0  0  0  0  0  0  0  0  0  0  0  0
    6.6031    0.4711   17.6110 N   0  0  0  0  0  0  0  0  0  0  0  0
    7.0073   -0.1090   18.7454 C   0  0  0  0  0  0  0  0  0  0  0  0
    7.8838   -0.7487   18.7142 H   0  0  0  0  0  0  0  0  0  0  0  0
    5.1781    1.7433   16.7518 H   0  0  0  0  0  0  0  0  0  0  0  0
    3.9518    2.1590   18.8264 H   0  0  0  0  0  0  0  0  0  0  0  0
    4.6786    1.0766   20.9616 H   0  0  0  0  0  0  0  0  0  0  0  0
  1  2  2  0
  2  3  1  0
  3  4  1  0
  4  5  2  0
  5  6  1  0
  6  7  2  0
  7  8  1  0
  7  9  1  0
  9 10  1  0
 10 11  1  0
 10 12  1  0
 10 13  1  0
  9 14  2  0
 14 15  1  0
  6 16  1  0
  5 17  1  0
  3 18  1  0
  2 19  1  0
 19 20  2  0
 20 21  1  0
 21 22  2  0
 22 23  1  0
 23 24  2  0
 24 25  1  0
 22 26  1  0
 21 27  1  0
 20 28  1  0
 14  4  1  0
 24 19  1  0
M  END
>  <cnnaffinity>  (1) 
-5.20388

>  <filename>  (1) 
O=C(Nc1ccc(Br)c(C(F)(F)F)c1)c1cccnc1

$$$$
