
     RDKit          3D

 36 37  0  0  0  0  0  0  0  0999 V2000
    7.0239    0.8906   22.6219 O   0  0  0  0  0  0  0  0  0  0  0  0
    7.4140   -0.1999   22.2683 C   0  0  0  0  0  0  0  0  0  0  0  0
    7.9746   -1.2144   23.2462 C   0  0  0  0  0  0  0  0  0  0  0  0
    6.9147   -2.2385   23.6971 C   0  0  0  0  0  0  0  0  0  0  0  0
    7.4267   -3.2080   24.7770 C   0  0  0  0  0  0  0  0  0  0  0  0
    6.3589   -4.2050   25.1796 C   0  0  0  0  0  0  0  0  0  0  0  0
    6.1965   -5.3929   24.4499 C   0  0  0  0  0  0  0  0  0  0  0  0
    5.1596   -6.2753   24.7777 C   0  0  0  0  0  0  0  0  0  0  0  0
    4.9277   -7.5667   23.9562 C   0  0  0  0  0  0  0  0  0  0  0  0
    5.6909   -7.8412   22.9957 O   0  0  0  0  0  0  0  0  0  0  0  0
    3.9683   -8.3079   24.2968 O   0  0  0  0  0  1  0  0  0  0  0  0
    4.2848   -6.0054   25.8420 C   0  0  0  0  0  0  0  0  0  0  0  0
    4.4344   -4.8153   26.5594 C   0  0  0  0  0  0  0  0  0  0  0  0
    5.4575   -3.9228   26.2211 C   0  0  0  0  0  0  0  0  0  0  0  0
    5.5554   -2.9904   26.7709 H   0  0  0  0  0  0  0  0  0  0  0  0
    3.7539   -4.5707   27.3749 H   0  0  0  0  0  0  0  0  0  0  0  0
    3.4972   -6.7090   26.1118 H   0  0  0  0  0  0  0  0  0  0  0  0
    6.8901   -5.5953   23.6308 H   0  0  0  0  0  0  0  0  0  0  0  0
    7.7528   -2.6434   25.6621 H   0  0  0  0  0  0  0  0  0  0  0  0
    8.3105   -3.7459   24.4039 H   0  0  0  0  0  0  0  0  0  0  0  0
    6.0424   -1.7037   24.0974 H   0  0  0  0  0  0  0  0  0  0  0  0
    6.5466   -2.8245   22.8395 H   0  0  0  0  0  0  0  0  0  0  0  0
    8.3155   -0.6177   24.0956 H   0  0  0  0  0  0  0  0  0  0  0  0
    8.8494   -1.7242   22.8250 H   0  0  0  0  0  0  0  0  0  0  0  0
    7.3579   -0.6478   20.9663 N   0  0  0  0  0  0  0  0  0  0  0  0
    6.6779   -0.0040   19.8970 C   0  0  0  0  0  0  0  0  0  0  0  0
    5.4617    0.6456   20.1486 C   0  0  0  0  0  0  0  0  0  0  0  0
    4.8109    1.2955   19.0939 C   0  0  0  0  0  0  0  0  0  0  0  0
    5.4043    1.2842   17.8262 C   0  0  0  0  0  0  0  0  0  0  0  0
    6.5661    0.6622   17.5614 N   0  0  0  0  0  0  0  0  0  0  0  0
    7.1816    0.0354   18.5750 C   0  0  0  0  0  0  0  0  0  0  0  0
    8.1333   -0.4404   18.3410 H   0  0  0  0  0  0  0  0  0  0  0  0
    4.9406    1.8000   16.9893 H   0  0  0  0  0  0  0  0  0  0  0  0
    3.8759    1.8280   19.2489 H   0  0  0  0  0  0  0  0  0  0  0  0
    5.0643    0.6445   21.1617 H   0  0  0  0  0  0  0  0  0  0  0  0
    7.8691   -1.4955   20.7973 H   0  0  0  0  0  0  0  0  0  0  0  0
  1  2  2  0
  2  3  1  0
  3  4  1  0
  4  5  1  0
  5  6  1  0
  6  7  2  0
  7  8  1  0
  8  9  1  0
  9 10  2  0
  9 11  1  0
  8 12  2  0
 12 13  1  0
 13 14  2  0
 14 15  1  0
 13 16  1  0
 12 17  1  0
  7 18  1  0
  5 19  1  0
  5 20  1  0
  4 21  1  0
  4 22  1  0
  3 23  1  0
  3 24  1  0
  2 25  1  0
 25 26  1  0
 26 27  2  0
 27 28  1  0
 28 29  2  0
 29 30  1  0
 30 31  2  0
 31 32  1  0
 29 33  1  0
 28 34  1  0
 27 35  1  0
 25 36  1  0
 14  6  1  0
 31 26  1  0
M  CHG  1  11  -1
M  END
>  <cnnaffinity>  (1) 
-4.97059

>  <filename>  (1) 
O=C(CCCc1cccc(C(=O)[O-])c1)Nc1cccnc1

$$$$
