
     RDKit          3D

 39 42  0  0  0  0  0  0  0  0999 V2000
    7.0576   -3.9901   25.0314 O   0  0  0  0  0  0  0  0  0  0  0  0
    6.5238   -2.9855   24.6315 C   0  0  0  0  0  0  0  0  0  0  0  0
    7.3128   -1.7072   24.4649 C   0  0  0  0  0  0  0  0  0  0  0  0
    7.6980   -1.5221   23.0421 C   0  0  0  0  0  0  0  0  0  0  0  0
    8.8067   -2.0262   22.4454 C   0  0  0  0  0  0  0  0  0  0  0  0
    8.8564   -1.5548   20.7950 S   0  0  0  0  0  0  0  0  0  0  0  0
    7.3365   -0.7171   21.0175 C   0  0  0  0  0  0  0  0  0  0  0  0
    6.6422   -0.0028   19.9374 C   0  0  0  0  0  0  0  0  0  0  0  0
    5.4202    0.6575   20.1717 C   0  0  0  0  0  0  0  0  0  0  0  0
    4.8003    1.3074   19.1077 C   0  0  0  0  0  0  0  0  0  0  0  0
    5.4216    1.2787   17.8530 C   0  0  0  0  0  0  0  0  0  0  0  0
    6.5836    0.6515   17.6114 N   0  0  0  0  0  0  0  0  0  0  0  0
    7.1771    0.0353   18.6381 C   0  0  0  0  0  0  0  0  0  0  0  0
    8.1278   -0.4487   18.4123 H   0  0  0  0  0  0  0  0  0  0  0  0
    4.9683    1.7829   17.0041 H   0  0  0  0  0  0  0  0  0  0  0  0
    3.8644    1.8440   19.2382 H   0  0  0  0  0  0  0  0  0  0  0  0
    4.9829    0.6564   21.1717 H   0  0  0  0  0  0  0  0  0  0  0  0
    6.8670   -0.8043   22.2310 N   0  0  0  0  0  0  0  0  0  0  0  0
    9.5795   -2.6176   22.9082 H   0  0  0  0  0  0  0  0  0  0  0  0
    6.7127   -0.8548   24.7833 H   0  0  0  0  0  0  0  0  0  0  0  0
    8.1850   -1.8260   25.1123 H   0  0  0  0  0  0  0  0  0  0  0  0
    5.1850   -2.8741   24.3521 N   0  0  0  0  0  0  0  0  0  0  0  0
    4.3180   -3.9449   24.2039 C   0  0  0  0  0  0  0  0  0  0  0  0
    4.8724   -5.0702   23.8340 N   0  0  0  0  0  0  0  0  0  0  0  0
    4.0863   -6.1598   23.6603 C   0  0  0  0  0  0  0  0  0  0  0  0
    2.7290   -6.1445   23.8286 C   0  0  0  0  0  0  0  0  0  0  0  0
    2.0881   -4.9277   24.2138 C   0  0  0  0  0  0  0  0  0  0  0  0
    0.6754   -4.8412   24.3813 C   0  0  0  0  0  0  0  0  0  0  0  0
    0.0770   -3.6603   24.7531 C   0  0  0  0  0  0  0  0  0  0  0  0
    0.8668   -2.5060   24.9813 C   0  0  0  0  0  0  0  0  0  0  0  0
    2.2403   -2.5525   24.8348 C   0  0  0  0  0  0  0  0  0  0  0  0
    2.8934   -3.7652   24.4320 C   0  0  0  0  0  0  0  0  0  0  0  0
    2.8154   -1.6505   25.0353 H   0  0  0  0  0  0  0  0  0  0  0  0
    0.3829   -1.5778   25.2767 H   0  0  0  0  0  0  0  0  0  0  0  0
   -1.0035   -3.6016   24.8807 H   0  0  0  0  0  0  0  0  0  0  0  0
    0.0797   -5.7311   24.2089 H   0  0  0  0  0  0  0  0  0  0  0  0
    2.1406   -7.0430   23.6806 H   0  0  0  0  0  0  0  0  0  0  0  0
    4.6055   -7.0774   23.3774 H   0  0  0  0  0  0  0  0  0  0  0  0
    4.8735   -1.9897   24.0047 H   0  0  0  0  0  0  0  0  0  0  0  0
  1  2  2  0
  2  3  1  0
  3  4  1  0
  4  5  2  0
  5  6  1  0
  6  7  1  0
  7  8  1  0
  8  9  2  0
  9 10  1  0
 10 11  2  0
 11 12  1  0
 12 13  2  0
 13 14  1  0
 11 15  1  0
 10 16  1  0
  9 17  1  0
  7 18  2  0
  5 19  1  0
  3 20  1  0
  3 21  1  0
  2 22  1  0
 22 23  1  0
 23 24  2  0
 24 25  1  0
 25 26  2  0
 26 27  1  0
 27 28  2  0
 28 29  1  0
 29 30  2  0
 30 31  1  0
 31 32  2  0
 31 33  1  0
 30 34  1  0
 29 35  1  0
 28 36  1  0
 26 37  1  0
 25 38  1  0
 22 39  1  0
 18  4  1  0
 32 23  1  0
 13  8  1  0
 32 27  1  0
M  END
>  <cnnaffinity>  (1) 
-5.86349

>  <filename>  (1) 
O=C(Cc1csc(-c2cccnc2)n1)Nc1nccc2ccccc12

$$$$
