
     RDKit          3D

 27 28  0  0  0  0  0  0  0  0999 V2000
    8.2760   -1.2472   20.6839 H   0  0  0  0  0  0  0  0  0  0  0  0
    7.3774   -0.6868   20.9634 C   0  0  0  0  0  0  0  0  0  0  0  0
    6.9779   -0.6407   22.1853 N   0  0  0  0  0  0  0  0  0  0  0  0
    7.6506   -1.4320   23.1119 N   0  0  0  0  0  0  0  0  0  0  0  0
    7.5291   -1.1304   24.0622 H   0  0  0  0  0  0  0  0  0  0  0  0
    8.1703   -2.6892   22.9518 C   0  0  0  0  0  0  0  0  0  0  0  0
    8.1551   -3.2994   21.8877 O   0  0  0  0  0  0  0  0  0  0  0  0
    8.9053   -3.2355   24.1944 C   0  0  0  0  0  0  0  0  0  0  0  0
    9.9716   -4.0813   23.8816 C   0  0  0  0  0  0  0  0  0  0  0  0
   10.1379   -4.1797   22.8325 H   0  0  0  0  0  0  0  0  0  0  0  0
   10.7194   -4.7207   24.8668 C   0  0  0  0  0  0  0  0  0  0  0  0
   11.5223   -5.4148   24.6234 H   0  0  0  0  0  0  0  0  0  0  0  0
   10.4737   -4.5324   26.1654 N   0  0  0  0  0  0  0  0  0  0  0  0
    9.4877   -3.6927   26.5002 C   0  0  0  0  0  0  0  0  0  0  0  0
    9.3512   -3.5593   27.5697 H   0  0  0  0  0  0  0  0  0  0  0  0
    8.6763   -3.0198   25.5697 C   0  0  0  0  0  0  0  0  0  0  0  0
    7.8940   -2.3846   25.9672 H   0  0  0  0  0  0  0  0  0  0  0  0
    6.6442    0.0239   19.9231 C   0  0  0  0  0  0  0  0  0  0  0  0
    7.1678    0.0521   18.6233 C   0  0  0  0  0  0  0  0  0  0  0  0
    8.1186   -0.4312   18.3911 H   0  0  0  0  0  0  0  0  0  0  0  0
    6.5731    0.6600   17.5963 N   0  0  0  0  0  0  0  0  0  0  0  0
    5.4105    1.2832   17.8456 C   0  0  0  0  0  0  0  0  0  0  0  0
    4.9547    1.7809   16.9949 H   0  0  0  0  0  0  0  0  0  0  0  0
    4.8006    1.3108   19.1046 C   0  0  0  0  0  0  0  0  0  0  0  0
    3.8679    1.8455   19.2350 H   0  0  0  0  0  0  0  0  0  0  0  0
    5.4208    0.6683   20.1708 C   0  0  0  0  0  0  0  0  0  0  0  0
    4.9939    0.6552   21.1743 H   0  0  0  0  0  0  0  0  0  0  0  0
  1  2  1  0
  2  3  2  3
  3  4  1  0
  4  5  1  0
  4  6  1  0
  6  7  2  0
  6  8  1  0
  8  9  2  0
  9 10  1  0
  9 11  1  0
 11 12  1  0
 11 13  2  0
 13 14  1  0
 14 15  1  0
 14 16  2  0
 16 17  1  0
  2 18  1  0
 18 19  2  0
 19 20  1  0
 19 21  1  0
 21 22  2  0
 22 23  1  0
 22 24  1  0
 24 25  1  0
 24 26  2  0
 26 27  1  0
 16  8  1  0
 26 18  1  0
M  END
>  <cnnaffinity>  (1) 
-4.64204

>  <filename>  (1) 
O=C(NN=Cc1cccnc1)c1ccncc1

$$$$
