
     RDKit          3D

 42 44  0  0  0  0  0  0  0  0999 V2000
    4.9702    1.8324   16.9465 H   0  0  0  0  0  0  0  0  0  0  0  0
    5.4102    1.3045   17.7923 C   0  0  0  0  0  0  0  0  0  0  0  0
    6.5450    0.6331   17.5465 N   0  0  0  0  0  0  0  0  0  0  0  0
    7.1162   -0.0040   18.5699 C   0  0  0  0  0  0  0  0  0  0  0  0
    8.0317   -0.5496   18.3528 H   0  0  0  0  0  0  0  0  0  0  0  0
    6.6089    0.0073   19.8772 C   0  0  0  0  0  0  0  0  0  0  0  0
    7.4661   -0.6030   20.9702 C   0  0  0  0  0  0  0  0  0  0  0  0
    6.6515   -0.9458   22.0312 F   0  0  0  0  0  0  0  0  0  0  0  0
    8.0016   -1.7599   20.5147 F   0  0  0  0  0  0  0  0  0  0  0  0
    8.6406    0.3238   21.5172 C   0  0  0  0  0  0  0  0  0  0  0  0
    9.8034    0.1637   21.2216 O   0  0  0  0  0  0  0  0  0  0  0  0
    8.1330    1.3295   22.3016 N   0  0  0  0  0  0  0  0  0  0  0  0
    7.1724    1.2327   22.5978 H   0  0  0  0  0  0  0  0  0  0  0  0
    8.8925    2.3340   22.8660 N   0  0  0  0  0  0  0  0  0  0  0  0
    8.8024    2.3399   24.3322 C   0  0  0  0  0  0  0  0  0  0  0  0
    7.7679    2.5230   24.6756 H   0  0  0  0  0  0  0  0  0  0  0  0
    9.1135    1.3625   24.7145 H   0  0  0  0  0  0  0  0  0  0  0  0
    9.7306    3.4067   24.8972 C   0  0  0  0  0  0  0  0  0  0  0  0
   10.7794    3.1033   24.7146 H   0  0  0  0  0  0  0  0  0  0  0  0
    9.5636    3.4610   25.9790 H   0  0  0  0  0  0  0  0  0  0  0  0
    9.4599    4.7217   24.3038 N   0  0  0  0  0  0  0  0  0  0  0  0
    9.9262    5.8375   25.0463 C   0  0  0  0  0  0  0  0  0  0  0  0
    9.2068    6.1437   26.2148 C   0  0  0  0  0  0  0  0  0  0  0  0
    8.4184    5.4536   26.5041 H   0  0  0  0  0  0  0  0  0  0  0  0
    9.5291    7.2572   26.9880 C   0  0  0  0  0  0  0  0  0  0  0  0
    8.9225    7.5015   27.8592 H   0  0  0  0  0  0  0  0  0  0  0  0
   10.6341    8.0393   26.6385 C   0  0  0  0  0  0  0  0  0  0  0  0
   10.8980    8.8983   27.2476 H   0  0  0  0  0  0  0  0  0  0  0  0
   11.3951    7.7108   25.5140 C   0  0  0  0  0  0  0  0  0  0  0  0
   12.2468    8.3372   25.2627 H   0  0  0  0  0  0  0  0  0  0  0  0
   11.0495    6.6147   24.7107 C   0  0  0  0  0  0  0  0  0  0  0  0
   11.6318    6.3487   23.8303 H   0  0  0  0  0  0  0  0  0  0  0  0
    9.5858    4.6839   22.8448 C   0  0  0  0  0  0  0  0  0  0  0  0
    9.3774    5.6769   22.4271 H   0  0  0  0  0  0  0  0  0  0  0  0
   10.6017    4.3790   22.5239 H   0  0  0  0  0  0  0  0  0  0  0  0
    8.5847    3.6617   22.2960 C   0  0  0  0  0  0  0  0  0  0  0  0
    7.5527    3.9719   22.5402 H   0  0  0  0  0  0  0  0  0  0  0  0
    8.6619    3.5836   21.2112 H   0  0  0  0  0  0  0  0  0  0  0  0
    5.3898    0.6600   20.1141 C   0  0  0  0  0  0  0  0  0  0  0  0
    4.9030    0.6322   21.0914 H   0  0  0  0  0  0  0  0  0  0  0  0
    4.7902    1.3285   19.0452 C   0  0  0  0  0  0  0  0  0  0  0  0
    3.8636    1.8753   19.1701 H   0  0  0  0  0  0  0  0  0  0  0  0
  1  2  1  0
  2  3  2  0
  3  4  1  0
  4  5  1  0
  4  6  2  0
  6  7  1  0
  7  8  1  0
  7  9  1  0
  7 10  1  0
 10 11  2  0
 10 12  1  0
 12 13  1  0
 12 14  1  0
 14 15  1  0
 15 16  1  0
 15 17  1  0
 15 18  1  0
 18 19  1  0
 18 20  1  0
 18 21  1  0
 21 22  1  0
 22 23  2  0
 23 24  1  0
 23 25  1  0
 25 26  1  0
 25 27  2  0
 27 28  1  0
 27 29  1  0
 29 30  1  0
 29 31  2  0
 31 32  1  0
 21 33  1  0
 33 34  1  0
 33 35  1  0
 33 36  1  0
 36 37  1  0
 36 38  1  0
  6 39  1  0
 39 40  1  0
 39 41  2  0
 41 42  1  0
 41  2  1  0
 36 14  1  0
 31 22  1  0
M  END
>  <cnnaffinity>  (1) 
-4.93793

>  <filename>  (1) 
O=C(NN1CCN(c2ccccc2)CC1)C(F)(F)c1cccnc1

$$$$
