
     RDKit          3D

 46 49  0  0  0  0  0  0  0  0999 V2000
    4.9278    1.7992   16.9816 H   0  0  0  0  0  0  0  0  0  0  0  0
    5.4085    1.2976   17.8188 C   0  0  0  0  0  0  0  0  0  0  0  0
    6.5740    0.6819   17.5546 N   0  0  0  0  0  0  0  0  0  0  0  0
    7.2065    0.0762   18.5701 C   0  0  0  0  0  0  0  0  0  0  0  0
    8.1477   -0.4161   18.3243 H   0  0  0  0  0  0  0  0  0  0  0  0
    6.6976    0.0224   19.8878 C   0  0  0  0  0  0  0  0  0  0  0  0
    7.3617   -0.6324   20.9629 N   0  0  0  0  0  0  0  0  0  0  0  0
    8.3677   -0.6490   20.9715 H   0  0  0  0  0  0  0  0  0  0  0  0
    6.7512   -1.5083   21.8476 C   0  0  0  0  0  0  0  0  0  0  0  0
    5.6907   -2.0403   21.5864 O   0  0  0  0  0  0  0  0  0  0  0  0
    7.5774   -1.7995   23.1494 C   0  0  0  0  0  0  0  0  0  0  0  0
    7.6840   -0.8484   24.2530 N   0  0  0  0  0  0  0  0  0  0  0  0
    8.3659    0.4128   23.8974 C   0  0  0  0  0  0  0  0  0  0  0  0
    7.7797    0.9738   23.1504 H   0  0  0  0  0  0  0  0  0  0  0  0
    9.3472    0.1821   23.4649 H   0  0  0  0  0  0  0  0  0  0  0  0
    8.5632    1.3122   25.1303 C   0  0  0  0  0  0  0  0  0  0  0  0
    9.2702    0.8314   25.8319 H   0  0  0  0  0  0  0  0  0  0  0  0
    9.0177    2.2597   24.8120 H   0  0  0  0  0  0  0  0  0  0  0  0
    7.2785    1.5859   25.7802 N   0  0  0  0  0  0  0  0  0  0  0  0
    7.0785    2.7896   26.4818 C   0  0  0  0  0  0  0  0  0  0  0  0
    7.1460    3.9978   25.7667 C   0  0  0  0  0  0  0  0  0  0  0  0
    7.3705    3.9331   24.7064 H   0  0  0  0  0  0  0  0  0  0  0  0
    6.8899    5.2165   26.3978 C   0  0  0  0  0  0  0  0  0  0  0  0
    6.9272    6.1381   25.8209 H   0  0  0  0  0  0  0  0  0  0  0  0
    6.5865    5.2464   27.7642 C   0  0  0  0  0  0  0  0  0  0  0  0
    6.3854    6.1943   28.2564 H   0  0  0  0  0  0  0  0  0  0  0  0
    6.5335    4.0508   28.4897 C   0  0  0  0  0  0  0  0  0  0  0  0
    6.2909    4.0659   29.5498 H   0  0  0  0  0  0  0  0  0  0  0  0
    6.7730    2.8275   27.8534 C   0  0  0  0  0  0  0  0  0  0  0  0
    6.7337    1.8849   28.3907 H   0  0  0  0  0  0  0  0  0  0  0  0
    6.5566    0.3644   26.1299 C   0  0  0  0  0  0  0  0  0  0  0  0
    5.5614    0.6434   26.5034 H   0  0  0  0  0  0  0  0  0  0  0  0
    7.0716   -0.2103   26.9225 H   0  0  0  0  0  0  0  0  0  0  0  0
    6.3852   -0.5328   24.8863 C   0  0  0  0  0  0  0  0  0  0  0  0
    5.7234   -0.0093   24.1761 H   0  0  0  0  0  0  0  0  0  0  0  0
    5.8951   -1.4690   25.1798 H   0  0  0  0  0  0  0  0  0  0  0  0
    7.5703   -3.2389   23.5856 C   0  0  0  0  0  0  0  0  0  0  0  0
    7.5765   -3.3922   24.6601 H   0  0  0  0  0  0  0  0  0  0  0  0
    6.9395   -3.9193   23.0218 H   0  0  0  0  0  0  0  0  0  0  0  0
    8.8046   -2.6648   22.9604 C   0  0  0  0  0  0  0  0  0  0  0  0
    9.6400   -2.4476   23.6178 H   0  0  0  0  0  0  0  0  0  0  0  0
    9.0950   -2.9523   21.9533 H   0  0  0  0  0  0  0  0  0  0  0  0
    5.4687    0.6481   20.1343 C   0  0  0  0  0  0  0  0  0  0  0  0
    5.0406    0.5971   21.1336 H   0  0  0  0  0  0  0  0  0  0  0  0
    4.8195    1.3088   19.0879 C   0  0  0  0  0  0  0  0  0  0  0  0
    3.8811    1.8336   19.2469 H   0  0  0  0  0  0  0  0  0  0  0  0
  1  2  1  0
  2  3  2  0
  3  4  1  0
  4  5  1  0
  4  6  2  0
  6  7  1  0
  7  8  1  0
  7  9  1  0
  9 10  2  0
  9 11  1  0
 11 12  1  0
 12 13  1  0
 13 14  1  0
 13 15  1  0
 13 16  1  0
 16 17  1  0
 16 18  1  0
 16 19  1  0
 19 20  1  0
 20 21  2  0
 21 22  1  0
 21 23  1  0
 23 24  1  0
 23 25  2  0
 25 26  1  0
 25 27  1  0
 27 28  1  0
 27 29  2  0
 29 30  1  0
 19 31  1  0
 31 32  1  0
 31 33  1  0
 31 34  1  0
 34 35  1  0
 34 36  1  0
 11 37  1  0
 37 38  1  0
 37 39  1  0
 37 40  1  0
 40 41  1  0
 40 42  1  0
  6 43  1  0
 43 44  1  0
 43 45  2  0
 45 46  1  0
 45  2  1  0
 40 11  1  0
 34 12  1  0
 29 20  1  0
M  END
>  <cnnaffinity>  (1) 
-5.33151

>  <filename>  (1) 
O=C(Nc1cccnc1)C1(N2CCN(c3ccccc3)CC2)CC1

$$$$
