
     RDKit          3D

 29 30  0  0  0  0  0  0  0  0999 V2000
    5.0496    1.7157   17.0263 H   0  0  0  0  0  0  0  0  0  0  0  0
    5.4930    1.2113   17.8797 C   0  0  0  0  0  0  0  0  0  0  0  0
    6.6500    0.5651   17.6548 N   0  0  0  0  0  0  0  0  0  0  0  0
    7.2225   -0.0457   18.7011 C   0  0  0  0  0  0  0  0  0  0  0  0
    8.1555   -0.5783   18.5264 H   0  0  0  0  0  0  0  0  0  0  0  0
    6.6886   -0.0277   20.0114 C   0  0  0  0  0  0  0  0  0  0  0  0
    7.3376   -0.6396   21.1069 N   0  0  0  0  0  0  0  0  0  0  0  0
    7.8612   -1.4923   21.0198 H   0  0  0  0  0  0  0  0  0  0  0  0
    7.3476   -0.1762   22.3895 C   0  0  0  0  0  0  0  0  0  0  0  0
    6.8447    0.8308   22.8164 O   0  0  0  0  0  0  0  0  0  0  0  0
    8.0739   -1.0901   23.1020 O   0  0  0  0  0  0  0  0  0  0  0  0
    8.4409   -0.7800   24.3898 C   0  0  0  0  0  0  0  0  0  0  0  0
    8.9958    0.4659   24.6957 C   0  0  0  0  0  0  0  0  0  0  0  0
    9.0758    1.2177   23.9196 H   0  0  0  0  0  0  0  0  0  0  0  0
    9.4145    0.7310   25.9993 C   0  0  0  0  0  0  0  0  0  0  0  0
    9.8255    1.7090   26.2403 H   0  0  0  0  0  0  0  0  0  0  0  0
    9.2639   -0.2443   26.9890 C   0  0  0  0  0  0  0  0  0  0  0  0
    9.5566   -0.0339   28.0107 H   0  0  0  0  0  0  0  0  0  0  0  0
    8.7081   -1.4834   26.6819 C   0  0  0  0  0  0  0  0  0  0  0  0
    8.5736   -2.2189   27.4722 H   0  0  0  0  0  0  0  0  0  0  0  0
    8.3144   -1.7793   25.3649 C   0  0  0  0  0  0  0  0  0  0  0  0
    7.7094   -3.1198   25.0030 C   0  0  0  0  0  0  0  0  0  0  0  0
    7.6626   -3.9539   26.0667 F   0  0  0  0  0  0  0  0  0  0  0  0
    6.4502   -2.9961   24.5501 F   0  0  0  0  0  0  0  0  0  0  0  0
    8.3976   -3.7685   24.0499 F   0  0  0  0  0  0  0  0  0  0  0  0
    5.4792    0.6411   20.2247 C   0  0  0  0  0  0  0  0  0  0  0  0
    5.0625    0.6709   21.2317 H   0  0  0  0  0  0  0  0  0  0  0  0
    4.8695    1.2625   19.1338 C   0  0  0  0  0  0  0  0  0  0  0  0
    3.9355    1.7989   19.2616 H   0  0  0  0  0  0  0  0  0  0  0  0
  1  2  1  0
  2  3  2  0
  3  4  1  0
  4  5  1  0
  4  6  2  0
  6  7  1  0
  7  8  1  0
  7  9  1  0
  9 10  2  0
  9 11  1  0
 11 12  1  0
 12 13  2  0
 13 14  1  0
 13 15  1  0
 15 16  1  0
 15 17  2  0
 17 18  1  0
 17 19  1  0
 19 20  1  0
 19 21  2  0
 21 22  1  0
 22 23  1  0
 22 24  1  0
 22 25  1  0
  6 26  1  0
 26 27  1  0
 26 28  2  0
 28 29  1  0
 28  2  1  0
 21 12  1  0
M  END
>  <cnnaffinity>  (1) 
-4.96152

>  <filename>  (1) 
O=C(Nc1cccnc1)Oc1ccccc1C(F)(F)F

$$$$
