
     RDKit          3D

 33 35  0  0  0  0  0  0  0  0999 V2000
    5.7747   -2.3175   21.4766 O   0  0  0  0  0  0  0  0  0  0  0  0
    6.7769   -1.6947   21.7627 C   0  0  0  0  0  0  0  0  0  0  0  0
    7.5758   -1.9271   23.0540 C   0  0  0  0  0  0  0  0  0  0  0  0
    7.7107   -0.7161   23.9722 C   0  0  0  0  0  0  0  0  0  0  0  0
    6.7328   -0.5079   24.9970 C   0  0  0  0  0  0  0  0  0  0  0  0
    6.7919    0.5913   25.8205 C   0  0  0  0  0  0  0  0  0  0  0  0
    7.7919    1.5936   25.6189 C   0  0  0  0  0  0  0  0  0  0  0  0
    7.8667    2.8040   26.3819 C   0  0  0  0  0  0  0  0  0  0  0  0
    8.7246    3.7733   26.1524 N   0  0  0  0  0  0  0  0  0  0  0  0
    9.5943    3.6083   25.1115 C   0  0  0  0  0  0  0  0  0  0  0  0
    9.6760    2.4759   24.3438 C   0  0  0  0  0  0  0  0  0  0  0  0
    8.7624    1.4088   24.5888 C   0  0  0  0  0  0  0  0  0  0  0  0
    8.7489    0.1949   23.8363 C   0  0  0  0  0  0  0  0  0  0  0  0
    9.6092   -0.0169   23.1995 H   0  0  0  0  0  0  0  0  0  0  0  0
   10.4016    2.4127   23.5318 H   0  0  0  0  0  0  0  0  0  0  0  0
   10.2704    4.4423   24.9367 H   0  0  0  0  0  0  0  0  0  0  0  0
    7.1537    2.9714   27.1928 H   0  0  0  0  0  0  0  0  0  0  0  0
    6.0902    0.7107   26.6418 H   0  0  0  0  0  0  0  0  0  0  0  0
    5.9395   -1.2421   25.1418 H   0  0  0  0  0  0  0  0  0  0  0  0
    7.0833   -2.7510   23.5722 H   0  0  0  0  0  0  0  0  0  0  0  0
    8.5674   -2.2868   22.7500 H   0  0  0  0  0  0  0  0  0  0  0  0
    7.3720   -0.7821   20.9102 N   0  0  0  0  0  0  0  0  0  0  0  0
    6.6978   -0.0702   19.8626 C   0  0  0  0  0  0  0  0  0  0  0  0
    5.4817    0.5831   20.1068 C   0  0  0  0  0  0  0  0  0  0  0  0
    4.8672    1.2777   19.0559 C   0  0  0  0  0  0  0  0  0  0  0  0
    5.4868    1.2977   17.8037 C   0  0  0  0  0  0  0  0  0  0  0  0
    6.6601    0.6900   17.5548 N   0  0  0  0  0  0  0  0  0  0  0  0
    7.2483    0.0361   18.5662 C   0  0  0  0  0  0  0  0  0  0  0  0
    8.2036   -0.4421   18.3514 H   0  0  0  0  0  0  0  0  0  0  0  0
    5.0283    1.8173   16.9638 H   0  0  0  0  0  0  0  0  0  0  0  0
    3.9304    1.8051   19.2008 H   0  0  0  0  0  0  0  0  0  0  0  0
    5.0470    0.5493   21.1051 H   0  0  0  0  0  0  0  0  0  0  0  0
    8.1415   -0.2848   21.3325 H   0  0  0  0  0  0  0  0  0  0  0  0
  1  2  2  0
  2  3  1  0
  3  4  1  0
  4  5  2  0
  5  6  1  0
  6  7  2  0
  7  8  1  0
  8  9  2  0
  9 10  1  0
 10 11  2  0
 11 12  1  0
 12 13  2  0
 13 14  1  0
 11 15  1  0
 10 16  1  0
  8 17  1  0
  6 18  1  0
  5 19  1  0
  3 20  1  0
  3 21  1  0
  2 22  1  0
 22 23  1  0
 23 24  2  0
 24 25  1  0
 25 26  2  0
 26 27  1  0
 27 28  2  0
 28 29  1  0
 26 30  1  0
 25 31  1  0
 24 32  1  0
 22 33  1  0
 13  4  1  0
 28 23  1  0
 12  7  1  0
M  END
>  <cnnaffinity>  (1) 
-5.04709

>  <filename>  (1) 
O=C(Cc1ccc2cnccc2c1)Nc1cccnc1

$$$$
