
     RDKit          3D

 37 38  0  0  0  0  0  0  0  0999 V2000
    6.8079    0.8302   22.7339 O   0  0  0  0  0  0  0  0  0  0  0  0
    7.3094   -0.2124   22.3578 C   0  0  0  0  0  0  0  0  0  0  0  0
    7.9806   -1.1181   23.1616 N   0  0  0  0  0  0  0  0  0  0  0  0
    7.9659   -0.8927   24.6092 C   0  0  0  0  0  0  0  0  0  0  0  0
    6.5648   -0.8998   25.2459 C   0  0  0  0  0  0  0  0  0  0  0  0
    5.8369   -2.2529   25.2355 C   0  0  0  0  0  0  0  0  0  0  0  0
    5.6050   -2.6670   23.8859 O   0  0  0  0  0  0  0  0  0  0  0  0
    5.0309   -1.9831   23.4935 H   0  0  0  0  0  0  0  0  0  0  0  0
    4.5436   -2.2409   26.0713 C   0  0  0  0  0  0  0  0  0  0  0  0
    4.4360   -3.0542   27.2166 C   0  0  0  0  0  0  0  0  0  0  0  0
    3.2654   -3.0785   27.9861 C   0  0  0  0  0  0  0  0  0  0  0  0
    2.1688   -2.2912   27.6211 C   0  0  0  0  0  0  0  0  0  0  0  0
    2.2613   -1.4565   26.5028 C   0  0  0  0  0  0  0  0  0  0  0  0
    3.4431   -1.4188   25.7520 C   0  0  0  0  0  0  0  0  0  0  0  0
    3.4938   -0.7230   24.9182 H   0  0  0  0  0  0  0  0  0  0  0  0
    1.4136   -0.8362   26.2162 H   0  0  0  0  0  0  0  0  0  0  0  0
    1.2568   -2.3158   28.2132 H   0  0  0  0  0  0  0  0  0  0  0  0
    3.2129   -3.7161   28.8659 H   0  0  0  0  0  0  0  0  0  0  0  0
    5.2764   -3.6858   27.5052 H   0  0  0  0  0  0  0  0  0  0  0  0
    6.4841   -3.0430   25.6526 H   0  0  0  0  0  0  0  0  0  0  0  0
    6.6557   -0.5545   26.2822 H   0  0  0  0  0  0  0  0  0  0  0  0
    5.9616   -0.1705   24.6865 H   0  0  0  0  0  0  0  0  0  0  0  0
    8.4246    0.0847   24.8145 H   0  0  0  0  0  0  0  0  0  0  0  0
    8.6296   -1.6476   25.0555 H   0  0  0  0  0  0  0  0  0  0  0  0
    7.6680   -2.0398   22.8888 H   0  0  0  0  0  0  0  0  0  0  0  0
    7.3135   -0.6548   21.0461 N   0  0  0  0  0  0  0  0  0  0  0  0
    6.6753   -0.0195   19.9553 C   0  0  0  0  0  0  0  0  0  0  0  0
    5.4661    0.6472   20.1760 C   0  0  0  0  0  0  0  0  0  0  0  0
    4.8528    1.2769   19.0936 C   0  0  0  0  0  0  0  0  0  0  0  0
    5.4603    1.2401   17.8340 C   0  0  0  0  0  0  0  0  0  0  0  0
    6.6150    0.5951   17.6034 N   0  0  0  0  0  0  0  0  0  0  0  0
    7.1965   -0.0218   18.6406 C   0  0  0  0  0  0  0  0  0  0  0  0
    8.1278   -0.5449   18.4366 H   0  0  0  0  0  0  0  0  0  0  0  0
    5.0160    1.7574   16.9864 H   0  0  0  0  0  0  0  0  0  0  0  0
    3.9235    1.8132   19.2333 H   0  0  0  0  0  0  0  0  0  0  0  0
    5.0519    0.6731   21.1810 H   0  0  0  0  0  0  0  0  0  0  0  0
    7.9702   -1.4017   20.8882 H   0  0  0  0  0  0  0  0  0  0  0  0
  1  2  2  0
  2  3  1  0
  3  4  1  0
  4  5  1  0
  5  6  1  0
  6  7  1  0
  7  8  1  0
  6  9  1  0
  9 10  2  0
 10 11  1  0
 11 12  2  0
 12 13  1  0
 13 14  2  0
 14 15  1  0
 13 16  1  0
 12 17  1  0
 11 18  1  0
 10 19  1  0
  6 20  1  0
  5 21  1  0
  5 22  1  0
  4 23  1  0
  4 24  1  0
  3 25  1  0
  2 26  1  0
 26 27  1  0
 27 28  2  0
 28 29  1  0
 29 30  2  0
 30 31  1  0
 31 32  2  0
 32 33  1  0
 30 34  1  0
 29 35  1  0
 28 36  1  0
 26 37  1  0
 14  9  1  0
 32 27  1  0
M  END
>  <cnnaffinity>  (1) 
-4.46308

>  <filename>  (1) 
O=C(NCCC(O)c1ccccc1)Nc1cccnc1

$$$$
