
     RDKit          3D

 35 37  0  0  0  0  0  0  0  0999 V2000
    4.9398    1.8011   16.9803 H   0  0  0  0  0  0  0  0  0  0  0  0
    5.4099    1.3007   17.8250 C   0  0  0  0  0  0  0  0  0  0  0  0
    6.5710    0.6769   17.5727 N   0  0  0  0  0  0  0  0  0  0  0  0
    7.1785    0.0561   18.5917 C   0  0  0  0  0  0  0  0  0  0  0  0
    8.1132   -0.4330   18.3242 H   0  0  0  0  0  0  0  0  0  0  0  0
    6.6701   -0.0005   19.9058 C   0  0  0  0  0  0  0  0  0  0  0  0
    7.3352   -0.7335   21.0007 C   0  0  0  0  0  0  0  0  0  0  0  0
    6.8142   -1.2945   22.1144 C   0  0  0  0  0  0  0  0  0  0  0  0
    5.8213   -1.3758   22.5004 H   0  0  0  0  0  0  0  0  0  0  0  0
    7.8262   -1.8551   22.8653 N   0  0  0  0  0  0  0  0  0  0  0  0
    7.5422   -2.5932   24.0434 N   0  0  0  0  0  0  0  0  0  0  0  0
    8.2785   -3.2049   24.3545 H   0  0  0  0  0  0  0  0  0  0  0  0
    6.5362   -2.2540   24.9551 C   0  0  0  0  0  0  0  0  0  0  0  0
    5.8138   -1.2861   24.8433 O   0  0  0  0  0  0  0  0  0  0  0  0
    6.3967   -3.1862   25.9557 N   0  0  0  0  0  0  0  0  0  0  0  0
    7.1738   -3.7930   26.1182 H   0  0  0  0  0  0  0  0  0  0  0  0
    5.2911   -3.2677   26.8386 C   0  0  0  0  0  0  0  0  0  0  0  0
    4.0091   -2.8949   26.4019 C   0  0  0  0  0  0  0  0  0  0  0  0
    3.8876   -2.5682   25.3783 H   0  0  0  0  0  0  0  0  0  0  0  0
    2.9256   -2.9435   27.2808 C   0  0  0  0  0  0  0  0  0  0  0  0
    1.9324   -2.6760   26.9225 H   0  0  0  0  0  0  0  0  0  0  0  0
    3.1160   -3.3276   28.6129 C   0  0  0  0  0  0  0  0  0  0  0  0
    2.2733   -3.3396   29.2999 H   0  0  0  0  0  0  0  0  0  0  0  0
    4.3901   -3.7130   29.0469 C   0  0  0  0  0  0  0  0  0  0  0  0
    4.5446   -3.9932   30.0881 H   0  0  0  0  0  0  0  0  0  0  0  0
    5.4656   -3.7324   28.1486 C   0  0  0  0  0  0  0  0  0  0  0  0
    6.4272   -4.1257   28.4614 H   0  0  0  0  0  0  0  0  0  0  0  0
    9.0336   -1.6853   22.2040 C   0  0  0  0  0  0  0  0  0  0  0  0
   10.5539   -2.2027   22.6151 S   0  0  0  0  0  0  0  0  0  0  0  0
    8.7014   -0.9996   21.0749 N   0  0  0  0  0  0  0  0  0  0  0  0
    9.4562   -0.7309   20.4661 H   0  0  0  0  0  0  0  0  0  0  0  0
    5.4473    0.6598   20.1389 C   0  0  0  0  0  0  0  0  0  0  0  0
    5.0130    0.6667   21.1392 H   0  0  0  0  0  0  0  0  0  0  0  0
    4.8100    1.3173   19.0869 C   0  0  0  0  0  0  0  0  0  0  0  0
    3.8733    1.8472   19.2255 H   0  0  0  0  0  0  0  0  0  0  0  0
  1  2  1  0
  2  3  2  0
  3  4  1  0
  4  5  1  0
  4  6  2  0
  6  7  1  0
  7  8  2  0
  8  9  1  0
  8 10  1  0
 10 11  1  0
 11 12  1  0
 11 13  1  0
 13 14  2  0
 13 15  1  0
 15 16  1  0
 15 17  1  0
 17 18  2  0
 18 19  1  0
 18 20  1  0
 20 21  1  0
 20 22  2  0
 22 23  1  0
 22 24  1  0
 24 25  1  0
 24 26  2  0
 26 27  1  0
 10 28  1  0
 28 29  2  0
 28 30  1  0
 30 31  1  0
  6 32  1  0
 32 33  1  0
 32 34  2  0
 34 35  1  0
 34  2  1  0
 30  7  1  0
 26 17  1  0
M  END
>  <cnnaffinity>  (1) 
-5.00047

>  <filename>  (1) 
O=C(Nc1ccccc1)Nn1cc(-c2cccnc2)[nH]c1=S

$$$$
