
     RDKit          3D

 27 28  0  0  0  0  0  0  0  0999 V2000
    4.9569    1.8029   16.9951 H   0  0  0  0  0  0  0  0  0  0  0  0
    5.4151    1.2801   17.8342 C   0  0  0  0  0  0  0  0  0  0  0  0
    6.5764    0.6527   17.5819 N   0  0  0  0  0  0  0  0  0  0  0  0
    7.1835    0.0173   18.5962 C   0  0  0  0  0  0  0  0  0  0  0  0
    8.1373   -0.4449   18.3486 H   0  0  0  0  0  0  0  0  0  0  0  0
    6.6692   -0.0363   19.9163 C   0  0  0  0  0  0  0  0  0  0  0  0
    7.3271   -0.6965   21.0038 N   0  0  0  0  0  0  0  0  0  0  0  0
    7.8745   -1.5192   20.8166 H   0  0  0  0  0  0  0  0  0  0  0  0
    7.3685   -0.2455   22.3009 C   0  0  0  0  0  0  0  0  0  0  0  0
    6.9081    0.8060   22.6882 O   0  0  0  0  0  0  0  0  0  0  0  0
    8.0097   -1.2346   23.2972 C   0  0  0  0  0  0  0  0  0  0  0  0
    9.1772   -1.7754   22.8033 F   0  0  0  0  0  0  0  0  0  0  0  0
    8.3379   -0.6291   24.4604 F   0  0  0  0  0  0  0  0  0  0  0  0
    7.0379   -2.4140   23.5391 C   0  0  0  0  0  0  0  0  0  0  0  0
    6.0398   -2.5587   22.8605 O   0  0  0  0  0  0  0  0  0  0  0  0
    7.4452   -3.4084   24.5468 C   0  0  0  0  0  0  0  0  0  0  0  0
    6.3738   -4.7307   24.8530 S   0  0  0  0  0  0  0  0  0  0  0  0
    7.4824   -5.4384   25.9453 C   0  0  0  0  0  0  0  0  0  0  0  0
    7.2239   -6.3733   26.4278 H   0  0  0  0  0  0  0  0  0  0  0  0
    8.6236   -4.6982   26.0798 C   0  0  0  0  0  0  0  0  0  0  0  0
    9.4485   -4.9899   26.7249 H   0  0  0  0  0  0  0  0  0  0  0  0
    8.6063   -3.5191   25.2772 C   0  0  0  0  0  0  0  0  0  0  0  0
    9.4234   -2.8004   25.2397 H   0  0  0  0  0  0  0  0  0  0  0  0
    5.4554    0.6243   20.1527 C   0  0  0  0  0  0  0  0  0  0  0  0
    5.0467    0.6273   21.1595 H   0  0  0  0  0  0  0  0  0  0  0  0
    4.8152    1.2873   19.0973 C   0  0  0  0  0  0  0  0  0  0  0  0
    3.8824    1.8279   19.2490 H   0  0  0  0  0  0  0  0  0  0  0  0
  1  2  1  0
  2  3  2  0
  3  4  1  0
  4  5  1  0
  4  6  2  0
  6  7  1  0
  7  8  1  0
  7  9  1  0
  9 10  2  0
  9 11  1  0
 11 12  1  0
 11 13  1  0
 11 14  1  0
 14 15  2  0
 14 16  1  0
 16 17  1  0
 17 18  1  0
 18 19  1  0
 18 20  2  0
 20 21  1  0
 20 22  1  0
 22 23  1  0
  6 24  1  0
 24 25  1  0
 24 26  2  0
 26 27  1  0
 26  2  1  0
 22 16  2  0
M  END
>  <cnnaffinity>  (1) 
-5.11702

>  <filename>  (1) 
O=C(Nc1cccnc1)C(F)(F)C(=O)c1cccs1

$$$$
