
     RDKit          3D

 46 49  0  0  0  0  0  0  0  0999 V2000
    5.0041    1.7676   16.7899 H   0  0  0  0  0  0  0  0  0  0  0  0
    5.3695    1.3307   17.7173 C   0  0  0  0  0  0  0  0  0  0  0  0
    6.5333    0.6696   17.6179 N   0  0  0  0  0  0  0  0  0  0  0  0
    7.0187    0.1285   18.7365 C   0  0  0  0  0  0  0  0  0  0  0  0
    7.9609   -0.4144   18.6385 H   0  0  0  0  0  0  0  0  0  0  0  0
    6.4123    0.2191   20.0038 C   0  0  0  0  0  0  0  0  0  0  0  0
    7.0686   -0.4639   21.1335 C   0  0  0  0  0  0  0  0  0  0  0  0
    7.4663    0.0370   22.3245 C   0  0  0  0  0  0  0  0  0  0  0  0
    7.6146    1.4871   22.6277 C   0  0  0  0  0  0  0  0  0  0  0  0
    7.6697    2.3643   21.7870 O   0  0  0  0  0  0  0  0  0  0  0  0
    7.7138    1.7446   23.9792 N   0  0  0  0  0  0  0  0  0  0  0  0
    7.3882    0.9701   24.5322 H   0  0  0  0  0  0  0  0  0  0  0  0
    7.3965    3.0631   24.4929 C   0  0  0  0  0  0  0  0  0  0  0  0
    7.6341    3.0905   25.5633 H   0  0  0  0  0  0  0  0  0  0  0  0
    8.0481    3.7947   24.0030 H   0  0  0  0  0  0  0  0  0  0  0  0
    5.9189    3.4342   24.2756 C   0  0  0  0  0  0  0  0  0  0  0  0
    5.2872    2.7216   24.8213 H   0  0  0  0  0  0  0  0  0  0  0  0
    5.6915    3.3100   23.2097 H   0  0  0  0  0  0  0  0  0  0  0  0
    5.6391    4.8449   24.7151 C   0  0  0  0  0  0  0  0  0  0  0  0
    5.3161    5.1276   26.0495 C   0  0  0  0  0  0  0  0  0  0  0  0
    5.1741    4.3022   26.7449 H   0  0  0  0  0  0  0  0  0  0  0  0
    5.1887    6.4506   26.4839 C   0  0  0  0  0  0  0  0  0  0  0  0
    4.9408    6.6552   27.5224 H   0  0  0  0  0  0  0  0  0  0  0  0
    5.3853    7.5043   25.5826 C   0  0  0  0  0  0  0  0  0  0  0  0
    5.2944    8.5338   25.9189 H   0  0  0  0  0  0  0  0  0  0  0  0
    5.6994    7.2305   24.2458 C   0  0  0  0  0  0  0  0  0  0  0  0
    5.8539    8.0405   23.5367 H   0  0  0  0  0  0  0  0  0  0  0  0
    5.8224    5.9061   23.8167 C   0  0  0  0  0  0  0  0  0  0  0  0
    6.0724    5.6800   22.7801 H   0  0  0  0  0  0  0  0  0  0  0  0
    7.9560   -1.0605   23.2557 C   0  0  0  0  0  0  0  0  0  0  0  0
    7.2417   -1.2442   24.0691 H   0  0  0  0  0  0  0  0  0  0  0  0
    8.9151   -0.7810   23.7152 H   0  0  0  0  0  0  0  0  0  0  0  0
    8.0852   -2.2850   22.3545 C   0  0  0  0  0  0  0  0  0  0  0  0
    7.5157   -1.8920   20.9905 C   0  0  0  0  0  0  0  0  0  0  0  0
    8.2998   -1.9322   20.2207 H   0  0  0  0  0  0  0  0  0  0  0  0
    6.7123   -2.5573   20.6561 H   0  0  0  0  0  0  0  0  0  0  0  0
    9.3274   -3.1203   22.3389 C   0  0  0  0  0  0  0  0  0  0  0  0
   10.0950   -2.9898   23.0961 H   0  0  0  0  0  0  0  0  0  0  0  0
    9.7147   -3.2356   21.3344 H   0  0  0  0  0  0  0  0  0  0  0  0
    8.0185   -3.7283   22.7652 C   0  0  0  0  0  0  0  0  0  0  0  0
    7.8868   -3.9612   23.8207 H   0  0  0  0  0  0  0  0  0  0  0  0
    7.4971   -4.4134   22.0987 H   0  0  0  0  0  0  0  0  0  0  0  0
    5.1902    0.9121   20.0857 C   0  0  0  0  0  0  0  0  0  0  0  0
    4.6657    1.0094   21.0386 H   0  0  0  0  0  0  0  0  0  0  0  0
    4.6616    1.4675   18.9152 C   0  0  0  0  0  0  0  0  0  0  0  0
    3.7240    2.0115   18.9069 H   0  0  0  0  0  0  0  0  0  0  0  0
  1  2  1  0
  2  3  2  0
  3  4  1  0
  4  5  1  0
  4  6  2  0
  6  7  1  0
  7  8  2  0
  8  9  1  0
  9 10  2  0
  9 11  1  0
 11 12  1  0
 11 13  1  0
 13 14  1  0
 13 15  1  0
 13 16  1  0
 16 17  1  0
 16 18  1  0
 16 19  1  0
 19 20  2  0
 20 21  1  0
 20 22  1  0
 22 23  1  0
 22 24  2  0
 24 25  1  0
 24 26  1  0
 26 27  1  0
 26 28  2  0
 28 29  1  0
  8 30  1  0
 30 31  1  0
 30 32  1  0
 30 33  1  0
 33 34  1  0
 34 35  1  0
 34 36  1  0
 33 37  1  0
 37 38  1  0
 37 39  1  0
 37 40  1  0
 40 41  1  0
 40 42  1  0
  6 43  1  0
 43 44  1  0
 43 45  2  0
 45 46  1  0
 45  2  1  0
 34  7  1  0
 28 19  1  0
 40 33  1  0
M  END
>  <cnnaffinity>  (1) 
-5.06847

>  <filename>  (1) 
O=C(NCCc1ccccc1)C1=C(c2cccnc2)CC2(CC2)C1

$$$$
