
     RDKit          3D

 30 31  0  0  0  0  0  0  0  0999 V2000
    4.9372    1.8057   16.9967 H   0  0  0  0  0  0  0  0  0  0  0  0
    5.4023    1.2820   17.8310 C   0  0  0  0  0  0  0  0  0  0  0  0
    6.5629    0.6604   17.5639 N   0  0  0  0  0  0  0  0  0  0  0  0
    7.1835    0.0305   18.5741 C   0  0  0  0  0  0  0  0  0  0  0  0
    8.1356   -0.4385   18.3277 H   0  0  0  0  0  0  0  0  0  0  0  0
    6.6936   -0.0183   19.9012 C   0  0  0  0  0  0  0  0  0  0  0  0
    7.4018   -0.6597   20.9680 N   0  0  0  0  0  0  0  0  0  0  0  0
    7.9563   -1.4833   20.7768 H   0  0  0  0  0  0  0  0  0  0  0  0
    7.5122   -0.1691   22.2475 C   0  0  0  0  0  0  0  0  0  0  0  0
    7.1761    0.9517   22.5742 O   0  0  0  0  0  0  0  0  0  0  0  0
    8.1996   -1.1116   23.2972 C   0  0  0  0  0  0  0  0  0  0  0  0
    7.7783   -0.8142   24.5587 F   0  0  0  0  0  0  0  0  0  0  0  0
    7.8779   -2.4320   23.0876 F   0  0  0  0  0  0  0  0  0  0  0  0
    9.7317   -0.9630   23.2261 C   0  0  1  0  0  0  0  0  0  0  0  0
   10.0977   -1.7134   23.9444 H   0  0  0  0  0  0  0  0  0  0  0  0
   10.2158   -1.2537   21.8613 N   0  0  0  0  0  0  0  0  0  0  0  0
   10.8368   -2.0623   21.8775 H   0  0  0  0  0  0  0  0  0  0  0  0
   10.9658   -0.0929   21.3595 C   0  0  0  0  0  0  0  0  0  0  0  0
   11.7936   -0.4438   20.7333 H   0  0  0  0  0  0  0  0  0  0  0  0
   10.3033    0.5153   20.7283 H   0  0  0  0  0  0  0  0  0  0  0  0
   11.4031    0.7129   22.5913 C   0  0  0  0  0  0  0  0  0  0  0  0
   11.5526    1.7777   22.3604 H   0  0  0  0  0  0  0  0  0  0  0  0
   12.3578    0.3450   22.9927 H   0  0  0  0  0  0  0  0  0  0  0  0
   10.2448    0.4589   23.5825 C   0  0  0  0  0  0  0  0  0  0  0  0
    9.4349    1.1813   23.4253 H   0  0  0  0  0  0  0  0  0  0  0  0
   10.5484    0.5333   24.6339 H   0  0  0  0  0  0  0  0  0  0  0  0
    5.4756    0.6292   20.1528 C   0  0  0  0  0  0  0  0  0  0  0  0
    5.0743    0.6354   21.1629 H   0  0  0  0  0  0  0  0  0  0  0  0
    4.8177    1.2841   19.1014 C   0  0  0  0  0  0  0  0  0  0  0  0
    3.8849    1.8210   19.2566 H   0  0  0  0  0  0  0  0  0  0  0  0
  1  2  1  0
  2  3  2  0
  3  4  1  0
  4  5  1  0
  4  6  2  0
  6  7  1  0
  7  8  1  0
  7  9  1  0
  9 10  2  0
  9 11  1  0
 11 12  1  0
 11 13  1  0
 11 14  1  0
 14 15  1  1
 14 16  1  0
 16 17  1  0
 16 18  1  0
 18 19  1  0
 18 20  1  0
 18 21  1  0
 21 22  1  0
 21 23  1  0
 21 24  1  0
 24 25  1  0
 24 26  1  0
  6 27  1  0
 27 28  1  0
 27 29  2  0
 29 30  1  0
 29  2  1  0
 24 14  1  0
M  END
>  <cnnaffinity>  (1) 
-4.51171

>  <filename>  (1) 
O=C(Nc1cccnc1)C(F)(F)[C@@H]1CCCN1

$$$$
