
     RDKit          3D

 33 35  0  0  0  0  0  0  0  0999 V2000
    8.6869   -0.5826   20.8798 O   0  0  0  0  0  0  0  0  0  0  0  0
    7.4864   -0.8483   20.8898 C   0  0  0  0  0  0  0  0  0  0  0  0
    6.7091   -0.1694   19.8680 C   0  0  0  0  0  0  0  0  0  0  0  0
    5.4650    0.4038   20.1347 C   0  0  0  0  0  0  0  0  0  0  0  0
    4.8775    1.1422   19.1132 C   0  0  0  0  0  0  0  0  0  0  0  0
    5.5103    1.2530   17.8709 C   0  0  0  0  0  0  0  0  0  0  0  0
    6.6946    0.6685   17.6166 N   0  0  0  0  0  0  0  0  0  0  0  0
    7.2867   -0.0119   18.6045 C   0  0  0  0  0  0  0  0  0  0  0  0
    8.2575   -0.4614   18.4136 H   0  0  0  0  0  0  0  0  0  0  0  0
    5.0334    1.8319   17.0858 H   0  0  0  0  0  0  0  0  0  0  0  0
    3.9376    1.6559   19.2739 H   0  0  0  0  0  0  0  0  0  0  0  0
    4.9851    0.3239   21.1117 H   0  0  0  0  0  0  0  0  0  0  0  0
    6.8899   -1.7427   21.9334 C   0  0  0  0  0  0  0  0  0  0  0  0
    5.9792   -2.6867   21.7267 N   0  0  0  0  0  0  0  0  0  0  0  0
    5.7971   -3.3426   22.9391 C   0  0  0  0  0  0  0  0  0  0  0  0
    6.5809   -2.7759   23.8975 C   0  0  0  0  0  0  0  0  0  0  0  0
    7.2708   -1.7554   23.2791 N   0  0  0  0  0  0  0  0  0  0  0  0
    8.2823   -0.9114   23.9314 C   0  0  0  0  0  0  0  0  0  0  0  0
    9.6345   -1.2038   23.3274 C   0  0  0  0  0  0  0  0  0  0  0  0
   10.3086   -0.2292   22.5735 C   0  0  0  0  0  0  0  0  0  0  0  0
   11.5576   -0.4903   22.0129 C   0  0  0  0  0  0  0  0  0  0  0  0
   12.1504   -1.7316   22.1837 C   0  0  0  0  0  0  0  0  0  0  0  0
   13.7577   -1.9919   21.5672 Cl  0  0  0  0  0  0  0  0  0  0  0  0
   11.4730   -2.7149   22.9078 C   0  0  0  0  0  0  0  0  0  0  0  0
   10.2343   -2.4615   23.4906 C   0  0  0  0  0  0  0  0  0  0  0  0
    9.4235   -3.8386   24.5378 Br  0  0  0  0  0  0  0  0  0  0  0  0
   11.9544   -3.6506   23.1334 H   0  0  0  0  0  0  0  0  0  0  0  0
   12.0954    0.2717   21.4634 H   0  0  0  0  0  0  0  0  0  0  0  0
    9.8606    0.7388   22.3902 H   0  0  0  0  0  0  0  0  0  0  0  0
    8.0293    0.1479   23.8219 H   0  0  0  0  0  0  0  0  0  0  0  0
    8.2952   -1.1299   25.0059 H   0  0  0  0  0  0  0  0  0  0  0  0
    6.6543   -3.0803   24.9344 H   0  0  0  0  0  0  0  0  0  0  0  0
    5.1551   -4.2057   23.0933 H   0  0  0  0  0  0  0  0  0  0  0  0
  1  2  2  0
  2  3  1  0
  3  4  2  0
  4  5  1  0
  5  6  2  0
  6  7  1  0
  7  8  2  0
  8  9  1  0
  6 10  1  0
  5 11  1  0
  4 12  1  0
  2 13  1  0
 13 14  2  0
 14 15  1  0
 15 16  2  0
 16 17  1  0
 17 18  1  0
 18 19  1  0
 19 20  2  0
 20 21  1  0
 21 22  2  0
 22 23  1  0
 22 24  1  0
 24 25  2  0
 25 26  1  0
 24 27  1  0
 21 28  1  0
 20 29  1  0
 18 30  1  0
 18 31  1  0
 16 32  1  0
 15 33  1  0
  8  3  1  0
 17 13  1  0
 25 19  1  0
M  END
>  <cnnaffinity>  (1) 
-6.0824

>  <filename>  (1) 
O=C(c1cccnc1)c1nccn1Cc1ccc(Cl)cc1Br

$$$$
