
     RDKit          3D

 28 30  0  0  0  0  0  0  0  0999 V2000
    5.6063   -2.1071   21.5126 O   0  0  0  0  0  0  0  0  0  0  0  0
    6.7213   -1.6716   21.7163 C   0  0  0  0  0  0  0  0  0  0  0  0
    7.3033   -0.6746   20.9648 N   0  0  0  0  0  0  0  0  0  0  0  0
    6.6802    0.0172   19.8881 C   0  0  0  0  0  0  0  0  0  0  0  0
    5.4668    0.6643   20.1302 C   0  0  0  0  0  0  0  0  0  0  0  0
    4.8303    1.3254   19.0775 C   0  0  0  0  0  0  0  0  0  0  0  0
    5.4271    1.3096   17.8140 C   0  0  0  0  0  0  0  0  0  0  0  0
    6.5974    0.7002   17.5618 N   0  0  0  0  0  0  0  0  0  0  0  0
    7.2171    0.0832   18.5786 C   0  0  0  0  0  0  0  0  0  0  0  0
    8.1593   -0.4106   18.3287 H   0  0  0  0  0  0  0  0  0  0  0  0
    4.9410    1.8009   16.9744 H   0  0  0  0  0  0  0  0  0  0  0  0
    3.8845    1.8304   19.2320 H   0  0  0  0  0  0  0  0  0  0  0  0
    5.0518    0.6163   21.1352 H   0  0  0  0  0  0  0  0  0  0  0  0
    8.2973   -0.5769   21.0777 H   0  0  0  0  0  0  0  0  0  0  0  0
    7.6437   -2.2137   22.7755 C   0  0  0  0  0  0  0  0  0  0  0  0
    8.9478   -2.6091   22.7020 C   0  0  0  0  0  0  0  0  0  0  0  0
    9.9989   -2.3508   21.3699 Cl  0  0  0  0  0  0  0  0  0  0  0  0
    9.2941   -3.2586   23.9330 C   0  0  0  0  0  0  0  0  0  0  0  0
   10.4118   -3.9519   24.4514 C   0  0  0  0  0  0  0  0  0  0  0  0
   10.3145   -4.4895   25.7276 C   0  0  0  0  0  0  0  0  0  0  0  0
    9.1383   -4.3416   26.4988 C   0  0  0  0  0  0  0  0  0  0  0  0
    8.0247   -3.6723   25.9974 C   0  0  0  0  0  0  0  0  0  0  0  0
    8.1211   -3.1560   24.7023 C   0  0  0  0  0  0  0  0  0  0  0  0
    7.1283   -2.5509   23.9998 O   0  0  0  0  0  0  0  0  0  0  0  0
    7.1167   -3.5515   26.5733 H   0  0  0  0  0  0  0  0  0  0  0  0
    9.1150   -4.7551   27.5049 H   0  0  0  0  0  0  0  0  0  0  0  0
   11.1637   -5.0144   26.1504 H   0  0  0  0  0  0  0  0  0  0  0  0
   11.3255   -4.0724   23.8736 H   0  0  0  0  0  0  0  0  0  0  0  0
  1  2  2  0
  2  3  1  0
  3  4  1  0
  4  5  2  0
  5  6  1  0
  6  7  2  0
  7  8  1  0
  8  9  2  0
  9 10  1  0
  7 11  1  0
  6 12  1  0
  5 13  1  0
  3 14  1  0
  2 15  1  0
 15 16  2  0
 16 17  1  0
 16 18  1  0
 18 19  2  0
 19 20  1  0
 20 21  2  0
 21 22  1  0
 22 23  2  0
 23 24  1  0
 22 25  1  0
 21 26  1  0
 20 27  1  0
 19 28  1  0
  9  4  1  0
 24 15  1  0
 23 18  1  0
M  END
>  <cnnaffinity>  (1) 
-5.0396

>  <filename>  (1) 
O=C(Nc1cccnc1)c1oc2ccccc2c1Cl

$$$$
