
     RDKit          3D

 44 47  0  0  0  0  0  0  0  0999 V2000
    8.3192    0.2031   25.6299 O   0  0  0  0  0  0  0  0  0  0  0  0
    7.3189   -0.2553   25.1208 C   0  0  0  0  0  0  0  0  0  0  0  0
    7.3283   -1.6173   24.4931 C   0  0  0  0  0  0  0  0  0  0  0  0
    7.7491   -1.4150   23.0785 C   0  0  0  0  0  0  0  0  0  0  0  0
    8.8954   -1.8498   22.5063 C   0  0  0  0  0  0  0  0  0  0  0  0
    8.9271   -1.4203   20.8409 S   0  0  0  0  0  0  0  0  0  0  0  0
    7.3633   -0.6562   21.0370 C   0  0  0  0  0  0  0  0  0  0  0  0
    6.6442    0.0107   19.9444 C   0  0  0  0  0  0  0  0  0  0  0  0
    5.4167    0.6592   20.1705 C   0  0  0  0  0  0  0  0  0  0  0  0
    4.7934    1.3062   19.1060 C   0  0  0  0  0  0  0  0  0  0  0  0
    5.4218    1.2757   17.8545 C   0  0  0  0  0  0  0  0  0  0  0  0
    6.5806    0.6457   17.6131 N   0  0  0  0  0  0  0  0  0  0  0  0
    7.1768    0.0341   18.6427 C   0  0  0  0  0  0  0  0  0  0  0  0
    8.1261   -0.4543   18.4222 H   0  0  0  0  0  0  0  0  0  0  0  0
    4.9751    1.7841   17.0053 H   0  0  0  0  0  0  0  0  0  0  0  0
    3.8580    1.8428   19.2339 H   0  0  0  0  0  0  0  0  0  0  0  0
    4.9688    0.6588   21.1668 H   0  0  0  0  0  0  0  0  0  0  0  0
    6.9001   -0.7207   22.2574 N   0  0  0  0  0  0  0  0  0  0  0  0
    9.7061   -2.3838   22.9804 H   0  0  0  0  0  0  0  0  0  0  0  0
    8.0392   -2.2257   25.0529 H   0  0  0  0  0  0  0  0  0  0  0  0
    6.3316   -2.0553   24.5218 H   0  0  0  0  0  0  0  0  0  0  0  0
    6.1317    0.4220   25.0413 N   0  0  0  0  0  0  0  0  0  0  0  0
    6.1340    1.8792   25.1914 C   0  0  1  0  0  0  0  0  0  0  0  0
    6.7052    2.5534   23.9201 C   0  0  0  0  0  0  0  0  0  0  0  0
    6.4712    4.0718   23.9220 C   0  0  0  0  0  0  0  0  0  0  0  0
    4.9640    4.3659   23.9459 C   0  0  0  0  0  0  0  0  0  0  0  0
    4.2209    3.5922   25.0292 C   0  0  0  0  0  0  0  0  0  0  0  0
    2.9651    4.0496   25.4644 C   0  0  0  0  0  0  0  0  0  0  0  0
    2.2518    3.3795   26.4595 C   0  0  0  0  0  0  0  0  0  0  0  0
    2.7968    2.2330   27.0469 C   0  0  0  0  0  0  0  0  0  0  0  0
    4.0410    1.7670   26.6222 C   0  0  0  0  0  0  0  0  0  0  0  0
    4.7591    2.4162   25.5992 C   0  0  0  0  0  0  0  0  0  0  0  0
    4.4750    0.8838   27.0821 H   0  0  0  0  0  0  0  0  0  0  0  0
    2.2583    1.7103   27.8347 H   0  0  0  0  0  0  0  0  0  0  0  0
    1.2838    3.7543   26.7831 H   0  0  0  0  0  0  0  0  0  0  0  0
    2.5512    4.9523   25.0182 H   0  0  0  0  0  0  0  0  0  0  0  0
    4.7788    5.4405   24.0809 H   0  0  0  0  0  0  0  0  0  0  0  0
    4.5273    4.1012   22.9682 H   0  0  0  0  0  0  0  0  0  0  0  0
    6.9291    4.5373   23.0399 H   0  0  0  0  0  0  0  0  0  0  0  0
    6.9584    4.5290   24.7969 H   0  0  0  0  0  0  0  0  0  0  0  0
    6.2283    2.1087   23.0317 H   0  0  0  0  0  0  0  0  0  0  0  0
    7.7710    2.3023   23.8577 H   0  0  0  0  0  0  0  0  0  0  0  0
    6.8128    2.0936   26.0292 H   0  0  0  0  0  0  0  0  0  0  0  0
    5.5291    0.0640   24.3135 H   0  0  0  0  0  0  0  0  0  0  0  0
  1  2  2  0
  2  3  1  0
  3  4  1  0
  4  5  2  0
  5  6  1  0
  6  7  1  0
  7  8  1  0
  8  9  2  0
  9 10  1  0
 10 11  2  0
 11 12  1  0
 12 13  2  0
 13 14  1  0
 11 15  1  0
 10 16  1  0
  9 17  1  0
  7 18  2  0
  5 19  1  0
  3 20  1  0
  3 21  1  0
  2 22  1  0
 22 23  1  0
 23 24  1  0
 24 25  1  0
 25 26  1  0
 26 27  1  0
 27 28  2  0
 28 29  1  0
 29 30  2  0
 30 31  1  0
 31 32  2  0
 31 33  1  0
 30 34  1  0
 29 35  1  0
 28 36  1  0
 26 37  1  0
 26 38  1  0
 25 39  1  0
 25 40  1  0
 24 41  1  0
 24 42  1  0
 23 43  1  1
 22 44  1  0
 18  4  1  0
 32 23  1  0
 13  8  1  0
 32 27  1  0
M  END
>  <cnnaffinity>  (1) 
-5.55545

>  <filename>  (1) 
O=C(Cc1csc(-c2cccnc2)n1)N[C@H]1CCCc2ccccc21

$$$$
