
     RDKit          3D

 33 35  0  0  0  0  0  0  0  0999 V2000
    4.8695    1.8428   16.9248 H   0  0  0  0  0  0  0  0  0  0  0  0
    5.3590    1.3264   17.7467 C   0  0  0  0  0  0  0  0  0  0  0  0
    6.5027    0.6922   17.4418 N   0  0  0  0  0  0  0  0  0  0  0  0
    7.1475    0.0707   18.4344 C   0  0  0  0  0  0  0  0  0  0  0  0
    8.0788   -0.4305   18.1867 H   0  0  0  0  0  0  0  0  0  0  0  0
    6.6885    0.0349   19.7627 C   0  0  0  0  0  0  0  0  0  0  0  0
    7.4472   -0.6280   20.7535 N   0  0  0  0  0  0  0  0  0  0  0  0
    8.8448   -0.5999   21.0063 C   0  0  0  0  0  0  0  0  0  0  0  0
    9.6683    0.0138   20.3585 O   0  0  0  0  0  0  0  0  0  0  0  0
    8.9775   -1.4473   22.1870 C   0  0  0  0  0  0  0  0  0  0  0  0
    9.9568   -1.5824   22.6144 H   0  0  0  0  0  0  0  0  0  0  0  0
    7.7424   -1.9048   22.5584 C   0  0  0  0  0  0  0  0  0  0  0  0
    7.1912   -2.6917   23.7474 C   0  0  0  0  0  0  0  0  0  0  0  0
    5.9945   -2.8931   23.8706 O   0  0  0  0  0  0  0  0  0  0  0  0
    8.1290   -3.1077   24.6445 N   0  0  0  0  0  0  0  0  0  0  0  0
    9.0814   -3.0187   24.3468 H   0  0  0  0  0  0  0  0  0  0  0  0
    7.8778   -3.6873   25.9032 C   0  0  0  0  0  0  0  0  0  0  0  0
    6.6436   -3.5118   26.5552 C   0  0  0  0  0  0  0  0  0  0  0  0
    5.8955   -2.8667   26.1098 H   0  0  0  0  0  0  0  0  0  0  0  0
    6.3882   -4.1932   27.7469 C   0  0  0  0  0  0  0  0  0  0  0  0
    5.4299   -4.0946   28.2515 H   0  0  0  0  0  0  0  0  0  0  0  0
    7.3661   -5.0403   28.2726 C   0  0  0  0  0  0  0  0  0  0  0  0
    7.0209   -5.9540   29.7060 Cl  0  0  0  0  0  0  0  0  0  0  0  0
    8.6186   -5.1652   27.6674 C   0  0  0  0  0  0  0  0  0  0  0  0
    9.3728   -5.7818   28.1409 H   0  0  0  0  0  0  0  0  0  0  0  0
    8.8803   -4.4751   26.4809 C   0  0  0  0  0  0  0  0  0  0  0  0
    9.8403   -4.5922   25.9811 H   0  0  0  0  0  0  0  0  0  0  0  0
    6.8231   -1.4564   21.6459 N   0  0  0  0  0  0  0  0  0  0  0  0
    5.8331   -1.3346   21.8387 H   0  0  0  0  0  0  0  0  0  0  0  0
    5.4763    0.6751   20.0663 C   0  0  0  0  0  0  0  0  0  0  0  0
    5.0897    0.6680   21.0871 H   0  0  0  0  0  0  0  0  0  0  0  0
    4.8066    1.3365   19.0346 C   0  0  0  0  0  0  0  0  0  0  0  0
    3.8733    1.8581   19.2183 H   0  0  0  0  0  0  0  0  0  0  0  0
  1  2  1  0
  2  3  2  0
  3  4  1  0
  4  5  1  0
  4  6  2  0
  6  7  1  0
  7  8  1  0
  8  9  2  0
  8 10  1  0
 10 11  1  0
 10 12  2  0
 12 13  1  0
 13 14  2  0
 13 15  1  0
 15 16  1  0
 15 17  1  0
 17 18  2  0
 18 19  1  0
 18 20  1  0
 20 21  1  0
 20 22  2  0
 22 23  1  0
 22 24  1  0
 24 25  1  0
 24 26  2  0
 26 27  1  0
 12 28  1  0
 28 29  1  0
  6 30  1  0
 30 31  1  0
 30 32  2  0
 32 33  1  0
 32  2  1  0
 28  7  1  0
 26 17  1  0
M  END
>  <cnnaffinity>  (1) 
-5.21293

>  <filename>  (1) 
O=C(Nc1ccc(Cl)cc1)c1cc(=O)n(-c2cccnc2)[nH]1

$$$$
