
     RDKit          3D

 37 38  0  0  0  0  0  0  0  0999 V2000
    8.7267   -2.9986   22.4611 O   0  0  0  0  0  0  0  0  0  0  0  0
    8.9378   -1.8237   22.2205 C   0  0  0  0  0  0  0  0  0  0  0  0
    8.5387   -1.1978   20.8837 C   0  0  0  0  0  0  0  0  0  0  0  0
    7.3133   -0.4766   21.0490 O   0  0  0  0  0  0  0  0  0  0  0  0
    6.7012    0.0534   19.9523 C   0  0  0  0  0  0  0  0  0  0  0  0
    5.4532    0.6681   20.1478 C   0  0  0  0  0  0  0  0  0  0  0  0
    4.8380    1.2811   19.0584 C   0  0  0  0  0  0  0  0  0  0  0  0
    5.4713    1.2549   17.8093 C   0  0  0  0  0  0  0  0  0  0  0  0
    6.6430    0.6374   17.6018 N   0  0  0  0  0  0  0  0  0  0  0  0
    7.2353    0.0476   18.6485 C   0  0  0  0  0  0  0  0  0  0  0  0
    8.1793   -0.4578   18.4440 H   0  0  0  0  0  0  0  0  0  0  0  0
    5.0242    1.7344   16.9437 H   0  0  0  0  0  0  0  0  0  0  0  0
    3.8865    1.7942   19.1603 H   0  0  0  0  0  0  0  0  0  0  0  0
    5.0033    0.6558   21.1408 H   0  0  0  0  0  0  0  0  0  0  0  0
    8.4063   -2.0304   20.1939 H   0  0  0  0  0  0  0  0  0  0  0  0
    9.3250   -0.5251   20.5187 H   0  0  0  0  0  0  0  0  0  0  0  0
    9.5674   -0.9658   23.0953 N   0  0  0  0  0  0  0  0  0  0  0  0
    9.6605   -1.3919   24.4846 C   0  0  0  0  0  0  0  0  0  0  0  0
    8.2739   -1.3827   25.1402 C   0  0  0  0  0  0  0  0  0  0  0  0
    7.6896    0.0072   25.1583 C   0  0  0  0  0  0  0  0  0  0  0  0
    7.1476    0.4118   24.0038 N   0  0  0  0  0  0  0  0  0  0  0  0
    6.5800    1.6202   23.9353 C   0  0  0  0  0  0  0  0  0  0  0  0
    6.5964    2.5368   24.9885 C   0  0  0  0  0  0  0  0  0  0  0  0
    7.1872    2.1572   26.1891 C   0  0  0  0  0  0  0  0  0  0  0  0
    7.6941    0.8559   26.2773 C   0  0  0  0  0  0  0  0  0  0  0  0
    8.1101    0.2620   27.5738 C   0  0  0  0  0  0  0  0  0  0  0  0
    9.3608   -0.2471   27.5183 F   0  0  0  0  0  0  0  0  0  0  0  0
    7.2959   -0.7710   27.8913 F   0  0  0  0  0  0  0  0  0  0  0  0
    8.0633    1.1298   28.5957 F   0  0  0  0  0  0  0  0  0  0  0  0
    7.2459    2.8319   27.0455 H   0  0  0  0  0  0  0  0  0  0  0  0
    6.1509    3.5155   24.8701 H   0  0  0  0  0  0  0  0  0  0  0  0
    6.0894    1.8654   22.9985 H   0  0  0  0  0  0  0  0  0  0  0  0
    8.2970   -1.8559   26.1193 H   0  0  0  0  0  0  0  0  0  0  0  0
    7.6262   -2.0020   24.5130 H   0  0  0  0  0  0  0  0  0  0  0  0
   10.0726   -2.4065   24.5004 H   0  0  0  0  0  0  0  0  0  0  0  0
   10.3729   -0.7455   25.0122 H   0  0  0  0  0  0  0  0  0  0  0  0
    9.1836   -0.0333   23.0008 H   0  0  0  0  0  0  0  0  0  0  0  0
  1  2  2  0
  2  3  1  0
  3  4  1  0
  4  5  1  0
  5  6  2  0
  6  7  1  0
  7  8  2  0
  8  9  1  0
  9 10  2  0
 10 11  1  0
  8 12  1  0
  7 13  1  0
  6 14  1  0
  3 15  1  0
  3 16  1  0
  2 17  1  0
 17 18  1  0
 18 19  1  0
 19 20  1  0
 20 21  2  0
 21 22  1  0
 22 23  2  0
 23 24  1  0
 24 25  2  0
 25 26  1  0
 26 27  1  0
 26 28  1  0
 26 29  1  0
 24 30  1  0
 23 31  1  0
 22 32  1  0
 19 33  1  0
 19 34  1  0
 18 35  1  0
 18 36  1  0
 17 37  1  0
 10  5  1  0
 25 20  1  0
M  END
>  <cnnaffinity>  (1) 
-5.06555

>  <filename>  (1) 
O=C(COc1cccnc1)NCCc1ncccc1C(F)(F)F

$$$$
