
     RDKit          3D

 34 36  0  0  0  0  0  0  0  0999 V2000
    4.9659    1.7608   17.0075 H   0  0  0  0  0  0  0  0  0  0  0  0
    5.4225    1.2740   17.8679 C   0  0  0  0  0  0  0  0  0  0  0  0
    6.5854    0.6449   17.6441 N   0  0  0  0  0  0  0  0  0  0  0  0
    7.1828    0.0468   18.6810 C   0  0  0  0  0  0  0  0  0  0  0  0
    8.1163   -0.4615   18.4464 H   0  0  0  0  0  0  0  0  0  0  0  0
    6.6655    0.0560   19.9863 C   0  0  0  0  0  0  0  0  0  0  0  0
    7.4354   -0.6736   21.0490 C   0  0  0  0  0  0  0  0  0  0  0  0
    8.0522   -1.6976   20.7990 O   0  0  0  0  0  0  0  0  0  0  0  0
    7.4285   -0.1410   22.3073 N   0  0  0  0  0  0  0  0  0  0  0  0
    8.0782   -0.6879   23.4934 C   0  0  0  0  0  0  0  0  0  0  0  0
    9.1401   -0.9153   23.3447 H   0  0  0  0  0  0  0  0  0  0  0  0
    7.6156   -1.6030   23.8851 H   0  0  0  0  0  0  0  0  0  0  0  0
    7.7616    0.6468   24.2473 C   0  0  0  0  0  0  0  0  0  0  0  0
    8.6751    1.1886   24.5195 H   0  0  0  0  0  0  0  0  0  0  0  0
    6.8314    0.5635   25.4393 C   0  0  0  0  0  0  0  0  0  0  0  0
    5.6085   -0.1147   25.3235 C   0  0  0  0  0  0  0  0  0  0  0  0
    5.3997   -0.5880   24.3776 H   0  0  0  0  0  0  0  0  0  0  0  0
    4.7123   -0.2035   26.3919 C   0  0  0  0  0  0  0  0  0  0  0  0
    3.7668   -0.7243   26.2715 H   0  0  0  0  0  0  0  0  0  0  0  0
    5.0354    0.3726   27.6206 C   0  0  0  0  0  0  0  0  0  0  0  0
    4.3697    0.3115   28.4759 H   0  0  0  0  0  0  0  0  0  0  0  0
    6.2635    1.0382   27.7478 C   0  0  0  0  0  0  0  0  0  0  0  0
    6.6202    1.6484   29.0554 N   0  0  0  0  0  4  0  0  0  0  0  0
    5.8191    1.5417   29.9715 O   0  0  0  0  0  0  0  0  0  0  0  0
    7.6894    2.2292   29.1518 O   0  0  0  0  0  1  0  0  0  0  0  0
    7.1570    1.1386   26.6758 C   0  0  0  0  0  0  0  0  0  0  0  0
    8.0993    1.6574   26.8242 H   0  0  0  0  0  0  0  0  0  0  0  0
    7.1475    1.1686   22.9054 C   0  0  0  0  0  0  0  0  0  0  0  0
    6.0836    1.4322   22.9460 H   0  0  0  0  0  0  0  0  0  0  0  0
    7.6691    2.0060   22.4254 H   0  0  0  0  0  0  0  0  0  0  0  0
    5.4318    0.6909   20.1980 C   0  0  0  0  0  0  0  0  0  0  0  0
    4.9475    0.6802   21.1763 H   0  0  0  0  0  0  0  0  0  0  0  0
    4.8061    1.3158   19.1223 C   0  0  0  0  0  0  0  0  0  0  0  0
    3.8625    1.8371   19.2419 H   0  0  0  0  0  0  0  0  0  0  0  0
  1  2  1  0
  2  3  2  0
  3  4  1  0
  4  5  1  0
  4  6  2  0
  6  7  1  0
  7  8  2  0
  7  9  1  0
  9 10  1  0
 10 11  1  0
 10 12  1  0
 10 13  1  0
 13 14  1  0
 13 15  1  0
 15 16  2  0
 16 17  1  0
 16 18  1  0
 18 19  1  0
 18 20  2  0
 20 21  1  0
 20 22  1  0
 22 23  1  0
 23 24  2  0
 23 25  1  0
 22 26  2  0
 26 27  1  0
 13 28  1  0
 28 29  1  0
 28 30  1  0
  6 31  1  0
 31 32  1  0
 31 33  2  0
 33 34  1  0
 33  2  1  0
 28  9  1  0
 26 15  1  0
M  CHG  2  23   1  25  -1
M  END
>  <cnnaffinity>  (1) 
-4.68845

>  <filename>  (1) 
O=C(c1cccnc1)N1CC(c2cccc([N+](=O)[O-])c2)C1

$$$$
