
     RDKit          3D

 39 41  0  0  0  0  0  0  0  0999 V2000
    5.1651   -4.0159   22.2172 O   0  0  0  0  0  0  0  0  0  0  0  0
    5.4874   -3.8230   23.3748 C   0  0  0  0  0  0  0  0  0  0  0  0
    4.6801   -4.3820   24.5461 C   0  0  0  0  0  0  0  0  0  0  0  0
    3.5576   -3.4411   24.9718 C   0  0  0  0  0  0  0  0  0  0  0  0
    2.2733   -3.5579   24.4165 C   0  0  0  0  0  0  0  0  0  0  0  0
    1.3091   -2.5498   24.5544 C   0  0  0  0  0  0  0  0  0  0  0  0
    1.5871   -1.4490   25.3710 C   0  0  0  0  0  0  0  0  0  0  0  0
    2.8044   -1.3823   26.0566 C   0  0  0  0  0  0  0  0  0  0  0  0
    3.7873   -2.3530   25.8406 C   0  0  0  0  0  0  0  0  0  0  0  0
    4.9992   -2.2417   26.4727 O   0  0  0  0  0  0  0  0  0  0  0  0
    4.9197   -1.4853   27.0680 H   0  0  0  0  0  0  0  0  0  0  0  0
    3.0298   -0.5487   26.7227 H   0  0  0  0  0  0  0  0  0  0  0  0
    0.8603   -0.6463   25.4844 H   0  0  0  0  0  0  0  0  0  0  0  0
    0.3706   -2.6019   24.0024 H   0  0  0  0  0  0  0  0  0  0  0  0
    2.0357   -4.4362   23.8172 H   0  0  0  0  0  0  0  0  0  0  0  0
    4.2731   -5.3199   24.1663 H   0  0  0  0  0  0  0  0  0  0  0  0
    5.3542   -4.6046   25.3782 H   0  0  0  0  0  0  0  0  0  0  0  0
    6.5874   -3.0980   23.7446 N   0  0  0  0  0  0  0  0  0  0  0  0
    7.3232   -2.2568   22.8763 C   0  0  0  0  0  0  0  0  0  0  0  0
    8.6987   -2.0780   23.0787 C   0  0  0  0  0  0  0  0  0  0  0  0
    9.4195   -1.2447   22.2137 C   0  0  0  0  0  0  0  0  0  0  0  0
    8.7708   -0.5732   21.1696 C   0  0  0  0  0  0  0  0  0  0  0  0
    7.3835   -0.7268   20.9809 C   0  0  0  0  0  0  0  0  0  0  0  0
    6.6534    0.0020   19.8979 C   0  0  0  0  0  0  0  0  0  0  0  0
    5.4270    0.6551   20.1285 C   0  0  0  0  0  0  0  0  0  0  0  0
    4.7986    1.3222   19.0737 C   0  0  0  0  0  0  0  0  0  0  0  0
    5.4035    1.3050   17.8123 C   0  0  0  0  0  0  0  0  0  0  0  0
    6.5598    0.6725   17.5588 N   0  0  0  0  0  0  0  0  0  0  0  0
    7.1609    0.0570   18.5864 C   0  0  0  0  0  0  0  0  0  0  0  0
    8.0993   -0.4417   18.3461 H   0  0  0  0  0  0  0  0  0  0  0  0
    4.9426    1.8196   16.9709 H   0  0  0  0  0  0  0  0  0  0  0  0
    3.8615    1.8530   19.2135 H   0  0  0  0  0  0  0  0  0  0  0  0
    4.9965    0.6540   21.1314 H   0  0  0  0  0  0  0  0  0  0  0  0
    6.6790   -1.5853   21.8350 C   0  0  0  0  0  0  0  0  0  0  0  0
    5.6206   -1.7704   21.6937 H   0  0  0  0  0  0  0  0  0  0  0  0
    9.3228    0.0878   20.5059 H   0  0  0  0  0  0  0  0  0  0  0  0
   10.4912   -1.1133   22.3521 H   0  0  0  0  0  0  0  0  0  0  0  0
    9.1999   -2.5997   23.8891 H   0  0  0  0  0  0  0  0  0  0  0  0
    6.7172   -2.9624   24.7327 H   0  0  0  0  0  0  0  0  0  0  0  0
  1  2  2  0
  2  3  1  0
  3  4  1  0
  4  5  2  0
  5  6  1  0
  6  7  2  0
  7  8  1  0
  8  9  2  0
  9 10  1  0
 10 11  1  0
  8 12  1  0
  7 13  1  0
  6 14  1  0
  5 15  1  0
  3 16  1  0
  3 17  1  0
  2 18  1  0
 18 19  1  0
 19 20  2  0
 20 21  1  0
 21 22  2  0
 22 23  1  0
 23 24  1  0
 24 25  2  0
 25 26  1  0
 26 27  2  0
 27 28  1  0
 28 29  2  0
 29 30  1  0
 27 31  1  0
 26 32  1  0
 25 33  1  0
 23 34  2  0
 34 35  1  0
 22 36  1  0
 21 37  1  0
 20 38  1  0
 18 39  1  0
  9  4  1  0
 34 19  1  0
 29 24  1  0
M  END
>  <cnnaffinity>  (1) 
-5.394

>  <filename>  (1) 
O=C(Cc1ccccc1O)Nc1cccc(-c2cccnc2)c1

$$$$
