
     RDKit          3D

 34 35  0  0  0  0  0  0  0  0999 V2000
    8.3372    1.1974   24.3110 O   0  0  0  0  0  0  0  0  0  0  0  0
    7.6730    1.5126   23.3551 C   0  0  0  0  0  0  0  0  0  0  0  0
    8.3445    1.6433   21.9979 C   0  0  0  0  0  0  0  0  0  0  0  0
    8.9749    0.0856   21.2833 S   0  0  0  0  0  0  0  0  0  0  0  0
    7.3866   -0.7429   20.9740 C   0  0  0  0  0  0  0  0  0  0  0  0
    6.6060   -0.0499   19.8823 C   0  0  0  0  0  0  0  0  0  0  0  0
    5.4040    0.6262   20.1237 C   0  0  0  0  0  0  0  0  0  0  0  0
    4.7768    1.3123   19.0754 C   0  0  0  0  0  0  0  0  0  0  0  0
    5.3895    1.3078   17.8214 C   0  0  0  0  0  0  0  0  0  0  0  0
    6.5548    0.6886   17.5704 N   0  0  0  0  0  0  0  0  0  0  0  0
    7.1423    0.0472   18.5858 C   0  0  0  0  0  0  0  0  0  0  0  0
    8.1090   -0.4034   18.3626 H   0  0  0  0  0  0  0  0  0  0  0  0
    4.9316    1.8227   16.9786 H   0  0  0  0  0  0  0  0  0  0  0  0
    3.8499    1.8600   19.2234 H   0  0  0  0  0  0  0  0  0  0  0  0
    4.9746    0.6470   21.1292 H   0  0  0  0  0  0  0  0  0  0  0  0
    6.8259   -0.7708   21.9176 H   0  0  0  0  0  0  0  0  0  0  0  0
    7.6494   -1.7781   20.7245 H   0  0  0  0  0  0  0  0  0  0  0  0
    9.2371    2.2369   22.1927 H   0  0  0  0  0  0  0  0  0  0  0  0
    7.7040    2.1662   21.2873 H   0  0  0  0  0  0  0  0  0  0  0  0
    6.3306    1.8165   23.3927 N   0  0  0  0  0  0  0  0  0  0  0  0
    5.5047    1.4274   24.4232 C   0  0  0  0  0  0  0  0  0  0  0  0
    5.9238    0.4199   25.1632 N   0  0  0  0  0  0  0  0  0  0  0  0
    5.1490   -0.0310   26.1458 C   0  0  0  0  0  0  0  0  0  0  0  0
    3.8924    0.5040   26.4300 C   0  0  0  0  0  0  0  0  0  0  0  0
    3.4350    1.5638   25.6540 C   0  0  0  0  0  0  0  0  0  0  0  0
    4.2616    2.0445   24.6373 C   0  0  0  0  0  0  0  0  0  0  0  0
    3.8458    3.1674   23.7571 C   0  0  0  0  0  0  0  0  0  0  0  0
    3.6609    2.7512   22.4807 F   0  0  0  0  0  0  0  0  0  0  0  0
    2.6913    3.7341   24.1424 F   0  0  0  0  0  0  0  0  0  0  0  0
    4.7572    4.1592   23.6982 F   0  0  0  0  0  0  0  0  0  0  0  0
    2.4600    2.0272   25.8227 H   0  0  0  0  0  0  0  0  0  0  0  0
    3.3032    0.0969   27.2407 H   0  0  0  0  0  0  0  0  0  0  0  0
    5.5602   -0.8488   26.7381 H   0  0  0  0  0  0  0  0  0  0  0  0
    5.9651    2.4386   22.7048 H   0  0  0  0  0  0  0  0  0  0  0  0
  1  2  2  0
  2  3  1  0
  3  4  1  0
  4  5  1  0
  5  6  1  0
  6  7  2  0
  7  8  1  0
  8  9  2  0
  9 10  1  0
 10 11  2  0
 11 12  1  0
  9 13  1  0
  8 14  1  0
  7 15  1  0
  5 16  1  0
  5 17  1  0
  3 18  1  0
  3 19  1  0
  2 20  1  0
 20 21  1  0
 21 22  2  0
 22 23  1  0
 23 24  2  0
 24 25  1  0
 25 26  2  0
 26 27  1  0
 27 28  1  0
 27 29  1  0
 27 30  1  0
 25 31  1  0
 24 32  1  0
 23 33  1  0
 20 34  1  0
 11  6  1  0
 26 21  1  0
M  END
>  <cnnaffinity>  (1) 
-4.68596

>  <filename>  (1) 
O=C(CSCc1cccnc1)Nc1ncccc1C(F)(F)F

$$$$
