
     RDKit          3D

 30 32  0  0  0  0  0  0  0  0999 V2000
    5.0211    1.8564   16.9722 H   0  0  0  0  0  0  0  0  0  0  0  0
    5.4458    1.3124   17.8126 C   0  0  0  0  0  0  0  0  0  0  0  0
    6.5805    0.6426   17.5651 N   0  0  0  0  0  0  0  0  0  0  0  0
    7.1304   -0.0344   18.5752 C   0  0  0  0  0  0  0  0  0  0  0  0
    8.0484   -0.5720   18.3496 H   0  0  0  0  0  0  0  0  0  0  0  0
    6.5896   -0.0634   19.8698 C   0  0  0  0  0  0  0  0  0  0  0  0
    7.3815   -0.7999   20.8961 C   0  0  0  0  0  0  0  0  0  0  0  0
    8.1683   -1.6659   20.6145 O   0  0  0  0  0  0  0  0  0  0  0  0
    7.2324   -0.2375   22.6298 S   0  0  0  0  0  0  0  0  0  0  0  0
    8.6725    0.8401   22.6747 C   0  0  0  0  0  0  0  0  0  0  0  0
    9.9292    0.2768   22.7778 C   0  0  0  0  0  0  0  0  0  0  0  0
   10.0304   -0.8065   22.8062 H   0  0  0  0  0  0  0  0  0  0  0  0
   11.0929    1.0961   22.8042 C   0  0  0  0  0  0  0  0  0  0  0  0
   12.0753    0.6301   22.8018 H   0  0  0  0  0  0  0  0  0  0  0  0
   10.9719    2.4662   22.8025 C   0  0  0  0  0  0  0  0  0  0  0  0
   11.8481    3.1092   22.8639 H   0  0  0  0  0  0  0  0  0  0  0  0
    9.6867    3.0852   22.6945 C   0  0  0  0  0  0  0  0  0  0  0  0
    9.5424    4.5036   22.6477 C   0  0  0  0  0  0  0  0  0  0  0  0
   10.4390    5.1041   22.7637 H   0  0  0  0  0  0  0  0  0  0  0  0
    8.3290    5.0898   22.3614 C   0  0  0  0  0  0  0  0  0  0  0  0
    8.2312    6.1707   22.3121 H   0  0  0  0  0  0  0  0  0  0  0  0
    7.2004    4.2734   22.0843 C   0  0  0  0  0  0  0  0  0  0  0  0
    6.2719    4.7304   21.7489 H   0  0  0  0  0  0  0  0  0  0  0  0
    7.2827    2.9081   22.2246 C   0  0  0  0  0  0  0  0  0  0  0  0
    6.4082    2.2873   22.0811 H   0  0  0  0  0  0  0  0  0  0  0  0
    8.5162    2.2681   22.5560 C   0  0  0  0  0  0  0  0  0  0  0  0
    5.3746    0.5914   20.1054 C   0  0  0  0  0  0  0  0  0  0  0  0
    4.8854    0.5413   21.0802 H   0  0  0  0  0  0  0  0  0  0  0  0
    4.7981    1.3041   19.0524 C   0  0  0  0  0  0  0  0  0  0  0  0
    3.8710    1.8494   19.1854 H   0  0  0  0  0  0  0  0  0  0  0  0
  1  2  1  0
  2  3  2  0
  3  4  1  0
  4  5  1  0
  4  6  2  0
  6  7  1  0
  7  8  2  0
  7  9  1  0
  9 10  1  0
 10 11  2  0
 11 12  1  0
 11 13  1  0
 13 14  1  0
 13 15  2  0
 15 16  1  0
 15 17  1  0
 17 18  2  0
 18 19  1  0
 18 20  1  0
 20 21  1  0
 20 22  2  0
 22 23  1  0
 22 24  1  0
 24 25  1  0
 24 26  2  0
  6 27  1  0
 27 28  1  0
 27 29  2  0
 29 30  1  0
 29  2  1  0
 26 10  1  0
 26 17  1  0
M  END
>  <cnnaffinity>  (1) 
-4.94421

>  <filename>  (1) 
O=C(Sc1cccc2ccccc12)c1cccnc1

$$$$
