
     RDKit          3D

 31 33  0  0  0  0  0  0  0  0999 V2000
    5.0436    1.7256   17.1162 H   0  0  0  0  0  0  0  0  0  0  0  0
    5.4579    1.1743   17.9587 C   0  0  0  0  0  0  0  0  0  0  0  0
    6.6137    0.5301   17.7281 N   0  0  0  0  0  0  0  0  0  0  0  0
    7.1677   -0.1107   18.7565 C   0  0  0  0  0  0  0  0  0  0  0  0
    8.1259   -0.5995   18.5710 H   0  0  0  0  0  0  0  0  0  0  0  0
    6.5979   -0.1743   20.0333 C   0  0  0  0  0  0  0  0  0  0  0  0
    7.4319   -0.7848   21.0643 C   0  0  0  0  0  0  0  0  0  0  0  0
    8.7011   -0.5399   21.2173 N   0  0  0  0  0  0  0  0  0  0  0  0
    9.1184   -1.1629   22.3718 N   0  0  0  0  0  0  0  0  0  0  0  0
    8.1016   -1.7946   22.8646 C   0  0  0  0  0  0  0  0  0  0  0  0
    8.1196   -2.3975   23.7691 H   0  0  0  0  0  0  0  0  0  0  0  0
    6.9809   -1.6091   22.0674 N   0  0  0  0  0  0  0  0  0  0  0  0
    5.9311   -2.5356   21.8654 C   0  0  0  0  0  0  0  0  0  0  0  0
    5.5386   -2.8354   20.7664 O   0  0  0  0  0  0  0  0  0  0  0  0
    5.5300   -3.0210   23.0875 N   0  0  0  0  0  0  0  0  0  0  0  0
    5.6902   -2.2858   23.7591 H   0  0  0  0  0  0  0  0  0  0  0  0
    4.3232   -3.7165   23.3044 C   0  0  0  0  0  0  0  0  0  0  0  0
    3.8953   -4.7183   22.4298 C   0  0  0  0  0  0  0  0  0  0  0  0
    4.5424   -4.9837   21.6032 H   0  0  0  0  0  0  0  0  0  0  0  0
    2.6521   -5.3299   22.6299 C   0  0  0  0  0  0  0  0  0  0  0  0
    2.2824   -6.0917   21.9508 H   0  0  0  0  0  0  0  0  0  0  0  0
    1.8660   -4.9557   23.7237 C   0  0  0  0  0  0  0  0  0  0  0  0
    0.3050   -5.6942   23.9565 Cl  0  0  0  0  0  0  0  0  0  0  0  0
    2.3222   -4.0040   24.6410 C   0  0  0  0  0  0  0  0  0  0  0  0
    1.7140   -3.7527   25.5038 H   0  0  0  0  0  0  0  0  0  0  0  0
    3.5615   -3.3937   24.4310 C   0  0  0  0  0  0  0  0  0  0  0  0
    3.9323   -2.6512   25.1324 H   0  0  0  0  0  0  0  0  0  0  0  0
    5.3685    0.4644   20.2592 C   0  0  0  0  0  0  0  0  0  0  0  0
    4.8847    0.4337   21.2381 H   0  0  0  0  0  0  0  0  0  0  0  0
    4.8026    1.1679   19.1949 C   0  0  0  0  0  0  0  0  0  0  0  0
    3.8870    1.7358   19.3148 H   0  0  0  0  0  0  0  0  0  0  0  0
  1  2  1  0
  2  3  2  0
  3  4  1  0
  4  5  1  0
  4  6  2  0
  6  7  1  0
  7  8  2  0
  8  9  1  0
  9 10  2  0
 10 11  1  0
 10 12  1  0
 12 13  1  0
 13 14  2  0
 13 15  1  0
 15 16  1  0
 15 17  1  0
 17 18  2  0
 18 19  1  0
 18 20  1  0
 20 21  1  0
 20 22  2  0
 22 23  1  0
 22 24  1  0
 24 25  1  0
 24 26  2  0
 26 27  1  0
  6 28  1  0
 28 29  1  0
 28 30  2  0
 30 31  1  0
 30  2  1  0
 12  7  1  0
 26 17  1  0
M  END
>  <cnnaffinity>  (1) 
-5.38681

>  <filename>  (1) 
O=C(Nc1ccc(Cl)cc1)n1cnnc1-c1cccnc1

$$$$
