
     RDKit          3D

 33 35  0  0  0  0  0  0  0  0999 V2000
    4.9466    1.8108   16.9405 H   0  0  0  0  0  0  0  0  0  0  0  0
    5.4009    1.3080   17.7914 C   0  0  0  0  0  0  0  0  0  0  0  0
    6.5469    0.6522   17.5482 N   0  0  0  0  0  0  0  0  0  0  0  0
    7.1528    0.0361   18.5686 C   0  0  0  0  0  0  0  0  0  0  0  0
    8.0856   -0.4863   18.3555 H   0  0  0  0  0  0  0  0  0  0  0  0
    6.6323    0.0386   19.8756 C   0  0  0  0  0  0  0  0  0  0  0  0
    7.2978   -0.6209   20.9483 N   0  0  0  0  0  0  0  0  0  0  0  0
    6.6854   -1.5592   21.7617 C   0  0  0  0  0  0  0  0  0  0  0  0
    5.6524   -1.8233   21.5683 H   0  0  0  0  0  0  0  0  0  0  0  0
    7.6039   -1.9877   22.6656 C   0  0  0  0  0  0  0  0  0  0  0  0
    7.5655   -3.0041   23.7636 C   0  0  0  0  0  0  0  0  0  0  0  0
    8.6005   -3.3692   24.3004 O   0  0  0  0  0  0  0  0  0  0  0  0
    6.3141   -3.4580   24.0828 N   0  0  0  0  0  0  0  0  0  0  0  0
    5.5456   -2.9443   23.6882 H   0  0  0  0  0  0  0  0  0  0  0  0
    6.0141   -4.5178   24.9471 C   0  0  0  0  0  0  0  0  0  0  0  0
    4.7655   -4.6266   25.5721 C   0  0  0  0  0  0  0  0  0  0  0  0
    3.9828   -3.9070   25.3459 H   0  0  0  0  0  0  0  0  0  0  0  0
    4.5575   -5.6268   26.5348 C   0  0  0  0  0  0  0  0  0  0  0  0
    3.6389   -5.6790   27.1086 H   0  0  0  0  0  0  0  0  0  0  0  0
    5.5793   -6.5393   26.8170 C   0  0  0  0  0  0  0  0  0  0  0  0
    5.3716   -7.7662   28.0317 Cl  0  0  0  0  0  0  0  0  0  0  0  0
    6.7993   -6.4461   26.1510 C   0  0  0  0  0  0  0  0  0  0  0  0
    7.6331   -7.0958   26.3412 H   0  0  0  0  0  0  0  0  0  0  0  0
    7.0120   -5.4606   25.2072 C   0  0  0  0  0  0  0  0  0  0  0  0
    7.9640   -5.3919   24.7057 H   0  0  0  0  0  0  0  0  0  0  0  0
    8.7742   -1.2847   22.3629 N   0  0  0  0  0  0  0  0  0  0  0  0
    9.6839   -1.3460   22.8031 H   0  0  0  0  0  0  0  0  0  0  0  0
    8.6020   -0.4041   21.3558 C   0  0  0  0  0  0  0  0  0  0  0  0
    9.7227    0.6882   20.8012 S   0  0  0  0  0  0  0  0  0  0  0  0
    5.4245    0.6962   20.1169 C   0  0  0  0  0  0  0  0  0  0  0  0
    5.0065    0.6863   21.1248 H   0  0  0  0  0  0  0  0  0  0  0  0
    4.8011    1.3529   19.0545 C   0  0  0  0  0  0  0  0  0  0  0  0
    3.8718    1.8923   19.1926 H   0  0  0  0  0  0  0  0  0  0  0  0
  1  2  1  0
  2  3  2  0
  3  4  1  0
  4  5  1  0
  4  6  2  0
  6  7  1  0
  7  8  1  0
  8  9  1  0
  8 10  2  0
 10 11  1  0
 11 12  2  0
 11 13  1  0
 13 14  1  0
 13 15  1  0
 15 16  2  0
 16 17  1  0
 16 18  1  0
 18 19  1  0
 18 20  2  0
 20 21  1  0
 20 22  1  0
 22 23  1  0
 22 24  2  0
 24 25  1  0
 10 26  1  0
 26 27  1  0
 26 28  1  0
 28 29  2  0
  6 30  1  0
 30 31  1  0
 30 32  2  0
 32 33  1  0
 32  2  1  0
 28  7  1  0
 24 15  1  0
M  END
>  <cnnaffinity>  (1) 
-5.42777

>  <filename>  (1) 
O=C(Nc1ccc(Cl)cc1)c1cn(-c2cccnc2)c(=S)[nH]1

$$$$
