
     RDKit          3D

 41 43  0  0  0  0  0  0  0  0999 V2000
   14.1352    2.2381   22.9373 H   0  0  0  0  0  0  0  0  0  0  0  0
   14.1941    1.3966   23.4127 O   0  0  0  0  0  0  0  0  0  0  0  0
   13.4844    0.4235   22.6739 C   0  0  0  0  0  0  0  0  0  0  0  0
   13.6151   -0.5168   23.2260 H   0  0  0  0  0  0  0  0  0  0  0  0
   13.9227    0.2703   21.6708 H   0  0  0  0  0  0  0  0  0  0  0  0
   11.9900    0.7762   22.5920 C   0  0  0  0  0  0  0  0  0  0  0  0
   11.9377    1.7987   22.1898 H   0  0  0  0  0  0  0  0  0  0  0  0
   11.3747    0.7718   24.0248 C   0  0  0  0  0  0  0  0  0  0  0  0
   11.8776    0.0047   24.6263 H   0  0  0  0  0  0  0  0  0  0  0  0
   11.5562    1.7244   24.5350 H   0  0  0  0  0  0  0  0  0  0  0  0
    9.8862    0.4327   24.0705 C   0  0  0  0  0  0  0  0  0  0  0  0
    9.2749    1.2333   23.6180 H   0  0  0  0  0  0  0  0  0  0  0  0
    9.5743    0.3480   25.1231 H   0  0  0  0  0  0  0  0  0  0  0  0
    9.6059   -0.8660   23.4324 N   0  0  0  0  0  0  0  0  0  0  0  0
    8.1830   -1.0797   23.2398 C   0  0  0  0  0  0  0  0  0  0  0  0
    7.3643   -0.1636   22.2652 C   0  0  0  0  0  0  0  0  0  0  0  0
    6.7939    0.8510   22.6262 O   0  0  0  0  0  0  0  0  0  0  0  0
    7.3492   -0.5830   20.9512 N   0  0  0  0  0  0  0  0  0  0  0  0
    7.8307   -1.4463   20.7636 H   0  0  0  0  0  0  0  0  0  0  0  0
    6.6683    0.0470   19.8730 C   0  0  0  0  0  0  0  0  0  0  0  0
    7.1785    0.0160   18.5568 C   0  0  0  0  0  0  0  0  0  0  0  0
    8.1073   -0.5192   18.3479 H   0  0  0  0  0  0  0  0  0  0  0  0
    6.5931    0.6214   17.5175 N   0  0  0  0  0  0  0  0  0  0  0  0
    5.4378    1.2738   17.7442 C   0  0  0  0  0  0  0  0  0  0  0  0
    4.9846    1.7601   16.8850 H   0  0  0  0  0  0  0  0  0  0  0  0
    4.8268    1.3248   19.0000 C   0  0  0  0  0  0  0  0  0  0  0  0
    3.8838    1.8532   19.1229 H   0  0  0  0  0  0  0  0  0  0  0  0
    5.4494    0.7097   20.0878 C   0  0  0  0  0  0  0  0  0  0  0  0
    5.0305    0.7345   21.0889 H   0  0  0  0  0  0  0  0  0  0  0  0
    7.7353   -2.5081   23.4461 C   0  0  0  0  0  0  0  0  0  0  0  0
    6.8939   -2.8907   22.8740 H   0  0  0  0  0  0  0  0  0  0  0  0
    8.5295   -3.2262   23.6333 H   0  0  0  0  0  0  0  0  0  0  0  0
    7.4779   -1.4865   24.5124 C   0  0  0  0  0  0  0  0  0  0  0  0
    8.1002   -1.5196   25.4049 H   0  0  0  0  0  0  0  0  0  0  0  0
    6.4644   -1.1294   24.6747 H   0  0  0  0  0  0  0  0  0  0  0  0
   10.5313   -1.3153   22.3729 C   0  0  0  0  0  0  0  0  0  0  0  0
   11.3089   -1.9618   22.8189 H   0  0  0  0  0  0  0  0  0  0  0  0
    9.9859   -1.9423   21.6603 H   0  0  0  0  0  0  0  0  0  0  0  0
   11.1912   -0.1431   21.6312 C   0  0  0  0  0  0  0  0  0  0  0  0
   10.3954    0.4404   21.1442 H   0  0  0  0  0  0  0  0  0  0  0  0
   11.8366   -0.5307   20.8341 H   0  0  0  0  0  0  0  0  0  0  0  0
  1  2  1  0
  2  3  1  0
  3  4  1  0
  3  5  1  0
  3  6  1  0
  6  7  1  0
  6  8  1  0
  8  9  1  0
  8 10  1  0
  8 11  1  0
 11 12  1  0
 11 13  1  0
 11 14  1  0
 14 15  1  0
 15 16  1  0
 16 17  2  0
 16 18  1  0
 18 19  1  0
 18 20  1  0
 20 21  2  0
 21 22  1  0
 21 23  1  0
 23 24  2  0
 24 25  1  0
 24 26  1  0
 26 27  1  0
 26 28  2  0
 28 29  1  0
 15 30  1  0
 30 31  1  0
 30 32  1  0
 30 33  1  0
 33 34  1  0
 33 35  1  0
 14 36  1  0
 36 37  1  0
 36 38  1  0
 36 39  1  0
 39 40  1  0
 39 41  1  0
 39  6  1  0
 33 15  1  0
 28 20  1  0
M  END
>  <cnnaffinity>  (1) 
-5.15

>  <filename>  (1) 
O=C(Nc1cccnc1)C1(N2CCC(CO)CC2)CC1

$$$$
