
     RDKit          3D

 32 34  0  0  0  0  0  0  0  0999 V2000
    4.8892    1.8299   16.9525 H   0  0  0  0  0  0  0  0  0  0  0  0
    5.3709    1.3096   17.7763 C   0  0  0  0  0  0  0  0  0  0  0  0
    6.5156    0.6710   17.4826 N   0  0  0  0  0  0  0  0  0  0  0  0
    7.1553    0.0473   18.4763 C   0  0  0  0  0  0  0  0  0  0  0  0
    8.0842   -0.4687   18.2361 H   0  0  0  0  0  0  0  0  0  0  0  0
    6.6867    0.0217   19.8006 C   0  0  0  0  0  0  0  0  0  0  0  0
    7.4456   -0.6344   20.7935 N   0  0  0  0  0  0  0  0  0  0  0  0
    8.8453   -0.6167   21.0251 C   0  0  0  0  0  0  0  0  0  0  0  0
    9.6603   -0.0033   20.3659 O   0  0  0  0  0  0  0  0  0  0  0  0
    9.0014   -1.4663   22.2017 C   0  0  0  0  0  0  0  0  0  0  0  0
    9.9832   -1.5983   22.6275 H   0  0  0  0  0  0  0  0  0  0  0  0
    7.7699   -1.9257   22.5791 C   0  0  0  0  0  0  0  0  0  0  0  0
    7.2269   -2.7236   23.7545 C   0  0  0  0  0  0  0  0  0  0  0  0
    6.0223   -2.8585   23.9071 O   0  0  0  0  0  0  0  0  0  0  0  0
    8.1714   -3.2529   24.5878 N   0  0  0  0  0  0  0  0  0  0  0  0
    9.1250   -3.1812   24.2918 H   0  0  0  0  0  0  0  0  0  0  0  0
    7.9484   -3.8034   25.8473 C   0  0  0  0  0  0  0  0  0  0  0  0
    8.9484   -4.5846   26.4222 C   0  0  0  0  0  0  0  0  0  0  0  0
    9.8990   -4.7400   25.9253 H   0  0  0  0  0  0  0  0  0  0  0  0
    8.6900   -5.1708   27.6565 C   0  0  0  0  0  0  0  0  0  0  0  0
    9.4388   -5.8088   28.1209 H   0  0  0  0  0  0  0  0  0  0  0  0
    7.5403   -5.0300   28.3277 N   0  0  0  0  0  0  0  0  0  0  0  0
    6.6010   -4.2610   27.7609 C   0  0  0  0  0  0  0  0  0  0  0  0
    5.6659   -4.1752   28.3134 H   0  0  0  0  0  0  0  0  0  0  0  0
    6.7535   -3.6131   26.5438 C   0  0  0  0  0  0  0  0  0  0  0  0
    5.9683   -2.9886   26.1534 H   0  0  0  0  0  0  0  0  0  0  0  0
    6.8371   -1.4839   21.6740 N   0  0  0  0  0  0  0  0  0  0  0  0
    5.8528   -1.3466   21.8955 H   0  0  0  0  0  0  0  0  0  0  0  0
    5.4715    0.6611   20.0929 C   0  0  0  0  0  0  0  0  0  0  0  0
    5.0770    0.6482   21.1084 H   0  0  0  0  0  0  0  0  0  0  0  0
    4.8092    1.3233   19.0582 C   0  0  0  0  0  0  0  0  0  0  0  0
    3.8764    1.8458   19.2357 H   0  0  0  0  0  0  0  0  0  0  0  0
  1  2  1  0
  2  3  2  0
  3  4  1  0
  4  5  1  0
  4  6  2  0
  6  7  1  0
  7  8  1  0
  8  9  2  0
  8 10  1  0
 10 11  1  0
 10 12  2  0
 12 13  1  0
 13 14  2  0
 13 15  1  0
 15 16  1  0
 15 17  1  0
 17 18  2  0
 18 19  1  0
 18 20  1  0
 20 21  1  0
 20 22  2  0
 22 23  1  0
 23 24  1  0
 23 25  2  0
 25 26  1  0
 12 27  1  0
 27 28  1  0
  6 29  1  0
 29 30  1  0
 29 31  2  0
 31 32  1  0
 31  2  1  0
 27  7  1  0
 25 17  1  0
M  END
>  <cnnaffinity>  (1) 
-5.2118

>  <filename>  (1) 
O=C(Nc1ccncc1)c1cc(=O)n(-c2cccnc2)[nH]1

$$$$
