
     RDKit          3D

 41 43  0  0  0  0  0  0  0  0999 V2000
    6.0881    0.4826   22.4757 O   0  0  0  0  0  0  0  0  0  0  0  0
    6.6268   -0.5114   22.0356 C   0  0  0  0  0  0  0  0  0  0  0  0
    7.3177   -1.5520   22.9554 C   0  0  0  0  0  0  0  0  0  0  0  0
    8.7618   -1.2492   23.3691 N   0  0  0  0  0  4  0  0  0  0  0  0
    8.8154   -0.0224   24.3083 C   0  0  0  0  0  0  0  0  0  0  0  0
   10.2426    0.4331   24.6509 C   0  0  0  0  0  0  0  0  0  0  0  0
   11.1210    0.5340   23.4774 N   0  0  0  0  0  0  0  0  0  0  0  0
   11.9567    1.5981   23.2822 C   0  0  0  0  0  0  0  0  0  0  0  0
   13.2739    1.4231   22.8369 C   0  0  0  0  0  0  0  0  0  0  0  0
   14.0090    2.5802   22.7177 C   0  0  0  0  0  0  0  0  0  0  0  0
   13.5031    3.8073   22.8961 N   0  0  0  0  0  0  0  0  0  0  0  0
   12.2304    3.8435   23.2703 C   0  0  0  0  0  0  0  0  0  0  0  0
   11.4513    2.8075   23.5498 N   0  0  0  0  0  0  0  0  0  0  0  0
   11.7943    4.8369   23.3878 H   0  0  0  0  0  0  0  0  0  0  0  0
   15.0634    2.5266   22.4334 H   0  0  0  0  0  0  0  0  0  0  0  0
   13.6854    0.4489   22.6243 H   0  0  0  0  0  0  0  0  0  0  0  0
   11.0916   -0.6555   22.6275 C   0  0  0  0  0  0  0  0  0  0  0  0
    9.6614   -0.9360   22.1640 C   0  0  0  0  0  0  0  0  0  0  0  0
    9.2710   -0.0360   21.6883 H   0  0  0  0  0  0  0  0  0  0  0  0
    9.6349   -1.7481   21.4354 H   0  0  0  0  0  0  0  0  0  0  0  0
   11.4088   -1.5394   23.1954 H   0  0  0  0  0  0  0  0  0  0  0  0
   11.7488   -0.5455   21.7615 H   0  0  0  0  0  0  0  0  0  0  0  0
   10.6705   -0.2897   25.3659 H   0  0  0  0  0  0  0  0  0  0  0  0
   10.1761    1.4054   25.1455 H   0  0  0  0  0  0  0  0  0  0  0  0
    8.2741    0.7831   23.8108 H   0  0  0  0  0  0  0  0  0  0  0  0
    8.2817   -0.2508   25.2344 H   0  0  0  0  0  0  0  0  0  0  0  0
    9.1595   -2.0851   23.8747 H   0  0  0  0  0  0  0  0  0  0  0  0
    7.2961   -2.5181   22.4497 H   0  0  0  0  0  0  0  0  0  0  0  0
    6.7089   -1.6227   23.8569 H   0  0  0  0  0  0  0  0  0  0  0  0
    6.7055   -0.8311   20.6975 N   0  0  0  0  0  0  0  0  0  0  0  0
    6.3026   -0.0402   19.5869 C   0  0  0  0  0  0  0  0  0  0  0  0
    5.2366    0.8557   19.7166 C   0  0  0  0  0  0  0  0  0  0  0  0
    4.8500    1.6004   18.5980 C   0  0  0  0  0  0  0  0  0  0  0  0
    5.5611    1.4660   17.4016 C   0  0  0  0  0  0  0  0  0  0  0  0
    6.5902    0.6140   17.2628 N   0  0  0  0  0  0  0  0  0  0  0  0
    6.9422   -0.1238   18.3238 C   0  0  0  0  0  0  0  0  0  0  0  0
    7.7802   -0.8044   18.1694 H   0  0  0  0  0  0  0  0  0  0  0  0
    5.2964    2.0652   16.5314 H   0  0  0  0  0  0  0  0  0  0  0  0
    4.0159    2.2917   18.6553 H   0  0  0  0  0  0  0  0  0  0  0  0
    4.7491    0.9658   20.6810 H   0  0  0  0  0  0  0  0  0  0  0  0
    7.1575   -1.7087   20.5049 H   0  0  0  0  0  0  0  0  0  0  0  0
  1  2  2  0
  2  3  1  0
  3  4  1  0
  4  5  1  0
  5  6  1  0
  6  7  1  0
  7  8  1  0
  8  9  2  0
  9 10  1  0
 10 11  2  0
 11 12  1  0
 12 13  2  0
 12 14  1  0
 10 15  1  0
  9 16  1  0
  7 17  1  0
 17 18  1  0
 18 19  1  0
 18 20  1  0
 17 21  1  0
 17 22  1  0
  6 23  1  0
  6 24  1  0
  5 25  1  0
  5 26  1  0
  4 27  1  0
  3 28  1  0
  3 29  1  0
  2 30  1  0
 30 31  1  0
 31 32  2  0
 32 33  1  0
 33 34  2  0
 34 35  1  0
 35 36  2  0
 36 37  1  0
 34 38  1  0
 33 39  1  0
 32 40  1  0
 30 41  1  0
 18  4  1  0
 36 31  1  0
 13  8  1  0
M  CHG  1   4   1
M  END
>  <cnnaffinity>  (1) 
-5.04401

>  <filename>  (1) 
O=C(C[NH+]1CCN(c2ccncn2)CC1)Nc1cccnc1

$$$$
