
     RDKit          3D

 30 32  0  0  0  0  0  0  0  0999 V2000
    7.9159    0.7319   22.9969 O   0  0  0  0  0  0  0  0  0  0  0  0
    8.2492    0.4180   21.8744 C   0  0  0  0  0  0  0  0  0  0  0  0
    9.3324    0.9824   21.2237 N   0  0  0  0  0  0  0  0  0  0  0  0
    9.9738    2.1489   21.6661 C   0  0  0  0  0  0  0  0  0  0  0  0
    9.2457    3.1309   22.2933 C   0  0  0  0  0  0  0  0  0  0  0  0
    9.9119    4.2813   22.7648 C   0  0  0  0  0  0  0  0  0  0  0  0
    9.4867    5.3794   23.3865 N   0  0  0  0  0  0  0  0  0  0  0  0
   10.6233    6.0916   23.5200 C   0  0  0  0  0  0  0  0  0  0  0  0
   11.7412    5.5449   23.0441 N   0  0  0  0  0  0  0  0  0  0  0  0
   11.2840    4.3789   22.5583 N   0  0  0  0  0  0  0  0  0  0  0  0
   12.0222    3.4170   21.9098 C   0  0  0  0  0  0  0  0  0  0  0  0
   11.3837    2.2964   21.4458 C   0  0  0  0  0  0  0  0  0  0  0  0
   11.9336    1.5032   20.9561 H   0  0  0  0  0  0  0  0  0  0  0  0
   13.0734    3.6711   21.8393 H   0  0  0  0  0  0  0  0  0  0  0  0
   10.6364    7.0638   23.9932 H   0  0  0  0  0  0  0  0  0  0  0  0
    8.1807    3.0527   22.4264 H   0  0  0  0  0  0  0  0  0  0  0  0
    9.7551    0.4922   20.4551 H   0  0  0  0  0  0  0  0  0  0  0  0
    7.4373   -0.6401   21.0042 C   0  0  0  0  0  0  0  0  0  0  0  0
    8.3211   -1.5511   20.4678 F   0  0  0  0  0  0  0  0  0  0  0  0
    6.6129   -1.3370   21.8230 F   0  0  0  0  0  0  0  0  0  0  0  0
    6.6436   -0.0121   19.8745 C   0  0  0  0  0  0  0  0  0  0  0  0
    5.4316    0.6379   20.1390 C   0  0  0  0  0  0  0  0  0  0  0  0
    4.8032    1.3059   19.0890 C   0  0  0  0  0  0  0  0  0  0  0  0
    5.3972    1.3001   17.8235 C   0  0  0  0  0  0  0  0  0  0  0  0
    6.5480    0.6655   17.5604 N   0  0  0  0  0  0  0  0  0  0  0  0
    7.1512    0.0282   18.5662 C   0  0  0  0  0  0  0  0  0  0  0  0
    8.0934   -0.4586   18.3190 H   0  0  0  0  0  0  0  0  0  0  0  0
    4.9370    1.8176   16.9823 H   0  0  0  0  0  0  0  0  0  0  0  0
    3.8788    1.8501   19.2352 H   0  0  0  0  0  0  0  0  0  0  0  0
    5.0048    0.6305   21.1420 H   0  0  0  0  0  0  0  0  0  0  0  0
  1  2  2  0
  2  3  1  0
  3  4  1  0
  4  5  2  0
  5  6  1  0
  6  7  2  0
  7  8  1  0
  8  9  2  0
  9 10  1  0
 10 11  1  0
 11 12  2  0
 12 13  1  0
 11 14  1  0
  8 15  1  0
  5 16  1  0
  3 17  1  0
  2 18  1  0
 18 19  1  0
 18 20  1  0
 18 21  1  0
 21 22  2  0
 22 23  1  0
 23 24  2  0
 24 25  1  0
 25 26  2  0
 26 27  1  0
 24 28  1  0
 23 29  1  0
 22 30  1  0
 12  4  1  0
 26 21  1  0
 10  6  1  0
M  END
>  <cnnaffinity>  (1) 
-5.49169

>  <filename>  (1) 
O=C(Nc1ccn2ncnc2c1)C(F)(F)c1cccnc1

$$$$
