
     RDKit          3D

 44 47  0  0  0  0  0  0  0  0999 V2000
    6.5908   -4.2422   25.7526 O   0  0  0  0  0  0  0  0  0  0  0  0
    7.5779   -4.0075   26.4231 C   0  0  0  0  0  0  0  0  0  0  0  0
    8.6893   -3.3600   25.9289 N   0  0  0  0  0  0  0  0  0  0  0  0
    8.7891   -2.7640   24.6545 C   0  0  0  0  0  0  0  0  0  0  0  0
   10.0242   -2.7739   23.9589 C   0  0  0  0  0  0  0  0  0  0  0  0
   10.1327   -2.2487   22.6693 C   0  0  0  0  0  0  0  0  0  0  0  0
    8.9844   -1.6756   22.0938 C   0  0  0  0  0  0  0  0  0  0  0  0
    8.6602   -1.0788   20.8800 N   0  0  0  0  0  0  0  0  0  0  0  0
    7.3418   -0.6809   20.9553 C   0  0  0  0  0  0  0  0  0  0  0  0
    6.6322    0.0223   19.8805 C   0  0  0  0  0  0  0  0  0  0  0  0
    5.4019    0.6716   20.1174 C   0  0  0  0  0  0  0  0  0  0  0  0
    4.7933    1.3309   19.0543 C   0  0  0  0  0  0  0  0  0  0  0  0
    5.4146    1.3107   17.7994 C   0  0  0  0  0  0  0  0  0  0  0  0
    6.5736    0.6772   17.5544 N   0  0  0  0  0  0  0  0  0  0  0  0
    7.1563    0.0571   18.5824 C   0  0  0  0  0  0  0  0  0  0  0  0
    8.0932   -0.4491   18.3456 H   0  0  0  0  0  0  0  0  0  0  0  0
    4.9570    1.8168   16.9547 H   0  0  0  0  0  0  0  0  0  0  0  0
    3.8578    1.8649   19.1849 H   0  0  0  0  0  0  0  0  0  0  0  0
    4.9517    0.6670   21.1148 H   0  0  0  0  0  0  0  0  0  0  0  0
    6.7908   -1.0003   22.0912 N   0  0  0  0  0  0  0  0  0  0  0  0
    7.7739   -1.6223   22.8185 C   0  0  0  0  0  0  0  0  0  0  0  0
    7.6639   -2.1679   24.0935 C   0  0  0  0  0  0  0  0  0  0  0  0
    6.7142   -2.1371   24.6085 H   0  0  0  0  0  0  0  0  0  0  0  0
    9.2882   -0.7979   20.1500 H   0  0  0  0  0  0  0  0  0  0  0  0
   11.0862   -2.2894   22.1444 H   0  0  0  0  0  0  0  0  0  0  0  0
   10.8921   -3.2237   24.4371 H   0  0  0  0  0  0  0  0  0  0  0  0
    9.5144   -3.3407   26.5028 H   0  0  0  0  0  0  0  0  0  0  0  0
    7.6981   -4.3387   27.9448 C   0  0  0  0  0  0  0  0  0  0  0  0
    6.3366   -4.4409   28.6600 C   0  0  0  0  0  0  0  0  0  0  0  0
    5.5370   -5.7040   28.3612 C   0  0  0  0  0  0  0  0  0  0  0  0
    6.3954   -6.9251   28.6853 C   0  0  0  0  0  0  0  0  0  0  0  0
    7.7424   -6.8496   27.9670 C   0  0  0  0  0  0  0  0  0  0  0  0
    8.5329   -5.6410   28.3586 N   0  0  0  0  0  4  0  0  0  0  0  0
    9.4962   -5.7192   27.9717 H   0  0  0  0  0  0  0  0  0  0  0  0
    8.6099   -5.6716   29.4032 H   0  0  0  0  0  0  0  0  0  0  0  0
    8.3233   -7.7515   28.1705 H   0  0  0  0  0  0  0  0  0  0  0  0
    7.5428   -6.8067   26.8899 H   0  0  0  0  0  0  0  0  0  0  0  0
    6.5636   -6.9754   29.7699 H   0  0  0  0  0  0  0  0  0  0  0  0
    5.8921   -7.8578   28.4030 H   0  0  0  0  0  0  0  0  0  0  0  0
    4.6134   -5.6978   28.9587 H   0  0  0  0  0  0  0  0  0  0  0  0
    5.2463   -5.7174   27.3046 H   0  0  0  0  0  0  0  0  0  0  0  0
    6.5675   -4.4232   29.7360 H   0  0  0  0  0  0  0  0  0  0  0  0
    5.7471   -3.5432   28.4497 H   0  0  0  0  0  0  0  0  0  0  0  0
    8.2687   -3.4981   28.3307 H   0  0  0  0  0  0  0  0  0  0  0  0
  1  2  2  0
  2  3  1  0
  3  4  1  0
  4  5  2  0
  5  6  1  0
  6  7  2  0
  7  8  1  0
  8  9  1  0
  9 10  1  0
 10 11  2  0
 11 12  1  0
 12 13  2  0
 13 14  1  0
 14 15  2  0
 15 16  1  0
 13 17  1  0
 12 18  1  0
 11 19  1  0
  9 20  2  0
 20 21  1  0
 21 22  2  0
 22 23  1  0
  8 24  1  0
  6 25  1  0
  5 26  1  0
  3 27  1  0
  2 28  1  0
 28 29  1  0
 29 30  1  0
 30 31  1  0
 31 32  1  0
 32 33  1  0
 33 34  1  0
 33 35  1  0
 32 36  1  0
 32 37  1  0
 31 38  1  0
 31 39  1  0
 30 40  1  0
 30 41  1  0
 29 42  1  0
 29 43  1  0
 28 44  1  0
 22  4  1  0
 33 28  1  0
 21  7  1  0
 15 10  1  0
M  CHG  1  33   1
M  END
>  <cnnaffinity>  (1) 
-5.48368

>  <filename>  (1) 
O=C(Nc1ccc2[nH]c(-c3cccnc3)nc2c1)C1CCCC[NH2+]1

$$$$
