
     RDKit          3D

 29 30  0  0  0  0  0  0  0  0999 V2000
   11.7345    0.3429   22.2664 H   0  0  0  0  0  0  0  0  0  0  0  0
   11.3943    0.9743   22.9276 O   0  0  0  0  0  0  0  0  0  0  0  0
   10.0360    0.7203   23.0672 N   0  0  0  0  0  0  0  0  0  0  0  0
    9.7662    0.4213   23.9935 H   0  0  0  0  0  0  0  0  0  0  0  0
    9.0433    1.2353   22.2702 C   0  0  0  0  0  0  0  0  0  0  0  0
    9.1956    1.7176   21.1674 O   0  0  0  0  0  0  0  0  0  0  0  0
    7.6500    1.0056   22.8326 C   0  0  0  0  0  0  0  0  0  0  0  0
    7.5547    1.0801   23.9167 H   0  0  0  0  0  0  0  0  0  0  0  0
    7.0080    1.7357   22.3417 H   0  0  0  0  0  0  0  0  0  0  0  0
    7.2202   -0.3884   22.4212 C   0  0  2  0  0  0  0  0  0  0  0  0
    6.1793   -0.5922   22.7313 H   0  0  0  0  0  0  0  0  0  0  0  0
    8.0720   -1.3162   23.0583 O   0  0  0  0  0  0  0  0  0  0  0  0
    8.5496   -2.2841   22.1443 C   0  0  0  0  0  0  0  0  0  0  0  0
    8.0161   -3.2308   22.2840 H   0  0  0  0  0  0  0  0  0  0  0  0
    9.6106   -2.4709   22.3477 H   0  0  0  0  0  0  0  0  0  0  0  0
    8.2635   -1.7162   20.7515 C   0  0  0  0  0  0  0  0  0  0  0  0
    7.6802   -2.4239   20.1661 H   0  0  0  0  0  0  0  0  0  0  0  0
    9.1630   -1.4072   20.2038 H   0  0  0  0  0  0  0  0  0  0  0  0
    7.3940   -0.5961   21.0065 N   0  0  0  0  0  0  0  0  0  0  0  0
    6.6963    0.0336   19.9652 C   0  0  0  0  0  0  0  0  0  0  0  0
    7.1789    0.0577   18.6193 C   0  0  0  0  0  0  0  0  0  0  0  0
    8.1219   -0.4275   18.3680 H   0  0  0  0  0  0  0  0  0  0  0  0
    6.5640    0.6551   17.5871 N   0  0  0  0  0  0  0  0  0  0  0  0
    5.4051    1.2849   17.8398 C   0  0  0  0  0  0  0  0  0  0  0  0
    4.9400    1.7889   16.9958 H   0  0  0  0  0  0  0  0  0  0  0  0
    4.8172    1.3050   19.1075 C   0  0  0  0  0  0  0  0  0  0  0  0
    3.8792    1.8328   19.2530 H   0  0  0  0  0  0  0  0  0  0  0  0
    5.4568    0.6690   20.1778 C   0  0  0  0  0  0  0  0  0  0  0  0
    5.0097    0.6535   21.1700 H   0  0  0  0  0  0  0  0  0  0  0  0
  1  2  1  0
  2  3  1  0
  3  4  1  0
  3  5  1  0
  5  6  2  0
  5  7  1  0
  7  8  1  0
  7  9  1  0
  7 10  1  0
 10 11  1  1
 10 12  1  0
 12 13  1  0
 13 14  1  0
 13 15  1  0
 13 16  1  0
 16 17  1  0
 16 18  1  0
 16 19  1  0
 19 20  1  0
 20 21  2  0
 21 22  1  0
 21 23  1  0
 23 24  2  0
 24 25  1  0
 24 26  1  0
 26 27  1  0
 26 28  2  0
 28 29  1  0
 19 10  1  0
 28 20  1  0
M  END
>  <cnnaffinity>  (1) 
-4.22647

>  <filename>  (1) 
O=C(C[C@@H]1OCCN1c1cccnc1)NO

$$$$
