
     RDKit          3D

 23 24  0  0  0  0  0  0  0  0999 V2000
    8.0090    0.4414   27.7935 H   0  0  0  0  0  0  0  0  0  0  0  0
    8.1100   -0.1262   26.8687 C   0  0  0  0  0  0  0  0  0  0  0  0
    8.6267   -1.3118   26.8202 N   0  0  0  0  0  0  0  0  0  0  0  0
    8.6273   -1.7748   25.5202 C   0  0  0  0  0  0  0  0  0  0  0  0
    9.0372   -2.7578   25.3108 H   0  0  0  0  0  0  0  0  0  0  0  0
    8.1037   -0.9238   24.5813 C   0  0  0  0  0  0  0  0  0  0  0  0
    7.9996   -1.1162   23.1865 N   0  0  0  0  0  0  0  0  0  0  0  0
    8.2220   -2.0227   22.8130 H   0  0  0  0  0  0  0  0  0  0  0  0
    7.3928   -0.2071   22.3243 C   0  0  0  0  0  0  0  0  0  0  0  0
    6.9979    0.8813   22.6828 O   0  0  0  0  0  0  0  0  0  0  0  0
    7.3222   -0.7007   21.0323 N   0  0  0  0  0  0  0  0  0  0  0  0
    7.9270   -1.4828   20.8484 H   0  0  0  0  0  0  0  0  0  0  0  0
    6.6775   -0.0358   19.9449 C   0  0  0  0  0  0  0  0  0  0  0  0
    7.1917    0.0123   18.6231 C   0  0  0  0  0  0  0  0  0  0  0  0
    8.1435   -0.4528   18.3680 H   0  0  0  0  0  0  0  0  0  0  0  0
    6.5838    0.6428   17.6082 N   0  0  0  0  0  0  0  0  0  0  0  0
    5.4238    1.2687   17.8548 C   0  0  0  0  0  0  0  0  0  0  0  0
    4.9628    1.7816   17.0129 H   0  0  0  0  0  0  0  0  0  0  0  0
    4.8275    1.2852   19.1184 C   0  0  0  0  0  0  0  0  0  0  0  0
    3.8958    1.8213   19.2648 H   0  0  0  0  0  0  0  0  0  0  0  0
    5.4643    0.6339   20.1779 C   0  0  0  0  0  0  0  0  0  0  0  0
    5.0591    0.6489   21.1854 H   0  0  0  0  0  0  0  0  0  0  0  0
    7.5668    0.5393   25.3621 S   0  0  0  0  0  0  0  0  0  0  0  0
  1  2  1  0
  2  3  2  0
  3  4  1  0
  4  5  1  0
  4  6  2  0
  6  7  1  0
  7  8  1  0
  7  9  1  0
  9 10  2  0
  9 11  1  0
 11 12  1  0
 11 13  1  0
 13 14  2  0
 14 15  1  0
 14 16  1  0
 16 17  2  0
 17 18  1  0
 17 19  1  0
 19 20  1  0
 19 21  2  0
 21 22  1  0
  6 23  1  0
 23  2  1  0
 21 13  1  0
M  END
>  <cnnaffinity>  (1) 
-4.39215

>  <filename>  (1) 
O=C(Nc1cccnc1)Nc1cncs1

$$$$
