
     RDKit          3D

 32 34  0  0  0  0  0  0  0  0999 V2000
    5.0402    1.7413   17.0490 H   0  0  0  0  0  0  0  0  0  0  0  0
    5.4778    1.2405   17.9122 C   0  0  0  0  0  0  0  0  0  0  0  0
    6.6394    0.6070   17.6912 N   0  0  0  0  0  0  0  0  0  0  0  0
    7.2050   -0.0076   18.7304 C   0  0  0  0  0  0  0  0  0  0  0  0
    8.1386   -0.5393   18.5684 H   0  0  0  0  0  0  0  0  0  0  0  0
    6.6671   -0.0116   20.0172 C   0  0  0  0  0  0  0  0  0  0  0  0
    7.4746   -0.7377   21.0046 C   0  0  0  0  0  0  0  0  0  0  0  0
    8.2609   -1.6175   20.7271 O   0  0  0  0  0  0  0  0  0  0  0  0
    7.3178   -0.3106   22.2799 N   0  0  0  0  0  0  0  0  0  0  0  0
    6.8468    0.5072   22.5992 H   0  0  0  0  0  0  0  0  0  0  0  0
    7.9661   -1.1993   23.4731 S   0  0  0  0  0  0  0  0  0  0  0  0
    7.4683   -2.5489   23.3835 O   0  0  0  0  0  0  0  0  0  0  0  0
    7.7535   -0.3255   24.6089 O   0  0  0  0  0  0  0  0  0  0  0  0
    9.6443   -1.2551   23.0319 C   0  0  0  0  0  0  0  0  0  0  0  0
   10.4045   -2.3840   22.9989 C   0  0  0  0  0  0  0  0  0  0  0  0
   10.1436   -3.4176   23.2272 H   0  0  0  0  0  0  0  0  0  0  0  0
   11.6733   -2.0327   22.6115 N   0  0  0  0  0  0  0  0  0  0  0  0
   12.4781   -2.6345   22.6854 H   0  0  0  0  0  0  0  0  0  0  0  0
   11.7666   -0.6594   22.4939 C   0  0  0  0  0  0  0  0  0  0  0  0
   12.8800    0.1832   22.2967 C   0  0  0  0  0  0  0  0  0  0  0  0
   13.8838   -0.2230   22.1969 H   0  0  0  0  0  0  0  0  0  0  0  0
   12.6430    1.5529   22.2502 C   0  0  0  0  0  0  0  0  0  0  0  0
   13.4856    2.2343   22.1745 H   0  0  0  0  0  0  0  0  0  0  0  0
   11.3342    2.0849   22.3550 C   0  0  0  0  0  0  0  0  0  0  0  0
   11.1760    3.1553   22.2795 H   0  0  0  0  0  0  0  0  0  0  0  0
   10.2493    1.2479   22.5838 C   0  0  0  0  0  0  0  0  0  0  0  0
    9.2516    1.6438   22.7367 H   0  0  0  0  0  0  0  0  0  0  0  0
   10.4706   -0.1324   22.6937 C   0  0  0  0  0  0  0  0  0  0  0  0
    5.4499    0.6465   20.2469 C   0  0  0  0  0  0  0  0  0  0  0  0
    4.9798    0.6618   21.2349 H   0  0  0  0  0  0  0  0  0  0  0  0
    4.8436    1.2787   19.1627 C   0  0  0  0  0  0  0  0  0  0  0  0
    3.9107    1.8210   19.2731 H   0  0  0  0  0  0  0  0  0  0  0  0
  1  2  1  0
  2  3  2  0
  3  4  1  0
  4  5  1  0
  4  6  2  0
  6  7  1  0
  7  8  2  0
  7  9  1  0
  9 10  1  0
  9 11  1  0
 11 12  2  0
 11 13  2  0
 11 14  1  0
 14 15  2  0
 15 16  1  0
 15 17  1  0
 17 18  1  0
 17 19  1  0
 19 20  2  0
 20 21  1  0
 20 22  1  0
 22 23  1  0
 22 24  2  0
 24 25  1  0
 24 26  1  0
 26 27  1  0
 26 28  2  0
  6 29  1  0
 29 30  1  0
 29 31  2  0
 31 32  1  0
 31  2  1  0
 28 14  1  0
 28 19  1  0
M  END
>  <cnnaffinity>  (1) 
-5.2794

>  <filename>  (1) 
O=C(NS(=O)(=O)c1c[nH]c2ccccc12)c1cccnc1

$$$$
