
     RDKit          3D

 38 40  0  0  0  0  0  0  0  0999 V2000
    6.5586    1.0787   22.4435 O   0  0  0  0  0  0  0  0  0  0  0  0
    7.2463    0.1511   22.0580 C   0  0  0  0  0  0  0  0  0  0  0  0
    7.3937   -0.2128   20.7328 N   0  0  0  0  0  0  0  0  0  0  0  0
    6.6677    0.3044   19.6252 C   0  0  0  0  0  0  0  0  0  0  0  0
    5.4454    0.9859   19.7544 C   0  0  0  0  0  0  0  0  0  0  0  0
    4.8190    1.4390   18.5861 C   0  0  0  0  0  0  0  0  0  0  0  0
    5.4299    1.2271   17.3488 C   0  0  0  0  0  0  0  0  0  0  0  0
    6.5975    0.5776   17.2132 N   0  0  0  0  0  0  0  0  0  0  0  0
    7.1887    0.1317   18.3255 C   0  0  0  0  0  0  0  0  0  0  0  0
    8.1406   -0.3849   18.1976 H   0  0  0  0  0  0  0  0  0  0  0  0
    4.9726    1.5881   16.4314 H   0  0  0  0  0  0  0  0  0  0  0  0
    3.8749    1.9742   18.6270 H   0  0  0  0  0  0  0  0  0  0  0  0
    5.0243    1.1560   20.7412 H   0  0  0  0  0  0  0  0  0  0  0  0
    7.8382   -1.1091   20.6149 H   0  0  0  0  0  0  0  0  0  0  0  0
    7.9356   -0.6647   22.9427 N   0  0  0  0  0  0  0  0  0  0  0  0
    7.4465   -0.7527   24.3264 C   0  0  0  0  0  0  0  0  0  0  0  0
    6.9685   -2.1934   24.5766 C   0  0  0  0  0  0  0  0  0  0  0  0
    8.1198   -3.0937   24.4190 N   0  0  0  0  0  0  0  0  0  0  0  0
    8.5656   -3.8168   25.4956 C   0  0  0  0  0  0  0  0  0  0  0  0
    7.5879   -4.2692   26.3008 N   0  0  0  0  0  0  0  0  0  0  0  0
    7.9484   -4.9786   27.3430 C   0  0  0  0  0  0  0  0  0  0  0  0
    6.6600   -5.5526   28.3652 Cl  0  0  0  0  0  0  0  0  0  0  0  0
    9.2599   -5.2582   27.7025 C   0  0  0  0  0  0  0  0  0  0  0  0
   10.2768   -4.7623   26.8869 C   0  0  0  0  0  0  0  0  0  0  0  0
    9.9356   -4.0196   25.7601 C   0  0  0  0  0  0  0  0  0  0  0  0
   10.6655   -3.5509   25.1146 H   0  0  0  0  0  0  0  0  0  0  0  0
   11.3155   -4.9268   27.1626 H   0  0  0  0  0  0  0  0  0  0  0  0
    9.4531   -5.8299   28.5911 H   0  0  0  0  0  0  0  0  0  0  0  0
    8.7650   -3.0019   23.1066 C   0  0  0  0  0  0  0  0  0  0  0  0
    9.1061   -1.5349   22.7497 C   0  0  0  0  0  0  0  0  0  0  0  0
    9.5531   -1.4490   21.7523 H   0  0  0  0  0  0  0  0  0  0  0  0
    9.8772   -1.2044   23.4600 H   0  0  0  0  0  0  0  0  0  0  0  0
    8.0704   -3.3832   22.3432 H   0  0  0  0  0  0  0  0  0  0  0  0
    9.6693   -3.6175   23.0604 H   0  0  0  0  0  0  0  0  0  0  0  0
    6.5199   -2.3157   25.5665 H   0  0  0  0  0  0  0  0  0  0  0  0
    6.2000   -2.4473   23.8311 H   0  0  0  0  0  0  0  0  0  0  0  0
    8.2824   -0.5428   25.0092 H   0  0  0  0  0  0  0  0  0  0  0  0
    6.6700   -0.0071   24.5137 H   0  0  0  0  0  0  0  0  0  0  0  0
  1  2  2  0
  2  3  1  0
  3  4  1  0
  4  5  2  0
  5  6  1  0
  6  7  2  0
  7  8  1  0
  8  9  2  0
  9 10  1  0
  7 11  1  0
  6 12  1  0
  5 13  1  0
  3 14  1  0
  2 15  1  0
 15 16  1  0
 16 17  1  0
 17 18  1  0
 18 19  1  0
 19 20  2  0
 20 21  1  0
 21 22  1  0
 21 23  2  0
 23 24  1  0
 24 25  2  0
 25 26  1  0
 24 27  1  0
 23 28  1  0
 18 29  1  0
 29 30  1  0
 30 31  1  0
 30 32  1  0
 29 33  1  0
 29 34  1  0
 17 35  1  0
 17 36  1  0
 16 37  1  0
 16 38  1  0
  9  4  1  0
 30 15  1  0
 25 19  1  0
M  END
>  <cnnaffinity>  (1) 
-5.18982

>  <filename>  (1) 
O=C(Nc1cccnc1)N1CCN(c2cccc(Cl)n2)CC1

$$$$
