
     RDKit          3D

 32 34  0  0  0  0  0  0  0  0999 V2000
    4.9144    1.7782   16.9987 H   0  0  0  0  0  0  0  0  0  0  0  0
    5.4020    1.2938   17.8422 C   0  0  0  0  0  0  0  0  0  0  0  0
    6.5637    0.6735   17.5803 N   0  0  0  0  0  0  0  0  0  0  0  0
    7.1720    0.0522   18.5968 C   0  0  0  0  0  0  0  0  0  0  0  0
    8.1232   -0.4261   18.3824 H   0  0  0  0  0  0  0  0  0  0  0  0
    6.6443   -0.0077   19.8981 C   0  0  0  0  0  0  0  0  0  0  0  0
    7.3347   -0.7087   20.9484 N   0  0  0  0  0  0  0  0  0  0  0  0
    6.5789   -1.5928   21.6552 N   0  0  0  0  0  0  0  0  0  0  0  0
    7.1502   -2.2787   22.6221 C   0  0  0  0  0  0  0  0  0  0  0  0
    6.2588   -3.3067   23.3291 C   0  0  0  0  0  0  0  0  0  0  0  0
    5.3305   -3.8367   22.7502 O   0  0  0  0  0  0  0  0  0  0  0  0
    6.5889   -3.6974   24.7574 C   0  0  0  0  0  0  0  0  0  0  0  0
    7.0591   -2.7792   25.7144 C   0  0  0  0  0  0  0  0  0  0  0  0
    7.2418   -1.7411   25.4452 H   0  0  0  0  0  0  0  0  0  0  0  0
    7.2825   -3.1756   27.0349 C   0  0  0  0  0  0  0  0  0  0  0  0
    7.6552   -2.4564   27.7538 H   0  0  0  0  0  0  0  0  0  0  0  0
    7.0232   -4.4983   27.4009 C   0  0  0  0  0  0  0  0  0  0  0  0
    7.2370   -5.0363   29.0294 Cl  0  0  0  0  0  0  0  0  0  0  0  0
    6.5513   -5.4279   26.4734 C   0  0  0  0  0  0  0  0  0  0  0  0
    6.3516   -6.4477   26.7944 H   0  0  0  0  0  0  0  0  0  0  0  0
    6.3326   -5.0233   25.1617 C   0  0  0  0  0  0  0  0  0  0  0  0
    5.9455   -5.7441   24.4486 H   0  0  0  0  0  0  0  0  0  0  0  0
    8.5442   -2.1205   22.9574 C   0  0  0  0  0  0  0  0  0  0  0  0
    8.9995   -2.7170   23.7494 H   0  0  0  0  0  0  0  0  0  0  0  0
    9.2886   -1.2080   22.2737 C   0  0  0  0  0  0  0  0  0  0  0  0
   10.3332   -1.0036   22.4686 H   0  0  0  0  0  0  0  0  0  0  0  0
    8.7230   -0.3962   21.2076 C   0  0  0  0  0  0  0  0  0  0  0  0
    9.3309    0.4470   20.5690 O   0  0  0  0  0  0  0  0  0  0  0  0
    5.4365    0.6445   20.1645 C   0  0  0  0  0  0  0  0  0  0  0  0
    5.0167    0.6079   21.1709 H   0  0  0  0  0  0  0  0  0  0  0  0
    4.8087    1.3166   19.1113 C   0  0  0  0  0  0  0  0  0  0  0  0
    3.8732    1.8461   19.2639 H   0  0  0  0  0  0  0  0  0  0  0  0
  1  2  1  0
  2  3  2  0
  3  4  1  0
  4  5  1  0
  4  6  2  0
  6  7  1  0
  7  8  1  0
  8  9  2  0
  9 10  1  0
 10 11  2  0
 10 12  1  0
 12 13  2  0
 13 14  1  0
 13 15  1  0
 15 16  1  0
 15 17  2  0
 17 18  1  0
 17 19  1  0
 19 20  1  0
 19 21  2  0
 21 22  1  0
  9 23  1  0
 23 24  1  0
 23 25  2  0
 25 26  1  0
 25 27  1  0
 27 28  2  0
  6 29  1  0
 29 30  1  0
 29 31  2  0
 31 32  1  0
 31  2  1  0
 27  7  1  0
 21 12  1  0
M  END
>  <cnnaffinity>  (1) 
-5.4104

>  <filename>  (1) 
O=C(c1ccc(Cl)cc1)c1ccc(=O)n(-c2cccnc2)n1

$$$$
