
     RDKit          3D

 28 29  0  0  0  0  0  0  0  0999 V2000
    7.5853    1.9003   27.9002 H   0  0  0  0  0  0  0  0  0  0  0  0
    7.6486    1.5746   26.9876 O   0  0  0  0  0  0  0  0  0  0  0  0
    6.7837    2.4223   26.3883 C   0  0  0  0  0  0  0  0  0  0  0  0
    6.2227    3.2621   27.0392 O   0  0  0  0  0  0  0  0  0  0  0  0
    6.6635    2.1881   24.8663 C   0  0  0  0  0  0  0  0  0  0  0  0
    5.8373    2.9894   24.1849 O   0  0  0  0  0  0  0  0  0  0  0  0
    6.0835    2.8911   23.2277 H   0  0  0  0  0  0  0  0  0  0  0  0
    7.3639    1.2120   24.2475 C   0  0  0  0  0  0  0  0  0  0  0  0
    7.9241    0.4874   24.8261 H   0  0  0  0  0  0  0  0  0  0  0  0
    7.3328    1.0713   22.7884 C   0  0  0  0  0  0  0  0  0  0  0  0
    6.9555    1.9892   22.0609 O   0  0  0  0  0  0  0  0  0  0  0  0
    7.7063   -0.1740   22.2299 N   0  0  0  0  0  0  0  0  0  0  0  0
    8.3237   -1.1487   22.9700 N   0  0  0  0  0  0  0  0  0  0  0  0
    8.2826   -2.2297   22.2222 C   0  0  0  0  0  0  0  0  0  0  0  0
    8.6925   -3.1602   22.5937 H   0  0  0  0  0  0  0  0  0  0  0  0
    7.6383   -1.9920   20.9936 C   0  0  0  0  0  0  0  0  0  0  0  0
    7.3376   -2.6814   20.2296 H   0  0  0  0  0  0  0  0  0  0  0  0
    7.3027   -0.6724   20.9985 C   0  0  0  0  0  0  0  0  0  0  0  0
    6.6175    0.0630   19.9304 C   0  0  0  0  0  0  0  0  0  0  0  0
    7.1527    0.0763   18.6285 C   0  0  0  0  0  0  0  0  0  0  0  0
    8.1081   -0.4100   18.4264 H   0  0  0  0  0  0  0  0  0  0  0  0
    6.5736    0.6821   17.5840 N   0  0  0  0  0  0  0  0  0  0  0  0
    5.4041    1.3044   17.8066 C   0  0  0  0  0  0  0  0  0  0  0  0
    4.9462    1.7936   16.9491 H   0  0  0  0  0  0  0  0  0  0  0  0
    4.7712    1.3265   19.0533 C   0  0  0  0  0  0  0  0  0  0  0  0
    3.8323    1.8489   19.1841 H   0  0  0  0  0  0  0  0  0  0  0  0
    5.3779    0.6837   20.1289 C   0  0  0  0  0  0  0  0  0  0  0  0
    4.9256    0.6804   21.1198 H   0  0  0  0  0  0  0  0  0  0  0  0
  1  2  1  0
  2  3  1  0
  3  4  2  0
  3  5  1  0
  5  6  1  0
  6  7  1  0
  5  8  2  3
  8  9  1  0
  8 10  1  0
 10 11  2  0
 10 12  1  0
 12 13  1  0
 13 14  2  0
 14 15  1  0
 14 16  1  0
 16 17  1  0
 16 18  2  0
 18 19  1  0
 19 20  2  0
 20 21  1  0
 20 22  1  0
 22 23  2  0
 23 24  1  0
 23 25  1  0
 25 26  1  0
 25 27  2  0
 27 28  1  0
 18 12  1  0
 27 19  1  0
M  END
>  <cnnaffinity>  (1) 
-4.27268

>  <filename>  (1) 
O=C(O)C(O)=CC(=O)n1nccc1-c1cccnc1

$$$$
