
     RDKit          3D

 33 35  0  0  0  0  0  0  0  0999 V2000
    9.4983   -2.3023   24.9398 O   0  0  0  0  0  0  0  0  0  0  0  0
    8.5410   -1.6822   25.3675 C   0  0  0  0  0  0  0  0  0  0  0  0
    8.1717   -1.7931   26.8377 C   0  0  0  0  0  0  0  0  0  0  0  0
    7.6778   -3.1837   27.2142 C   0  0  0  0  0  0  0  0  0  0  0  0
    8.5999   -4.1450   27.6266 C   0  0  0  0  0  0  0  0  0  0  0  0
    8.1136   -5.3669   28.0942 C   0  0  0  0  0  0  0  0  0  0  0  0
    6.7381   -5.6067   28.0916 C   0  0  0  0  0  0  0  0  0  0  0  0
    5.8513   -4.7077   27.6426 N   0  0  0  0  0  0  0  0  0  0  0  0
    6.3048   -3.5199   27.2117 C   0  0  0  0  0  0  0  0  0  0  0  0
    5.0345   -2.2475   26.5638 Br  0  0  0  0  0  0  0  0  0  0  0  0
    6.3638   -6.5507   28.4736 H   0  0  0  0  0  0  0  0  0  0  0  0
    8.7772   -6.1333   28.4793 H   0  0  0  0  0  0  0  0  0  0  0  0
    9.6637   -3.9098   27.6181 H   0  0  0  0  0  0  0  0  0  0  0  0
    9.0575   -1.5317   27.4240 H   0  0  0  0  0  0  0  0  0  0  0  0
    7.3979   -1.0564   27.0606 H   0  0  0  0  0  0  0  0  0  0  0  0
    7.7467   -1.0032   24.4854 N   0  0  0  0  0  0  0  0  0  0  0  0
    7.8701   -1.1626   23.1336 C   0  0  0  0  0  0  0  0  0  0  0  0
    7.0635   -0.4442   22.4176 N   0  0  0  0  0  0  0  0  0  0  0  0
    7.3553   -0.6444   21.0815 C   0  0  0  0  0  0  0  0  0  0  0  0
    6.6448    0.0240   20.0090 C   0  0  0  0  0  0  0  0  0  0  0  0
    5.4276    0.6815   20.2218 C   0  0  0  0  0  0  0  0  0  0  0  0
    4.8335    1.2960   19.1242 C   0  0  0  0  0  0  0  0  0  0  0  0
    5.4575    1.2466   17.8752 C   0  0  0  0  0  0  0  0  0  0  0  0
    6.6143    0.5958   17.6690 N   0  0  0  0  0  0  0  0  0  0  0  0
    7.1922   -0.0025   18.7216 C   0  0  0  0  0  0  0  0  0  0  0  0
    8.1329   -0.5182   18.5468 H   0  0  0  0  0  0  0  0  0  0  0  0
    4.9868    1.7611   17.0450 H   0  0  0  0  0  0  0  0  0  0  0  0
    3.8964    1.8294   19.2255 H   0  0  0  0  0  0  0  0  0  0  0  0
    4.9580    0.7177   21.2063 H   0  0  0  0  0  0  0  0  0  0  0  0
    8.3797   -1.5148   20.8215 C   0  0  0  0  0  0  0  0  0  0  0  0
    9.0224   -2.1910   22.2858 S   0  0  0  0  0  0  0  0  0  0  0  0
    8.7350   -1.7352   19.8262 H   0  0  0  0  0  0  0  0  0  0  0  0
    6.9549   -0.4644   24.8142 H   0  0  0  0  0  0  0  0  0  0  0  0
  1  2  2  0
  2  3  1  0
  3  4  1  0
  4  5  2  0
  5  6  1  0
  6  7  2  0
  7  8  1  0
  8  9  2  0
  9 10  1  0
  7 11  1  0
  6 12  1  0
  5 13  1  0
  3 14  1  0
  3 15  1  0
  2 16  1  0
 16 17  1  0
 17 18  2  0
 18 19  1  0
 19 20  1  0
 20 21  2  0
 21 22  1  0
 22 23  2  0
 23 24  1  0
 24 25  2  0
 25 26  1  0
 23 27  1  0
 22 28  1  0
 21 29  1  0
 19 30  2  0
 30 31  1  0
 30 32  1  0
 16 33  1  0
  9  4  1  0
 31 17  1  0
 25 20  1  0
M  END
>  <cnnaffinity>  (1) 
-5.69313

>  <filename>  (1) 
O=C(Cc1cccnc1Br)Nc1nc(-c2cccnc2)cs1

$$$$
