
     RDKit          3D

 33 35  0  0  0  0  0  0  0  0999 V2000
    8.4136   -1.2832   20.7391 O   0  0  0  0  0  0  0  0  0  0  0  0
    7.3638   -0.7114   20.9398 C   0  0  0  0  0  0  0  0  0  0  0  0
    6.7371   -0.6793   22.1295 O   0  0  0  0  0  0  0  0  0  0  0  0
    7.3602   -1.3530   23.2281 C   0  0  0  0  0  0  0  0  0  0  0  0
    7.0988   -2.8557   23.1372 C   0  0  0  0  0  0  0  0  0  0  0  0
    7.7465   -3.5833   24.2095 N   0  0  0  0  0  0  0  0  0  0  0  0
    9.1199   -3.8540   24.2325 C   0  0  0  0  0  0  0  0  0  0  0  0
    9.8743   -3.6908   23.3055 O   0  0  0  0  0  0  0  0  0  0  0  0
    9.4054   -4.3707   25.6132 C   0  0  0  0  0  0  0  0  0  0  0  0
   10.5460   -4.8337   26.2650 C   0  0  0  0  0  0  0  0  0  0  0  0
   10.3655   -5.2704   27.5812 C   0  0  0  0  0  0  0  0  0  0  0  0
    9.1801   -5.3047   28.2196 N   0  0  0  0  0  0  0  0  0  0  0  0
    8.0973   -4.8408   27.5986 C   0  0  0  0  0  0  0  0  0  0  0  0
    8.2047   -4.3472   26.3113 C   0  0  0  0  0  0  0  0  0  0  0  0
    7.1735   -3.7596   25.4673 C   0  0  0  0  0  0  0  0  0  0  0  0
    6.0541   -3.4406   25.7872 O   0  0  0  0  0  0  0  0  0  0  0  0
    7.1475   -4.8688   28.1312 H   0  0  0  0  0  0  0  0  0  0  0  0
   11.2187   -5.6110   28.1543 H   0  0  0  0  0  0  0  0  0  0  0  0
   11.5289   -4.8632   25.8045 H   0  0  0  0  0  0  0  0  0  0  0  0
    6.0225   -3.0413   23.1785 H   0  0  0  0  0  0  0  0  0  0  0  0
    7.4772   -3.2195   22.1807 H   0  0  0  0  0  0  0  0  0  0  0  0
    8.4323   -1.1493   23.2232 H   0  0  0  0  0  0  0  0  0  0  0  0
    6.9132   -0.9346   24.1305 H   0  0  0  0  0  0  0  0  0  0  0  0
    6.6125    0.0240   19.9035 C   0  0  0  0  0  0  0  0  0  0  0  0
    5.4007    0.6919   20.1305 C   0  0  0  0  0  0  0  0  0  0  0  0
    4.8052    1.3371   19.0534 C   0  0  0  0  0  0  0  0  0  0  0  0
    5.4436    1.2961   17.8068 C   0  0  0  0  0  0  0  0  0  0  0  0
    6.6023    0.6576   17.5863 N   0  0  0  0  0  0  0  0  0  0  0  0
    7.1706    0.0368   18.6240 C   0  0  0  0  0  0  0  0  0  0  0  0
    8.1117   -0.4772   18.4318 H   0  0  0  0  0  0  0  0  0  0  0  0
    5.0010    1.7958   16.9489 H   0  0  0  0  0  0  0  0  0  0  0  0
    3.8728    1.8765   19.1735 H   0  0  0  0  0  0  0  0  0  0  0  0
    4.9644    0.6944   21.1298 H   0  0  0  0  0  0  0  0  0  0  0  0
  1  2  2  0
  2  3  1  0
  3  4  1  0
  4  5  1  0
  5  6  1  0
  6  7  1  0
  7  8  2  0
  7  9  1  0
  9 10  2  0
 10 11  1  0
 11 12  2  0
 12 13  1  0
 13 14  2  0
 14 15  1  0
 15 16  2  0
 13 17  1  0
 11 18  1  0
 10 19  1  0
  5 20  1  0
  5 21  1  0
  4 22  1  0
  4 23  1  0
  2 24  1  0
 24 25  2  0
 25 26  1  0
 26 27  2  0
 27 28  1  0
 28 29  2  0
 29 30  1  0
 27 31  1  0
 26 32  1  0
 25 33  1  0
 15  6  1  0
 29 24  1  0
 14  9  1  0
M  END
>  <cnnaffinity>  (1) 
-4.69993

>  <filename>  (1) 
O=C(OCCN1C(=O)c2ccncc2C1=O)c1cccnc1

$$$$
