
     RDKit          3D

 30 31  0  0  0  0  0  0  0  0999 V2000
    7.8313   -6.7395   27.0004 H   0  0  0  0  0  0  0  0  0  0  0  0
    7.2702   -6.0077   26.6768 O   0  0  0  0  0  0  0  0  0  0  0  0
    7.8742   -5.8078   25.5021 C   0  0  0  0  0  0  0  0  0  0  0  0
    8.8246   -6.4952   25.2001 O   0  0  0  0  0  0  0  0  0  0  0  0
    7.3320   -4.7018   24.5932 C   0  0  0  0  0  0  0  0  0  0  0  0
    7.6705   -4.7763   23.2822 O   0  0  0  0  0  0  0  0  0  0  0  0
    8.2060   -5.5651   23.1046 H   0  0  0  0  0  0  0  0  0  0  0  0
    6.5670   -3.6683   25.0012 C   0  0  0  0  0  0  0  0  0  0  0  0
    5.9972   -3.6978   25.9249 H   0  0  0  0  0  0  0  0  0  0  0  0
    6.4229   -2.3555   24.3128 C   0  0  0  0  0  0  0  0  0  0  0  0
    5.6277   -1.5623   24.7804 O   0  0  0  0  0  0  0  0  0  0  0  0
    7.3508   -1.9462   23.1358 C   0  0  0  0  0  0  0  0  0  0  0  0
    6.6836   -1.2302   22.1584 O   0  0  0  0  0  0  0  0  0  0  0  0
    7.3764   -0.7572   21.0753 C   0  0  0  0  0  0  0  0  0  0  0  0
    6.5733   -0.0904   20.0237 C   0  0  0  0  0  0  0  0  0  0  0  0
    7.1172   -0.0550   18.7244 C   0  0  0  0  0  0  0  0  0  0  0  0
    8.0311   -0.5997   18.4922 H   0  0  0  0  0  0  0  0  0  0  0  0
    6.5739    0.5875   17.6911 N   0  0  0  0  0  0  0  0  0  0  0  0
    5.4332    1.2565   17.9116 C   0  0  0  0  0  0  0  0  0  0  0  0
    5.0247    1.7967   17.0570 H   0  0  0  0  0  0  0  0  0  0  0  0
    4.7842    1.2664   19.1509 C   0  0  0  0  0  0  0  0  0  0  0  0
    3.8633    1.8326   19.2508 H   0  0  0  0  0  0  0  0  0  0  0  0
    5.3493    0.5743   20.2282 C   0  0  0  0  0  0  0  0  0  0  0  0
    4.8596    0.5638   21.2024 H   0  0  0  0  0  0  0  0  0  0  0  0
    8.7226   -0.8455   21.0037 C   0  0  0  0  0  0  0  0  0  0  0  0
    9.2868   -0.3814   20.2142 H   0  0  0  0  0  0  0  0  0  0  0  0
    9.5021   -1.4938   22.0372 C   0  0  0  0  0  0  0  0  0  0  0  0
   10.7183   -1.5609   22.0082 O   0  0  0  0  0  0  0  0  0  0  0  0
    8.7039   -2.0680   23.1198 C   0  0  0  0  0  0  0  0  0  0  0  0
    9.2720   -2.5948   23.8748 H   0  0  0  0  0  0  0  0  0  0  0  0
  1  2  1  0
  2  3  1  0
  3  4  2  0
  3  5  1  0
  5  6  1  0
  6  7  1  0
  5  8  2  3
  8  9  1  0
  8 10  1  0
 10 11  2  0
 10 12  1  0
 12 13  1  0
 13 14  1  0
 14 15  1  0
 15 16  2  0
 16 17  1  0
 16 18  1  0
 18 19  2  0
 19 20  1  0
 19 21  1  0
 21 22  1  0
 21 23  2  0
 23 24  1  0
 14 25  2  0
 25 26  1  0
 25 27  1  0
 27 28  2  0
 27 29  1  0
 29 30  1  0
 29 12  2  0
 23 15  1  0
M  END
>  <cnnaffinity>  (1) 
-4.76371

>  <filename>  (1) 
O=C(O)C(O)=CC(=O)c1cc(=O)cc(-c2cccnc2)o1

$$$$
