
     RDKit          3D

 30 32  0  0  0  0  0  0  0  0999 V2000
    8.9758    0.3497   21.2582 H   0  0  0  0  0  0  0  0  0  0  0  0
    8.7179   -0.5719   21.0680 O   0  0  0  0  0  0  0  0  0  0  0  0
    7.3128   -0.5638   21.1346 N   0  0  0  0  0  0  0  0  0  0  0  0
    6.6634   -1.6680   21.8077 C   0  0  0  0  0  0  0  0  0  0  0  0
    5.6458   -2.1576   21.3936 O   0  0  0  0  0  0  0  0  0  0  0  0
    7.3035   -2.0457   22.9685 N   0  0  0  0  0  0  0  0  0  0  0  0
    8.2400   -1.7460   23.1465 H   0  0  0  0  0  0  0  0  0  0  0  0
    6.7186   -2.8564   23.8826 C   0  0  0  0  0  0  0  0  0  0  0  0
    5.5341   -3.3460   23.8557 N   0  0  0  0  0  0  0  0  0  0  0  0
    5.4893   -4.0958   25.0254 C   0  0  0  0  0  0  0  0  0  0  0  0
    4.4553   -4.8800   25.5376 C   0  0  0  0  0  0  0  0  0  0  0  0
    3.5256   -4.9284   24.9795 H   0  0  0  0  0  0  0  0  0  0  0  0
    4.6918   -5.5526   26.7402 C   0  0  0  0  0  0  0  0  0  0  0  0
    3.9044   -6.1715   27.1617 H   0  0  0  0  0  0  0  0  0  0  0  0
    5.9291   -5.4394   27.4068 C   0  0  0  0  0  0  0  0  0  0  0  0
    6.0797   -5.9807   28.3388 H   0  0  0  0  0  0  0  0  0  0  0  0
    6.9747   -4.6489   26.8997 C   0  0  0  0  0  0  0  0  0  0  0  0
    7.9281   -4.5668   27.4145 H   0  0  0  0  0  0  0  0  0  0  0  0
    6.7094   -3.9931   25.7048 C   0  0  0  0  0  0  0  0  0  0  0  0
    7.5140   -3.1644   24.9441 O   0  0  0  0  0  0  0  0  0  0  0  0
    6.6905    0.0318   19.9913 C   0  0  0  0  0  0  0  0  0  0  0  0
    7.2548    0.0434   18.6967 C   0  0  0  0  0  0  0  0  0  0  0  0
    8.2022   -0.4565   18.4912 H   0  0  0  0  0  0  0  0  0  0  0  0
    6.6494    0.6332   17.6558 N   0  0  0  0  0  0  0  0  0  0  0  0
    5.4766    1.2520   17.8801 C   0  0  0  0  0  0  0  0  0  0  0  0
    5.0297    1.7491   17.0254 H   0  0  0  0  0  0  0  0  0  0  0  0
    4.8309    1.2820   19.1222 C   0  0  0  0  0  0  0  0  0  0  0  0
    3.8897    1.8146   19.2443 H   0  0  0  0  0  0  0  0  0  0  0  0
    5.4410    0.6378   20.1959 C   0  0  0  0  0  0  0  0  0  0  0  0
    4.9763    0.5861   21.1800 H   0  0  0  0  0  0  0  0  0  0  0  0
  1  2  1  0
  2  3  1  0
  3  4  1  0
  4  5  2  0
  4  6  1  0
  6  7  1  0
  6  8  1  0
  8  9  2  0
  9 10  1  0
 10 11  2  0
 11 12  1  0
 11 13  1  0
 13 14  1  0
 13 15  2  0
 15 16  1  0
 15 17  1  0
 17 18  1  0
 17 19  2  0
 19 20  1  0
  3 21  1  0
 21 22  2  0
 22 23  1  0
 22 24  1  0
 24 25  2  0
 25 26  1  0
 25 27  1  0
 27 28  1  0
 27 29  2  0
 29 30  1  0
 20  8  1  0
 29 21  1  0
 19 10  1  0
M  END
>  <cnnaffinity>  (1) 
-4.92047

>  <filename>  (1) 
O=C(Nc1nc2ccccc2o1)N(O)c1cccnc1

$$$$
