
     RDKit          3D

 25 25  0  0  0  0  0  0  0  0999 V2000
   14.4452    0.3577   23.1907 H   0  0  0  0  0  0  0  0  0  0  0  0
   13.7927   -1.2601   21.7902 O   0  0  0  0  0  0  0  0  0  0  0  0
   13.0458   -0.4675   22.3010 C   0  0  0  0  0  0  0  0  0  0  0  0
   13.4879    0.4984   23.1298 O   0  0  0  0  0  0  0  0  0  0  0  0
   11.5091   -0.4042   22.1348 C   0  0  0  0  0  0  0  0  0  0  0  0
   10.8151   -1.4511   22.7205 O   0  0  0  0  0  0  0  0  0  0  0  0
   10.7299   -1.3051   23.6810 H   0  0  0  0  0  0  0  0  0  0  0  0
   10.8797    0.5722   21.4701 C   0  0  0  0  0  0  0  0  0  0  0  0
   11.4258    1.4521   21.1464 H   0  0  0  0  0  0  0  0  0  0  0  0
    9.4549    0.5990   21.0730 C   0  0  0  0  0  0  0  0  0  0  0  0
    8.9009    1.6142   20.7161 O   0  0  0  0  0  0  0  0  0  0  0  0
    8.8321   -0.6300   21.1101 N   0  0  0  0  0  0  0  0  0  0  0  0
    9.2826   -1.2979   21.7243 H   0  0  0  0  0  0  0  0  0  0  0  0
    7.4968   -0.8272   20.9462 C   0  0  0  0  0  0  0  0  0  0  0  0
    6.7605   -1.9660   21.8621 S   0  0  0  0  0  0  0  0  0  0  0  0
    6.8076   -0.0331   19.9181 C   0  0  0  0  0  0  0  0  0  0  0  0
    7.3511    0.0462   18.6290 C   0  0  0  0  0  0  0  0  0  0  0  0
    8.3132   -0.4104   18.3981 H   0  0  0  0  0  0  0  0  0  0  0  0
    6.7442    0.6710   17.6139 N   0  0  0  0  0  0  0  0  0  0  0  0
    5.5706    1.2675   17.8676 C   0  0  0  0  0  0  0  0  0  0  0  0
    5.1093    1.7851   17.0295 H   0  0  0  0  0  0  0  0  0  0  0  0
    4.9532    1.2617   19.1237 C   0  0  0  0  0  0  0  0  0  0  0  0
    4.0181    1.7897   19.2698 H   0  0  0  0  0  0  0  0  0  0  0  0
    5.5822    0.5958   20.1747 C   0  0  0  0  0  0  0  0  0  0  0  0
    5.1550    0.5859   21.1809 H   0  0  0  0  0  0  0  0  0  0  0  0
  1  2  1  0
  2  3  1  0
  3  4  2  0
  3  5  1  0
  5  6  1  0
  6  7  1  0
  5  8  2  3
  8  9  1  0
  8 10  1  0
 10 11  2  0
 10 12  1  0
 12 13  1  0
 12 14  1  0
 14 15  2  0
 14 16  1  0
 16 17  2  0
 17 18  1  0
 17 19  1  0
 19 20  2  0
 20 21  1  0
 20 22  1  0
 22 23  1  0
 22 24  2  0
 24 25  1  0
 24 16  1  0
M  END
>  <cnnaffinity>  (1) 
-4.73105

>  <filename>  (1) 
O=C(C=C(O)C(=O)O)NC(=S)c1cccnc1

$$$$
