
     RDKit          3D

 33 35  0  0  0  0  0  0  0  0999 V2000
    4.9598    1.8365   16.9168 H   0  0  0  0  0  0  0  0  0  0  0  0
    5.4056    1.2852   17.7423 C   0  0  0  0  0  0  0  0  0  0  0  0
    6.5007    0.5700   17.4429 N   0  0  0  0  0  0  0  0  0  0  0  0
    7.0865   -0.1018   18.4361 C   0  0  0  0  0  0  0  0  0  0  0  0
    7.9706   -0.6804   18.1772 H   0  0  0  0  0  0  0  0  0  0  0  0
    6.6350   -0.0687   19.7629 C   0  0  0  0  0  0  0  0  0  0  0  0
    7.4459   -0.6788   20.8841 C   0  0  0  0  0  0  0  0  0  0  0  0
    6.7034   -1.6026   21.5392 F   0  0  0  0  0  0  0  0  0  0  0  0
    8.5251   -1.3598   20.3554 F   0  0  0  0  0  0  0  0  0  0  0  0
    7.9657    0.4051   21.9225 C   0  0  0  0  0  0  0  0  0  0  0  0
    7.3813    0.6709   22.9452 O   0  0  0  0  0  0  0  0  0  0  0  0
    9.0987    1.0641   21.4851 N   0  0  0  0  0  0  0  0  0  0  0  0
    9.6769    0.5425   20.8459 H   0  0  0  0  0  0  0  0  0  0  0  0
    9.7761    2.1353   22.1380 C   0  0  0  0  0  0  0  0  0  0  0  0
    9.2168    3.3733   22.3846 C   0  0  0  0  0  0  0  0  0  0  0  0
    8.1544    3.5364   22.2163 H   0  0  0  0  0  0  0  0  0  0  0  0
    9.9176    4.4514   22.8519 N   0  0  0  0  0  0  0  0  0  0  0  0
   11.2143    4.3199   23.0412 C   0  0  0  0  0  0  0  0  0  0  0  0
   11.7607    5.2098   23.3606 H   0  0  0  0  0  0  0  0  0  0  0  0
   11.9235    3.0901   22.8611 C   0  0  0  0  0  0  0  0  0  0  0  0
   13.3351    2.9623   23.0353 C   0  0  0  0  0  0  0  0  0  0  0  0
   13.9215    3.8402   23.3055 H   0  0  0  0  0  0  0  0  0  0  0  0
   13.9386    1.7371   22.8608 C   0  0  0  0  0  0  0  0  0  0  0  0
   15.0161    1.6385   22.8781 H   0  0  0  0  0  0  0  0  0  0  0  0
   13.1724    0.5792   22.5757 C   0  0  0  0  0  0  0  0  0  0  0  0
   13.6789   -0.3750   22.4580 H   0  0  0  0  0  0  0  0  0  0  0  0
   11.8104    0.6738   22.4220 C   0  0  0  0  0  0  0  0  0  0  0  0
   11.2047   -0.2200   22.2964 H   0  0  0  0  0  0  0  0  0  0  0  0
   11.1639    1.9445   22.4678 C   0  0  0  0  0  0  0  0  0  0  0  0
    5.4626    0.6394   20.0595 C   0  0  0  0  0  0  0  0  0  0  0  0
    5.0675    0.6640   21.0770 H   0  0  0  0  0  0  0  0  0  0  0  0
    4.8392    1.3281   19.0203 C   0  0  0  0  0  0  0  0  0  0  0  0
    3.9419    1.9124   19.1842 H   0  0  0  0  0  0  0  0  0  0  0  0
  1  2  1  0
  2  3  2  0
  3  4  1  0
  4  5  1  0
  4  6  2  0
  6  7  1  0
  7  8  1  0
  7  9  1  0
  7 10  1  0
 10 11  2  0
 10 12  1  0
 12 13  1  0
 12 14  1  0
 14 15  2  0
 15 16  1  0
 15 17  1  0
 17 18  2  0
 18 19  1  0
 18 20  1  0
 20 21  2  0
 21 22  1  0
 21 23  1  0
 23 24  1  0
 23 25  2  0
 25 26  1  0
 25 27  1  0
 27 28  1  0
 27 29  2  0
  6 30  1  0
 30 31  1  0
 30 32  2  0
 32 33  1  0
 32  2  1  0
 29 14  1  0
 29 20  1  0
M  END
>  <cnnaffinity>  (1) 
-5.19129

>  <filename>  (1) 
O=C(Nc1cncc2ccccc12)C(F)(F)c1cccnc1

$$$$
