
     RDKit          3D

 33 35  0  0  0  0  0  0  0  0999 V2000
    4.9225    1.7866   16.8398 H   0  0  0  0  0  0  0  0  0  0  0  0
    5.3723    1.3080   17.7073 C   0  0  0  0  0  0  0  0  0  0  0  0
    6.5108    0.6314   17.4818 N   0  0  0  0  0  0  0  0  0  0  0  0
    7.1262    0.0747   18.5316 C   0  0  0  0  0  0  0  0  0  0  0  0
    8.0476   -0.4762   18.3398 H   0  0  0  0  0  0  0  0  0  0  0  0
    6.6297    0.1578   19.8474 C   0  0  0  0  0  0  0  0  0  0  0  0
    7.3421   -0.4211   20.9473 N   0  0  0  0  0  0  0  0  0  0  0  0
    6.8598   -1.4675   21.6994 C   0  0  0  0  0  0  0  0  0  0  0  0
    5.8595   -1.8559   21.5586 H   0  0  0  0  0  0  0  0  0  0  0  0
    7.8196   -1.8857   22.5560 C   0  0  0  0  0  0  0  0  0  0  0  0
    7.5801   -3.0532   23.4780 C   0  0  0  0  0  0  0  0  0  0  0  0
    6.5216   -3.6570   23.4133 O   0  0  0  0  0  0  0  0  0  0  0  0
    8.5797   -3.3849   24.3465 N   0  0  0  0  0  0  0  0  0  0  0  0
    9.3182   -2.7098   24.4343 H   0  0  0  0  0  0  0  0  0  0  0  0
    8.4792   -4.2949   25.4219 C   0  0  0  0  0  0  0  0  0  0  0  0
    7.5967   -5.3861   25.4290 C   0  0  0  0  0  0  0  0  0  0  0  0
    6.9517   -5.5470   24.5810 H   0  0  0  0  0  0  0  0  0  0  0  0
    7.4970   -6.1961   26.5628 C   0  0  0  0  0  0  0  0  0  0  0  0
    6.7929   -7.0216   26.6186 H   0  0  0  0  0  0  0  0  0  0  0  0
    8.2987   -5.9272   27.6676 C   0  0  0  0  0  0  0  0  0  0  0  0
    8.1429   -6.6791   28.7685 F   0  0  0  0  0  0  0  0  0  0  0  0
    9.2374   -4.8955   27.6452 C   0  0  0  0  0  0  0  0  0  0  0  0
    9.9046   -4.7273   28.4788 H   0  0  0  0  0  0  0  0  0  0  0  0
    9.2981   -4.0643   26.5279 C   0  0  0  0  0  0  0  0  0  0  0  0
    9.9603   -3.2073   26.5203 H   0  0  0  0  0  0  0  0  0  0  0  0
    8.9083   -1.0190   22.3237 N   0  0  0  0  0  0  0  0  0  0  0  0
    9.8686   -0.9928   22.6380 H   0  0  0  0  0  0  0  0  0  0  0  0
    8.6309   -0.1159   21.3426 C   0  0  0  0  0  0  0  0  0  0  0  0
    9.6864    1.0379   20.7928 S   0  0  0  0  0  0  0  0  0  0  0  0
    5.4074    0.8003   20.0643 C   0  0  0  0  0  0  0  0  0  0  0  0
    4.9857    0.8352   21.0713 H   0  0  0  0  0  0  0  0  0  0  0  0
    4.7756    1.4027   18.9702 C   0  0  0  0  0  0  0  0  0  0  0  0
    3.8494    1.9558   19.0848 H   0  0  0  0  0  0  0  0  0  0  0  0
  1  2  1  0
  2  3  2  0
  3  4  1  0
  4  5  1  0
  4  6  2  0
  6  7  1  0
  7  8  1  0
  8  9  1  0
  8 10  2  0
 10 11  1  0
 11 12  2  0
 11 13  1  0
 13 14  1  0
 13 15  1  0
 15 16  2  0
 16 17  1  0
 16 18  1  0
 18 19  1  0
 18 20  2  0
 20 21  1  0
 20 22  1  0
 22 23  1  0
 22 24  2  0
 24 25  1  0
 10 26  1  0
 26 27  1  0
 26 28  1  0
 28 29  2  0
  6 30  1  0
 30 31  1  0
 30 32  2  0
 32 33  1  0
 32  2  1  0
 28  7  1  0
 24 15  1  0
M  END
>  <cnnaffinity>  (1) 
-5.17709

>  <filename>  (1) 
O=C(Nc1ccc(F)cc1)c1cn(-c2cccnc2)c(=S)[nH]1

$$$$
