
     RDKit          3D

 29 30  0  0  0  0  0  0  0  0999 V2000
    8.9566    0.3263   21.3223 H   0  0  0  0  0  0  0  0  0  0  0  0
    8.6998   -0.5827   21.0794 O   0  0  0  0  0  0  0  0  0  0  0  0
    7.2914   -0.6090   21.1085 N   0  0  0  0  0  0  0  0  0  0  0  0
    6.6262   -1.6753   21.8149 C   0  0  0  0  0  0  0  0  0  0  0  0
    5.5809   -2.1655   21.4727 O   0  0  0  0  0  0  0  0  0  0  0  0
    7.3115   -2.0395   22.9764 N   0  0  0  0  0  0  0  0  0  0  0  0
    8.2605   -1.6934   23.0344 H   0  0  0  0  0  0  0  0  0  0  0  0
    6.7772   -2.8368   23.9248 C   0  0  0  0  0  0  0  0  0  0  0  0
    6.2724   -3.5584   24.7472 C   0  0  0  0  0  0  0  0  0  0  0  0
    5.6687   -4.4416   25.7049 C   0  0  0  0  0  0  0  0  0  0  0  0
    4.3258   -4.4054   25.7969 N   0  0  0  0  0  0  0  0  0  0  0  0
    3.7350   -5.2170   26.6777 C   0  0  0  0  0  0  0  0  0  0  0  0
    2.6440   -5.1499   26.7200 H   0  0  0  0  0  0  0  0  0  0  0  0
    4.4399   -6.1019   27.5005 C   0  0  0  0  0  0  0  0  0  0  0  0
    3.8875   -6.7300   28.1922 H   0  0  0  0  0  0  0  0  0  0  0  0
    5.8368   -6.1477   27.4043 C   0  0  0  0  0  0  0  0  0  0  0  0
    6.4246   -6.8284   28.0254 H   0  0  0  0  0  0  0  0  0  0  0  0
    6.4674   -5.2993   26.4884 C   0  0  0  0  0  0  0  0  0  0  0  0
    7.5443   -5.2754   26.3566 H   0  0  0  0  0  0  0  0  0  0  0  0
    6.6782    0.0142   19.9741 C   0  0  0  0  0  0  0  0  0  0  0  0
    7.2305    0.0421   18.6710 C   0  0  0  0  0  0  0  0  0  0  0  0
    8.1765   -0.4400   18.4365 H   0  0  0  0  0  0  0  0  0  0  0  0
    6.6214    0.6418   17.6385 N   0  0  0  0  0  0  0  0  0  0  0  0
    5.4533    1.2634   17.8660 C   0  0  0  0  0  0  0  0  0  0  0  0
    4.9974    1.7599   17.0132 H   0  0  0  0  0  0  0  0  0  0  0  0
    4.8263    1.2944   19.1160 C   0  0  0  0  0  0  0  0  0  0  0  0
    3.8875    1.8273   19.2455 H   0  0  0  0  0  0  0  0  0  0  0  0
    5.4437    0.6476   20.1861 C   0  0  0  0  0  0  0  0  0  0  0  0
    4.9878    0.6258   21.1736 H   0  0  0  0  0  0  0  0  0  0  0  0
  1  2  1  0
  2  3  1  0
  3  4  1  0
  4  5  2  0
  4  6  1  0
  6  7  1  0
  6  8  1  0
  8  9  3  0
  9 10  1  0
 10 11  2  0
 11 12  1  0
 12 13  1  0
 12 14  2  0
 14 15  1  0
 14 16  1  0
 16 17  1  0
 16 18  2  0
 18 19  1  0
  3 20  1  0
 20 21  2  0
 21 22  1  0
 21 23  1  0
 23 24  2  0
 24 25  1  0
 24 26  1  0
 26 27  1  0
 26 28  2  0
 28 29  1  0
 18 10  1  0
 28 20  1  0
M  END
>  <cnnaffinity>  (1) 
-4.62062

>  <filename>  (1) 
O=C(NC#Cc1ccccn1)N(O)c1cccnc1

$$$$
