
     RDKit          3D

 41 43  0  0  0  0  0  0  0  0999 V2000
    7.2905    0.9865   22.5018 O   0  0  0  0  0  0  0  0  0  0  0  0
    7.4107   -0.1957   22.2478 C   0  0  0  0  0  0  0  0  0  0  0  0
    7.8697   -1.2211   23.3309 C   0  0  0  0  0  0  0  0  0  0  0  0
    6.8533   -1.9830   24.0805 N   0  0  0  0  0  0  0  0  0  0  0  0
    6.0881   -2.9527   23.5072 C   0  0  0  0  0  0  0  0  0  0  0  0
    6.2925   -3.3508   22.3672 O   0  0  0  0  0  0  0  0  0  0  0  0
    4.9342   -3.4543   24.3926 C   0  0  0  0  0  0  0  0  0  0  0  0
    3.7926   -3.9954   23.7836 C   0  0  0  0  0  0  0  0  0  0  0  0
    2.7253   -4.4186   24.5819 C   0  0  0  0  0  0  0  0  0  0  0  0
    2.7351   -4.3960   25.9142 N   0  0  0  0  0  0  0  0  0  0  0  0
    3.8231   -3.9009   26.5293 C   0  0  0  0  0  0  0  0  0  0  0  0
    3.8113   -3.9190   28.0283 C   0  0  0  0  0  0  0  0  0  0  0  0
    3.0963   -4.9182   28.7190 C   0  0  0  0  0  0  0  0  0  0  0  0
    3.1584   -5.0174   30.1105 C   0  0  0  0  0  0  0  0  0  0  0  0
    3.9151   -4.0975   30.8463 C   0  0  0  0  0  0  0  0  0  0  0  0
    4.5721   -3.0569   30.1825 C   0  0  0  0  0  0  0  0  0  0  0  0
    4.5215   -2.9679   28.7869 C   0  0  0  0  0  0  0  0  0  0  0  0
    5.0256   -2.1421   28.2916 H   0  0  0  0  0  0  0  0  0  0  0  0
    5.1282   -2.3148   30.7523 H   0  0  0  0  0  0  0  0  0  0  0  0
    3.9726   -4.1737   31.9309 H   0  0  0  0  0  0  0  0  0  0  0  0
    2.6123   -5.8076   30.6215 H   0  0  0  0  0  0  0  0  0  0  0  0
    2.4868   -5.6153   28.1509 H   0  0  0  0  0  0  0  0  0  0  0  0
    4.9371   -3.4306   25.8047 C   0  0  0  0  0  0  0  0  0  0  0  0
    5.8116   -3.1344   26.3785 H   0  0  0  0  0  0  0  0  0  0  0  0
    1.8271   -4.8115   24.1196 H   0  0  0  0  0  0  0  0  0  0  0  0
    3.7317   -4.1056   22.7074 H   0  0  0  0  0  0  0  0  0  0  0  0
    6.4303   -1.5841   24.9049 H   0  0  0  0  0  0  0  0  0  0  0  0
    8.5365   -1.9426   22.8467 H   0  0  0  0  0  0  0  0  0  0  0  0
    8.4521   -0.6370   24.0467 H   0  0  0  0  0  0  0  0  0  0  0  0
    7.2156   -0.7389   20.9927 N   0  0  0  0  0  0  0  0  0  0  0  0
    6.6491    0.0058   19.9038 C   0  0  0  0  0  0  0  0  0  0  0  0
    5.4758    0.7366   20.1069 C   0  0  0  0  0  0  0  0  0  0  0  0
    4.8726    1.3499   19.0043 C   0  0  0  0  0  0  0  0  0  0  0  0
    5.4858    1.2538   17.7513 C   0  0  0  0  0  0  0  0  0  0  0  0
    6.6478    0.6103   17.5498 N   0  0  0  0  0  0  0  0  0  0  0  0
    7.2108    0.0033   18.6054 C   0  0  0  0  0  0  0  0  0  0  0  0
    8.1582   -0.5041   18.4308 H   0  0  0  0  0  0  0  0  0  0  0  0
    5.0339    1.7181   16.8788 H   0  0  0  0  0  0  0  0  0  0  0  0
    3.9474    1.9011   19.1113 H   0  0  0  0  0  0  0  0  0  0  0  0
    5.0775    0.8299   21.1182 H   0  0  0  0  0  0  0  0  0  0  0  0
    7.0201   -1.7332   21.0049 H   0  0  0  0  0  0  0  0  0  0  0  0
  1  2  2  0
  2  3  1  0
  3  4  1  0
  4  5  1  0
  5  6  2  0
  5  7  1  0
  7  8  2  0
  8  9  1  0
  9 10  2  0
 10 11  1  0
 11 12  1  0
 12 13  2  0
 13 14  1  0
 14 15  2  0
 15 16  1  0
 16 17  2  0
 17 18  1  0
 16 19  1  0
 15 20  1  0
 14 21  1  0
 13 22  1  0
 11 23  2  0
 23 24  1  0
  9 25  1  0
  8 26  1  0
  4 27  1  0
  3 28  1  0
  3 29  1  0
  2 30  1  0
 30 31  1  0
 31 32  2  0
 32 33  1  0
 33 34  2  0
 34 35  1  0
 35 36  2  0
 36 37  1  0
 34 38  1  0
 33 39  1  0
 32 40  1  0
 30 41  1  0
 23  7  1  0
 36 31  1  0
 17 12  1  0
M  END
>  <cnnaffinity>  (1) 
-5.21133

>  <filename>  (1) 
O=C(CNC(=O)c1ccnc(-c2ccccc2)c1)Nc1cccnc1

$$$$
