
     RDKit          3D

 40 43  0  0  0  0  0  0  0  0999 V2000
    5.0299    1.8262   17.2286 H   0  0  0  0  0  0  0  0  0  0  0  0
    5.4893    1.1976   17.9922 C   0  0  0  0  0  0  0  0  0  0  0  0
    6.6011    0.5434   17.6240 N   0  0  0  0  0  0  0  0  0  0  0  0
    7.2126   -0.2088   18.5465 C   0  0  0  0  0  0  0  0  0  0  0  0
    8.1247   -0.7063   18.2139 H   0  0  0  0  0  0  0  0  0  0  0  0
    6.7499   -0.3709   19.8725 C   0  0  0  0  0  0  0  0  0  0  0  0
    7.5571   -1.0856   20.8732 C   0  0  0  0  0  0  0  0  0  0  0  0
    8.8948   -0.9469   21.1749 C   0  0  0  0  0  0  0  0  0  0  0  0
    9.5976   -0.3508   20.6080 H   0  0  0  0  0  0  0  0  0  0  0  0
    9.2594   -1.6115   22.3170 N   0  0  0  0  0  0  0  0  0  0  0  0
    8.1333   -2.1511   22.7193 C   0  0  0  0  0  0  0  0  0  0  0  0
    7.6065   -3.0027   24.1392 S   0  0  0  0  0  0  0  0  0  0  0  0
    5.9940   -2.8805   23.4642 C   0  0  0  0  0  0  0  0  0  0  0  0
    4.8443   -3.2756   24.1135 N   0  0  0  0  0  0  0  0  0  0  0  0
    4.0238   -2.9998   23.5977 H   0  0  0  0  0  0  0  0  0  0  0  0
    4.7590   -3.6938   25.4246 C   0  0  0  0  0  0  0  0  0  0  0  0
    5.7691   -4.0410   26.0050 O   0  0  0  0  0  0  0  0  0  0  0  0
    3.3551   -3.7422   26.0483 C   0  0  0  0  0  0  0  0  0  0  0  0
    2.7414   -2.9728   25.5582 H   0  0  0  0  0  0  0  0  0  0  0  0
    2.7068   -5.1267   25.7696 C   0  0  0  0  0  0  0  0  0  0  0  0
    2.5604   -5.2578   24.6900 H   0  0  0  0  0  0  0  0  0  0  0  0
    3.3989   -5.9189   26.0934 H   0  0  0  0  0  0  0  0  0  0  0  0
    1.3646   -5.3145   26.4964 C   0  0  0  0  0  0  0  0  0  0  0  0
    0.6085   -4.6346   26.0758 H   0  0  0  0  0  0  0  0  0  0  0  0
    0.9869   -6.3296   26.3208 H   0  0  0  0  0  0  0  0  0  0  0  0
    1.4998   -5.0510   28.0019 C   0  0  0  0  0  0  0  0  0  0  0  0
    0.5374   -5.1923   28.5113 H   0  0  0  0  0  0  0  0  0  0  0  0
    2.1933   -5.7896   28.4316 H   0  0  0  0  0  0  0  0  0  0  0  0
    2.0501   -3.6437   28.2666 C   0  0  0  0  0  0  0  0  0  0  0  0
    2.1651   -3.4753   29.3452 H   0  0  0  0  0  0  0  0  0  0  0  0
    1.3195   -2.8964   27.9222 H   0  0  0  0  0  0  0  0  0  0  0  0
    3.3992   -3.4187   27.5659 C   0  0  0  0  0  0  0  0  0  0  0  0
    4.1707   -4.0431   28.0376 H   0  0  0  0  0  0  0  0  0  0  0  0
    3.7172   -2.3794   27.7152 H   0  0  0  0  0  0  0  0  0  0  0  0
    5.8554   -2.3578   22.2878 N   0  0  0  0  0  0  0  0  0  0  0  0
    7.0827   -1.9085   21.8858 N   0  0  0  0  0  0  0  0  0  0  0  0
    5.5518    0.2778   20.2147 C   0  0  0  0  0  0  0  0  0  0  0  0
    5.1404    0.1489   21.2158 H   0  0  0  0  0  0  0  0  0  0  0  0
    4.9273    1.0898   19.2675 C   0  0  0  0  0  0  0  0  0  0  0  0
    4.0308    1.6506   19.4998 H   0  0  0  0  0  0  0  0  0  0  0  0
  1  2  1  0
  2  3  2  0
  3  4  1  0
  4  5  1  0
  4  6  2  0
  6  7  1  0
  7  8  2  0
  8  9  1  0
  8 10  1  0
 10 11  2  0
 11 12  1  0
 12 13  1  0
 13 14  1  0
 14 15  1  0
 14 16  1  0
 16 17  2  0
 16 18  1  0
 18 19  1  0
 18 20  1  0
 20 21  1  0
 20 22  1  0
 20 23  1  0
 23 24  1  0
 23 25  1  0
 23 26  1  0
 26 27  1  0
 26 28  1  0
 26 29  1  0
 29 30  1  0
 29 31  1  0
 29 32  1  0
 32 33  1  0
 32 34  1  0
 13 35  2  0
 35 36  1  0
  6 37  1  0
 37 38  1  0
 37 39  2  0
 39 40  1  0
 39  2  1  0
 36  7  1  0
 36 11  1  0
 32 18  1  0
M  END
>  <cnnaffinity>  (1) 
-5.36167

>  <filename>  (1) 
O=C(Nc1nn2c(-c3cccnc3)cnc2s1)C1CCCCC1

$$$$
