
     RDKit          3D

 35 37  0  0  0  0  0  0  0  0999 V2000
    6.0953   -2.5356   21.1196 H   0  0  0  0  0  0  0  0  0  0  0  0
    6.6271   -1.7736   21.6634 C   0  0  0  0  0  0  0  0  0  0  0  0
    6.5554   -1.6358   22.9885 C   0  0  0  0  0  0  0  0  0  0  0  0
    5.8531   -2.5218   23.8190 N   0  0  0  0  0  0  0  0  0  0  0  0
    5.9275   -2.4306   24.8207 H   0  0  0  0  0  0  0  0  0  0  0  0
    4.8794   -3.4010   23.3840 C   0  0  0  0  0  0  0  0  0  0  0  0
    4.5701   -3.5381   22.2064 O   0  0  0  0  0  0  0  0  0  0  0  0
    4.1668   -4.2581   24.4672 C   0  0  0  0  0  0  0  0  0  0  0  0
    4.7549   -4.4118   25.6720 N   0  0  0  0  0  0  0  0  0  0  0  0
    4.2770   -5.3499   26.4971 C   0  0  0  0  0  0  0  0  0  0  0  0
    4.8483   -5.5138   27.4080 H   0  0  0  0  0  0  0  0  0  0  0  0
    3.1527   -6.1262   26.2021 C   0  0  0  0  0  0  0  0  0  0  0  0
    2.8441   -6.9033   26.8913 H   0  0  0  0  0  0  0  0  0  0  0  0
    2.4683   -5.8849   25.0063 C   0  0  0  0  0  0  0  0  0  0  0  0
    1.5809   -6.4573   24.7401 H   0  0  0  0  0  0  0  0  0  0  0  0
    2.9726   -4.9263   24.1260 C   0  0  0  0  0  0  0  0  0  0  0  0
    2.4892   -4.6907   23.1804 H   0  0  0  0  0  0  0  0  0  0  0  0
    7.2459   -0.3885   23.4765 C   0  0  0  0  0  0  0  0  0  0  0  0
    8.0016   -0.6023   24.2424 H   0  0  0  0  0  0  0  0  0  0  0  0
    6.5337    0.3056   23.9434 H   0  0  0  0  0  0  0  0  0  0  0  0
    7.8674    0.2135   22.1721 C   0  0  0  0  0  0  0  0  0  0  0  0
    8.9592    0.2484   22.2381 H   0  0  0  0  0  0  0  0  0  0  0  0
    7.5265    1.2382   21.9761 H   0  0  0  0  0  0  0  0  0  0  0  0
    7.4313   -0.7205   20.9896 C   0  0  2  0  0  0  0  0  0  0  0  0
    8.3122   -1.1806   20.5057 H   0  0  0  0  0  0  0  0  0  0  0  0
    6.6613   -0.0116   19.8702 C   0  0  0  0  0  0  0  0  0  0  0  0
    7.1584    0.0512   18.5580 C   0  0  0  0  0  0  0  0  0  0  0  0
    8.1126   -0.4167   18.3120 H   0  0  0  0  0  0  0  0  0  0  0  0
    6.5537    0.6808   17.5414 N   0  0  0  0  0  0  0  0  0  0  0  0
    5.3958    1.3039   17.8088 C   0  0  0  0  0  0  0  0  0  0  0  0
    4.9263    1.8189   16.9723 H   0  0  0  0  0  0  0  0  0  0  0  0
    4.8011    1.3108   19.0753 C   0  0  0  0  0  0  0  0  0  0  0  0
    3.8717    1.8506   19.2309 H   0  0  0  0  0  0  0  0  0  0  0  0
    5.4434    0.6415   20.1192 C   0  0  0  0  0  0  0  0  0  0  0  0
    5.0131    0.6331   21.1233 H   0  0  0  0  0  0  0  0  0  0  0  0
  1  2  1  0
  2  3  2  0
  3  4  1  0
  4  5  1  0
  4  6  1  0
  6  7  2  0
  6  8  1  0
  8  9  2  0
  9 10  1  0
 10 11  1  0
 10 12  2  0
 12 13  1  0
 12 14  1  0
 14 15  1  0
 14 16  2  0
 16 17  1  0
  3 18  1  0
 18 19  1  0
 18 20  1  0
 18 21  1  0
 21 22  1  0
 21 23  1  0
 21 24  1  0
 24 25  1  6
 24 26  1  0
 26 27  2  0
 27 28  1  0
 27 29  1  0
 29 30  2  0
 30 31  1  0
 30 32  1  0
 32 33  1  0
 32 34  2  0
 34 35  1  0
 24  2  1  0
 34 26  1  0
 16  8  1  0
M  END
>  <cnnaffinity>  (1) 
-5.25787

>  <filename>  (1) 
O=C(NC1=C[C@@H](c2cccnc2)CC1)c1ccccn1

$$$$
