
     RDKit          3D

 39 41  0  0  0  0  0  0  0  0999 V2000
    4.9755   -6.9782   28.7875 H   0  0  0  0  0  0  0  0  0  0  0  0
    4.4330   -6.2253   28.2130 C   0  0  0  0  0  0  0  0  0  0  0  0
    5.1355   -5.5758   27.2824 N   0  0  0  0  0  0  0  0  0  0  0  0
    4.5141   -4.6086   26.5903 C   0  0  0  0  0  0  0  0  0  0  0  0
    5.2765   -3.9253   25.6701 N   0  0  0  0  0  0  0  0  0  0  0  0
    6.4595   -4.5639   25.0696 C   0  0  0  0  0  0  0  0  0  0  0  0
    6.2042   -5.5895   24.7764 H   0  0  0  0  0  0  0  0  0  0  0  0
    7.2728   -4.6318   25.8011 H   0  0  0  0  0  0  0  0  0  0  0  0
    6.9320   -3.8258   23.8166 C   0  0  0  0  0  0  0  0  0  0  0  0
    7.8430   -4.2901   23.4284 H   0  0  0  0  0  0  0  0  0  0  0  0
    6.1652   -3.9036   23.0367 H   0  0  0  0  0  0  0  0  0  0  0  0
    7.2111   -2.3964   24.0762 N   0  0  0  0  0  0  0  0  0  0  0  0
    7.5214   -1.7019   22.9097 N   0  0  0  0  0  0  0  0  0  0  0  0
    8.4047   -1.2244   22.8559 H   0  0  0  0  0  0  0  0  0  0  0  0
    6.7581   -1.5335   21.7882 C   0  0  0  0  0  0  0  0  0  0  0  0
    5.7323   -2.0970   21.4852 O   0  0  0  0  0  0  0  0  0  0  0  0
    7.4016   -0.5774   21.0292 O   0  0  0  0  0  0  0  0  0  0  0  0
    6.7180    0.0234   19.9728 C   0  0  0  0  0  0  0  0  0  0  0  0
    7.2576    0.0360   18.6725 C   0  0  0  0  0  0  0  0  0  0  0  0
    8.2046   -0.4675   18.4648 H   0  0  0  0  0  0  0  0  0  0  0  0
    6.6337    0.6343   17.6437 N   0  0  0  0  0  0  0  0  0  0  0  0
    5.4639    1.2532   17.8780 C   0  0  0  0  0  0  0  0  0  0  0  0
    4.9884    1.7413   17.0266 H   0  0  0  0  0  0  0  0  0  0  0  0
    4.8608    1.2867   19.1390 C   0  0  0  0  0  0  0  0  0  0  0  0
    3.9148    1.7943   19.2813 H   0  0  0  0  0  0  0  0  0  0  0  0
    5.4930    0.6429   20.2040 C   0  0  0  0  0  0  0  0  0  0  0  0
    5.0585    0.5906   21.1995 H   0  0  0  0  0  0  0  0  0  0  0  0
    6.2015   -1.7364   24.9488 C   0  0  0  0  0  0  0  0  0  0  0  0
    5.9033   -0.7756   24.5139 H   0  0  0  0  0  0  0  0  0  0  0  0
    6.6754   -1.5162   25.9104 H   0  0  0  0  0  0  0  0  0  0  0  0
    4.9398   -2.5815   25.1967 C   0  0  0  0  0  0  0  0  0  0  0  0
    4.3377   -2.0546   25.9408 H   0  0  0  0  0  0  0  0  0  0  0  0
    4.3513   -2.6419   24.2716 H   0  0  0  0  0  0  0  0  0  0  0  0
    3.1408   -4.3087   26.7703 C   0  0  0  0  0  0  0  0  0  0  0  0
    2.6760   -3.5513   26.1549 H   0  0  0  0  0  0  0  0  0  0  0  0
    2.4225   -5.0265   27.7196 C   0  0  0  0  0  0  0  0  0  0  0  0
    1.3655   -4.8228   27.8800 H   0  0  0  0  0  0  0  0  0  0  0  0
    3.0846   -6.0023   28.4724 C   0  0  0  0  0  0  0  0  0  0  0  0
    2.5748   -6.5769   29.2349 H   0  0  0  0  0  0  0  0  0  0  0  0
  1  2  1  0
  2  3  2  0
  3  4  1  0
  4  5  1  0
  5  6  1  0
  6  7  1  0
  6  8  1  0
  6  9  1  0
  9 10  1  0
  9 11  1  0
  9 12  1  0
 12 13  1  0
 13 14  1  0
 13 15  1  0
 15 16  2  0
 15 17  1  0
 17 18  1  0
 18 19  2  0
 19 20  1  0
 19 21  1  0
 21 22  2  0
 22 23  1  0
 22 24  1  0
 24 25  1  0
 24 26  2  0
 26 27  1  0
 12 28  1  0
 28 29  1  0
 28 30  1  0
 28 31  1  0
 31 32  1  0
 31 33  1  0
  4 34  2  0
 34 35  1  0
 34 36  1  0
 36 37  1  0
 36 38  2  0
 38 39  1  0
 38  2  1  0
 31  5  1  0
 26 18  1  0
M  END
>  <cnnaffinity>  (1) 
-4.70741

>  <filename>  (1) 
O=C(NN1CCN(c2ccccn2)CC1)Oc1cccnc1

$$$$
