
     RDKit          3D

 29 30  0  0  0  0  0  0  0  0999 V2000
   10.7983    4.1168   21.4130 H   0  0  0  0  0  0  0  0  0  0  0  0
   10.9049    3.6468   22.2591 O   0  0  0  0  0  0  0  0  0  0  0  0
    9.9037    2.4773   21.9804 P   0  0  0  0  0  0  0  0  0  0  0  0
   10.3900    1.7293   20.8056 O   0  0  0  0  0  0  0  0  0  0  0  0
    8.6722    3.2891   21.4335 O   0  0  0  0  0  0  0  0  0  0  0  0
    9.1111    3.7600   20.7026 H   0  0  0  0  0  0  0  0  0  0  0  0
    9.5510    1.3892   23.4064 C   0  0  0  0  0  0  0  0  0  0  0  0
    9.2252    2.0286   24.5872 F   0  0  0  0  0  0  0  0  0  0  0  0
   10.4834    0.4110   23.6675 F   0  0  0  0  0  0  0  0  0  0  0  0
    8.3819    0.9015   22.5787 C   0  0  0  0  0  0  0  0  0  0  0  0
    7.2976    1.4456   22.7618 O   0  0  0  0  0  0  0  0  0  0  0  0
    8.6658    0.0555   21.5581 O   0  0  0  0  0  0  0  0  0  0  0  0
    7.5126   -0.5885   21.0373 C   0  0  0  0  0  0  0  0  0  0  0  0
    6.7636    0.1284   19.9569 C   0  0  0  0  0  0  0  0  0  0  0  0
    7.2949    0.1399   18.6607 C   0  0  0  0  0  0  0  0  0  0  0  0
    8.2435   -0.3541   18.4792 H   0  0  0  0  0  0  0  0  0  0  0  0
    6.6614    0.7026   17.6130 N   0  0  0  0  0  0  0  0  0  0  0  0
    5.4715    1.2828   17.8394 C   0  0  0  0  0  0  0  0  0  0  0  0
    4.9324    1.7269   17.0082 H   0  0  0  0  0  0  0  0  0  0  0  0
    4.8833    1.3255   19.1103 C   0  0  0  0  0  0  0  0  0  0  0  0
    3.9186    1.7975   19.2345 H   0  0  0  0  0  0  0  0  0  0  0  0
    5.5375    0.7475   20.1965 C   0  0  0  0  0  0  0  0  0  0  0  0
    5.0999    0.7611   21.1961 H   0  0  0  0  0  0  0  0  0  0  0  0
    6.7623   -1.4602   22.0300 C   0  0  0  0  0  0  0  0  0  0  0  0
    7.1298   -1.4990   23.0632 H   0  0  0  0  0  0  0  0  0  0  0  0
    5.6818   -1.5088   21.9128 H   0  0  0  0  0  0  0  0  0  0  0  0
    7.5946   -2.0956   20.9284 C   0  0  0  0  0  0  0  0  0  0  0  0
    8.5491   -2.5693   21.1839 H   0  0  0  0  0  0  0  0  0  0  0  0
    7.0451   -2.5425   20.0974 H   0  0  0  0  0  0  0  0  0  0  0  0
  1  2  1  0
  2  3  1  0
  3  4  2  0
  3  5  1  0
  5  6  1  0
  3  7  1  0
  7  8  1  0
  7  9  1  0
  7 10  1  0
 10 11  2  0
 10 12  1  0
 12 13  1  0
 13 14  1  0
 14 15  2  0
 15 16  1  0
 15 17  1  0
 17 18  2  0
 18 19  1  0
 18 20  1  0
 20 21  1  0
 20 22  2  0
 22 23  1  0
 13 24  1  0
 24 25  1  0
 24 26  1  0
 24 27  1  0
 27 28  1  0
 27 29  1  0
 27 13  1  0
 22 14  1  0
M  END
>  <cnnaffinity>  (1) 
-4.39414

>  <filename>  (1) 
O=C(OC1(c2cccnc2)CC1)C(F)(F)P(=O)(O)O

$$$$
