
     RDKit          3D

 38 40  0  0  0  0  0  0  0  0999 V2000
    6.4678    0.6954   22.5727 O   0  0  0  0  0  0  0  0  0  0  0  0
    7.2053   -0.2245   22.2487 C   0  0  0  0  0  0  0  0  0  0  0  0
    7.3818   -0.5654   20.9178 N   0  0  0  0  0  0  0  0  0  0  0  0
    6.7163    0.0125   19.8176 C   0  0  0  0  0  0  0  0  0  0  0  0
    5.5582    0.7594   20.0316 C   0  0  0  0  0  0  0  0  0  0  0  0
    4.9543    1.3811   18.9374 C   0  0  0  0  0  0  0  0  0  0  0  0
    5.4937    1.2222   17.6566 C   0  0  0  0  0  0  0  0  0  0  0  0
    6.5935    0.4828   17.4202 N   0  0  0  0  0  0  0  0  0  0  0  0
    7.1879   -0.1018   18.4831 C   0  0  0  0  0  0  0  0  0  0  0  0
    8.0939   -0.6730   18.3057 H   0  0  0  0  0  0  0  0  0  0  0  0
    5.0046    1.7217   16.8272 H   0  0  0  0  0  0  0  0  0  0  0  0
    4.0789    2.0084   19.0671 H   0  0  0  0  0  0  0  0  0  0  0  0
    5.1514    0.8695   21.0350 H   0  0  0  0  0  0  0  0  0  0  0  0
    8.1953   -1.1450   20.7545 H   0  0  0  0  0  0  0  0  0  0  0  0
    7.9457   -0.9134   23.2061 N   0  0  0  0  0  0  0  0  0  0  0  0
    8.5244   -2.2386   22.8943 C   0  0  0  0  0  0  0  0  0  0  0  0
    9.1035   -2.9396   24.1465 C   0  0  0  0  0  0  0  0  0  0  0  0
    8.0512   -3.0232   25.1877 N   0  0  0  0  0  0  0  0  0  0  0  0
    7.8705   -4.1538   25.9888 C   0  0  0  0  0  0  0  0  0  0  0  0
    6.8750   -4.1150   26.9696 C   0  0  0  0  0  0  0  0  0  0  0  0
    6.7436   -5.1450   27.8919 C   0  0  0  0  0  0  0  0  0  0  0  0
    7.6143   -6.2144   27.7807 C   0  0  0  0  0  0  0  0  0  0  0  0
    7.5262   -7.5933   29.1186 Br  0  0  0  0  0  0  0  0  0  0  0  0
    8.5246   -6.2314   26.7049 C   0  0  0  0  0  0  0  0  0  0  0  0
    8.6528   -5.2250   25.8188 N   0  0  0  0  0  0  0  0  0  0  0  0
    9.1576   -7.0997   26.5709 H   0  0  0  0  0  0  0  0  0  0  0  0
    6.0055   -5.1166   28.6935 H   0  0  0  0  0  0  0  0  0  0  0  0
    6.2230   -3.2536   27.0076 H   0  0  0  0  0  0  0  0  0  0  0  0
    7.1704   -1.8407   25.3533 C   0  0  0  0  0  0  0  0  0  0  0  0
    7.7371   -0.6089   24.6298 C   0  0  0  0  0  0  0  0  0  0  0  0
    8.6899   -0.3234   25.0885 H   0  0  0  0  0  0  0  0  0  0  0  0
    7.0431    0.2283   24.7531 H   0  0  0  0  0  0  0  0  0  0  0  0
    7.0612   -1.5948   26.4136 H   0  0  0  0  0  0  0  0  0  0  0  0
    6.1813   -2.0715   24.9420 H   0  0  0  0  0  0  0  0  0  0  0  0
    9.9463   -2.3500   24.5242 H   0  0  0  0  0  0  0  0  0  0  0  0
    9.4890   -3.9301   23.8783 H   0  0  0  0  0  0  0  0  0  0  0  0
    9.3124   -2.1513   22.1364 H   0  0  0  0  0  0  0  0  0  0  0  0
    7.7327   -2.8834   22.4969 H   0  0  0  0  0  0  0  0  0  0  0  0
  1  2  2  0
  2  3  1  0
  3  4  1  0
  4  5  2  0
  5  6  1  0
  6  7  2  0
  7  8  1  0
  8  9  2  0
  9 10  1  0
  7 11  1  0
  6 12  1  0
  5 13  1  0
  3 14  1  0
  2 15  1  0
 15 16  1  0
 16 17  1  0
 17 18  1  0
 18 19  1  0
 19 20  2  0
 20 21  1  0
 21 22  2  0
 22 23  1  0
 22 24  1  0
 24 25  2  0
 24 26  1  0
 21 27  1  0
 20 28  1  0
 18 29  1  0
 29 30  1  0
 30 31  1  0
 30 32  1  0
 29 33  1  0
 29 34  1  0
 17 35  1  0
 17 36  1  0
 16 37  1  0
 16 38  1  0
  9  4  1  0
 30 15  1  0
 25 19  1  0
M  END
>  <cnnaffinity>  (1) 
-4.89621

>  <filename>  (1) 
O=C(Nc1cccnc1)N1CCN(c2ccc(Br)cn2)CC1

$$$$
