
     RDKit          3D

 33 34  0  0  0  0  0  0  0  0999 V2000
    5.4411   -2.1036   21.1195 O   0  0  0  0  0  0  0  0  0  0  0  0
    6.4143   -1.5367   21.5967 C   0  0  0  0  0  0  0  0  0  0  0  0
    6.8367   -1.8800   23.0613 C   0  0  0  0  0  0  0  0  0  0  0  0
    6.8749   -0.7939   24.1061 N   0  0  0  0  0  0  0  0  0  0  0  0
    8.1814   -0.7348   25.2223 S   0  0  0  0  0  0  0  0  0  0  0  0
    8.0773    0.5757   25.8754 O   0  0  0  0  0  0  0  0  0  0  0  0
    7.9920   -1.8718   26.1331 O   0  0  0  0  0  0  0  0  0  0  0  0
    9.5836   -0.9466   24.0758 C   0  0  0  0  0  0  0  0  0  0  0  0
   10.0678    0.1171   23.2781 C   0  0  0  0  0  0  0  0  0  0  0  0
   11.1016   -0.1057   22.3584 C   0  0  0  0  0  0  0  0  0  0  0  0
   11.6302   -1.3832   22.1902 C   0  0  0  0  0  0  0  0  0  0  0  0
   13.0676   -1.7032   20.9693 Br  0  0  0  0  0  0  0  0  0  0  0  0
   11.1214   -2.4297   22.9538 C   0  0  0  0  0  0  0  0  0  0  0  0
   10.1279   -2.2297   23.9032 C   0  0  0  0  0  0  0  0  0  0  0  0
    9.7742   -3.1023   24.4608 H   0  0  0  0  0  0  0  0  0  0  0  0
   11.5353   -3.4141   22.8296 H   0  0  0  0  0  0  0  0  0  0  0  0
   11.4896    0.7071   21.7558 H   0  0  0  0  0  0  0  0  0  0  0  0
    9.6561    1.1232   23.3328 H   0  0  0  0  0  0  0  0  0  0  0  0
    6.0278   -0.7525   24.6686 H   0  0  0  0  0  0  0  0  0  0  0  0
    7.8272   -2.3302   22.9679 H   0  0  0  0  0  0  0  0  0  0  0  0
    6.1548   -2.6616   23.4100 H   0  0  0  0  0  0  0  0  0  0  0  0
    7.2038   -0.7679   20.7424 N   0  0  0  0  0  0  0  0  0  0  0  0
    6.6563   -0.0741   19.6431 C   0  0  0  0  0  0  0  0  0  0  0  0
    5.3679    0.4458   19.7759 C   0  0  0  0  0  0  0  0  0  0  0  0
    4.8266    1.1752   18.7164 C   0  0  0  0  0  0  0  0  0  0  0  0
    5.5745    1.3653   17.5465 C   0  0  0  0  0  0  0  0  0  0  0  0
    6.8118    0.8528   17.3897 N   0  0  0  0  0  0  0  0  0  0  0  0
    7.3387    0.1570   18.4227 C   0  0  0  0  0  0  0  0  0  0  0  0
    8.3330   -0.2623   18.3080 H   0  0  0  0  0  0  0  0  0  0  0  0
    5.1369    1.9517   16.7433 H   0  0  0  0  0  0  0  0  0  0  0  0
    3.8350    1.6070   18.7957 H   0  0  0  0  0  0  0  0  0  0  0  0
    4.8198    0.2965   20.7049 H   0  0  0  0  0  0  0  0  0  0  0  0
    8.0978   -0.4525   21.1092 H   0  0  0  0  0  0  0  0  0  0  0  0
  1  2  2  0
  2  3  1  0
  3  4  1  0
  4  5  1  0
  5  6  2  0
  5  7  2  0
  5  8  1  0
  8  9  2  0
  9 10  1  0
 10 11  2  0
 11 12  1  0
 11 13  1  0
 13 14  2  0
 14 15  1  0
 13 16  1  0
 10 17  1  0
  9 18  1  0
  4 19  1  0
  3 20  1  0
  3 21  1  0
  2 22  1  0
 22 23  1  0
 23 24  2  0
 24 25  1  0
 25 26  2  0
 26 27  1  0
 27 28  2  0
 28 29  1  0
 26 30  1  0
 25 31  1  0
 24 32  1  0
 22 33  1  0
 14  8  1  0
 28 23  1  0
M  END
>  <cnnaffinity>  (1) 
-5.43223

>  <filename>  (1) 
O=C(CNS(=O)(=O)c1ccc(Br)cc1)Nc1cccnc1

$$$$
