
     RDKit          3D

 25 26  0  0  0  0  0  0  0  0999 V2000
    4.9397    1.7830   16.9854 H   0  0  0  0  0  0  0  0  0  0  0  0
    5.4072    1.2915   17.8370 C   0  0  0  0  0  0  0  0  0  0  0  0
    6.5750    0.6823   17.5913 N   0  0  0  0  0  0  0  0  0  0  0  0
    7.1882    0.0792   18.6133 C   0  0  0  0  0  0  0  0  0  0  0  0
    8.1320   -0.4056   18.3796 H   0  0  0  0  0  0  0  0  0  0  0  0
    6.6689    0.0457   19.9153 C   0  0  0  0  0  0  0  0  0  0  0  0
    7.3415   -0.7854   20.9817 C   0  0  0  0  0  0  0  0  0  0  0  0
    8.6710   -0.9191   20.7078 F   0  0  0  0  0  0  0  0  0  0  0  0
    7.2788   -0.1256   22.1874 F   0  0  0  0  0  0  0  0  0  0  0  0
    6.7135   -2.2367   21.1579 C   0  0  0  0  0  0  0  0  0  0  0  0
    6.2584   -2.8377   20.2050 O   0  0  0  0  0  0  0  0  0  0  0  0
    6.7124   -2.7790   22.4244 N   0  0  0  0  0  0  0  0  0  0  0  0
    7.1352   -2.2782   23.1935 H   0  0  0  0  0  0  0  0  0  0  0  0
    6.0255   -3.9536   22.7543 C   0  0  0  0  0  0  0  0  0  0  0  0
    4.9758   -4.7748   21.6375 S   0  0  0  0  0  0  0  0  0  0  0  0
    4.5393   -5.9053   22.8618 C   0  0  0  0  0  0  0  0  0  0  0  0
    3.3026   -7.0619   22.5571 Cl  0  0  0  0  0  0  0  0  0  0  0  0
    5.2173   -5.7206   24.0265 C   0  0  0  0  0  0  0  0  0  0  0  0
    5.0944   -6.3937   24.8681 H   0  0  0  0  0  0  0  0  0  0  0  0
    6.0737   -4.5747   23.9673 C   0  0  0  0  0  0  0  0  0  0  0  0
    6.7072   -4.2134   24.7696 H   0  0  0  0  0  0  0  0  0  0  0  0
    5.4446    0.6799   20.1639 C   0  0  0  0  0  0  0  0  0  0  0  0
    5.0038    0.6688   21.1614 H   0  0  0  0  0  0  0  0  0  0  0  0
    4.8051    1.3183   19.1000 C   0  0  0  0  0  0  0  0  0  0  0  0
    3.8626    1.8376   19.2288 H   0  0  0  0  0  0  0  0  0  0  0  0
  1  2  1  0
  2  3  2  0
  3  4  1  0
  4  5  1  0
  4  6  2  0
  6  7  1  0
  7  8  1  0
  7  9  1  0
  7 10  1  0
 10 11  2  0
 10 12  1  0
 12 13  1  0
 12 14  1  0
 14 15  1  0
 15 16  1  0
 16 17  1  0
 16 18  2  0
 18 19  1  0
 18 20  1  0
 20 21  1  0
  6 22  1  0
 22 23  1  0
 22 24  2  0
 24 25  1  0
 24  2  1  0
 20 14  2  0
M  END
>  <cnnaffinity>  (1) 
-4.27994

>  <filename>  (1) 
O=C(Nc1ccc(Cl)s1)C(F)(F)c1cccnc1

$$$$
