
     RDKit          3D

 28 29  0  0  0  0  0  0  0  0999 V2000
   10.4193    2.9370   23.8173 H   0  0  0  0  0  0  0  0  0  0  0  0
   11.1888    2.7714   23.2382 O   0  0  0  0  0  0  0  0  0  0  0  0
   10.9543    1.5780   22.5737 N   0  0  0  0  0  0  0  0  0  0  0  0
   10.7772    1.6737   21.5835 H   0  0  0  0  0  0  0  0  0  0  0  0
   11.2119    0.3311   23.0741 C   0  0  0  0  0  0  0  0  0  0  0  0
   11.5206    0.0715   24.2212 O   0  0  0  0  0  0  0  0  0  0  0  0
   10.9528   -0.7852   22.0581 C   0  0  0  0  0  0  0  0  0  0  0  0
   11.5233   -1.6308   22.4540 H   0  0  0  0  0  0  0  0  0  0  0  0
   11.3035   -0.5554   21.0473 H   0  0  0  0  0  0  0  0  0  0  0  0
    9.4811   -1.0932   22.0037 C   0  0  0  0  0  0  0  0  0  0  0  0
    8.7721   -0.4561   21.0118 N   0  0  0  0  0  0  0  0  0  0  0  0
    7.4699   -0.6632   20.9293 C   0  0  0  0  0  0  0  0  0  0  0  0
    6.7147    0.0680   19.9007 C   0  0  0  0  0  0  0  0  0  0  0  0
    7.2167    0.1063   18.5853 C   0  0  0  0  0  0  0  0  0  0  0  0
    8.1533   -0.3906   18.3293 H   0  0  0  0  0  0  0  0  0  0  0  0
    6.5740    0.6803   17.5638 N   0  0  0  0  0  0  0  0  0  0  0  0
    5.4083    1.2898   17.8319 C   0  0  0  0  0  0  0  0  0  0  0  0
    4.9266    1.7841   16.9905 H   0  0  0  0  0  0  0  0  0  0  0  0
    4.8222    1.3135   19.1004 C   0  0  0  0  0  0  0  0  0  0  0  0
    3.8810    1.8291   19.2478 H   0  0  0  0  0  0  0  0  0  0  0  0
    5.4729    0.6736   20.1539 C   0  0  0  0  0  0  0  0  0  0  0  0
    5.0134    0.6081   21.1408 H   0  0  0  0  0  0  0  0  0  0  0  0
    6.7548   -1.6653   21.8113 C   0  0  0  0  0  0  0  0  0  0  0  0
    5.6362   -2.1465   21.7087 O   0  0  0  0  0  0  0  0  0  0  0  0
    7.5415   -2.1217   22.8586 N   0  0  0  0  0  0  0  0  0  0  0  0
    6.9807   -2.7485   23.4197 H   0  0  0  0  0  0  0  0  0  0  0  0
    8.8967   -1.9070   22.9388 C   0  0  0  0  0  0  0  0  0  0  0  0
    9.4618   -2.3983   23.7245 H   0  0  0  0  0  0  0  0  0  0  0  0
  1  2  1  0
  2  3  1  0
  3  4  1  0
  3  5  1  0
  5  6  2  0
  5  7  1  0
  7  8  1  0
  7  9  1  0
  7 10  1  0
 10 11  1  0
 11 12  2  0
 12 13  1  0
 13 14  2  0
 14 15  1  0
 14 16  1  0
 16 17  2  0
 17 18  1  0
 17 19  1  0
 19 20  1  0
 19 21  2  0
 21 22  1  0
 12 23  1  0
 23 24  2  0
 23 25  1  0
 25 26  1  0
 25 27  1  0
 27 28  1  0
 27 10  2  0
 21 13  1  0
M  END
>  <cnnaffinity>  (1) 
-4.65623

>  <filename>  (1) 
O=C(Cc1c[nH]c(=O)c(-c2cccnc2)n1)NO

$$$$
