
     RDKit          3D

 40 42  0  0  0  0  0  0  0  0999 V2000
    5.9062   -2.3155   21.4212 O   0  0  0  0  0  0  0  0  0  0  0  0
    6.8500   -1.6269   21.7452 C   0  0  0  0  0  0  0  0  0  0  0  0
    7.5569   -1.7795   23.1241 C   0  0  0  0  0  0  0  0  0  0  0  0
    7.0599   -0.9279   24.2127 O   0  0  0  0  0  0  0  0  0  0  0  0
    7.5228    0.3312   24.3178 C   0  0  0  0  0  0  0  0  0  0  0  0
    8.2513    0.8294   23.4739 O   0  0  0  0  0  0  0  0  0  0  0  0
    7.0402    1.1001   25.5719 C   0  0  0  0  0  0  0  0  0  0  0  0
    7.3876    2.4593   25.6907 C   0  0  0  0  0  0  0  0  0  0  0  0
    6.9375    3.1717   26.8075 C   0  0  0  0  0  0  0  0  0  0  0  0
    6.1581    2.5172   27.7604 C   0  0  0  0  0  0  0  0  0  0  0  0
    5.8448    1.1561   27.5680 C   0  0  0  0  0  0  0  0  0  0  0  0
    4.9801    0.3981   28.5371 C   0  0  0  0  0  0  0  0  0  0  0  0
    3.9918    1.0448   29.3095 C   0  0  0  0  0  0  0  0  0  0  0  0
    3.2169    0.3274   30.2241 C   0  0  0  0  0  0  0  0  0  0  0  0
    3.4122   -1.0469   30.3887 C   0  0  0  0  0  0  0  0  0  0  0  0
    4.3788   -1.7029   29.6203 C   0  0  0  0  0  0  0  0  0  0  0  0
    5.1448   -0.9924   28.6944 C   0  0  0  0  0  0  0  0  0  0  0  0
    5.8728   -1.5034   28.0681 H   0  0  0  0  0  0  0  0  0  0  0  0
    4.5375   -2.7711   29.7340 H   0  0  0  0  0  0  0  0  0  0  0  0
    2.8164   -1.6048   31.1050 H   0  0  0  0  0  0  0  0  0  0  0  0
    2.4649    0.8433   30.8140 H   0  0  0  0  0  0  0  0  0  0  0  0
    3.8077    2.1109   29.1945 H   0  0  0  0  0  0  0  0  0  0  0  0
    6.3107    0.4723   26.5090 N   0  0  0  0  0  0  0  0  0  0  0  0
    5.7933    3.0274   28.6478 H   0  0  0  0  0  0  0  0  0  0  0  0
    7.1794    4.2276   26.9359 H   0  0  0  0  0  0  0  0  0  0  0  0
    7.9948    2.9342   24.9274 H   0  0  0  0  0  0  0  0  0  0  0  0
    8.6356   -1.6236   23.0045 H   0  0  0  0  0  0  0  0  0  0  0  0
    7.3511   -2.7883   23.4779 H   0  0  0  0  0  0  0  0  0  0  0  0
    7.4409   -0.6834   20.9150 N   0  0  0  0  0  0  0  0  0  0  0  0
    6.7195   -0.0490   19.8425 C   0  0  0  0  0  0  0  0  0  0  0  0
    5.5002    0.5889   20.1015 C   0  0  0  0  0  0  0  0  0  0  0  0
    4.8613    1.2728   19.0599 C   0  0  0  0  0  0  0  0  0  0  0  0
    5.4641    1.2948   17.7999 C   0  0  0  0  0  0  0  0  0  0  0  0
    6.6306    0.6833   17.5311 N   0  0  0  0  0  0  0  0  0  0  0  0
    7.2431    0.0382   18.5341 C   0  0  0  0  0  0  0  0  0  0  0  0
    8.1974   -0.4406   18.3063 H   0  0  0  0  0  0  0  0  0  0  0  0
    4.9966    1.8217   16.9736 H   0  0  0  0  0  0  0  0  0  0  0  0
    3.9303    1.8012   19.2244 H   0  0  0  0  0  0  0  0  0  0  0  0
    5.0816    0.5483   21.1091 H   0  0  0  0  0  0  0  0  0  0  0  0
    8.0188   -0.0337   21.4316 H   0  0  0  0  0  0  0  0  0  0  0  0
  1  2  2  0
  2  3  1  0
  3  4  1  0
  4  5  1  0
  5  6  2  0
  5  7  1  0
  7  8  2  0
  8  9  1  0
  9 10  2  0
 10 11  1  0
 11 12  1  0
 12 13  2  0
 13 14  1  0
 14 15  2  0
 15 16  1  0
 16 17  2  0
 17 18  1  0
 16 19  1  0
 15 20  1  0
 14 21  1  0
 13 22  1  0
 11 23  2  0
 10 24  1  0
  9 25  1  0
  8 26  1  0
  3 27  1  0
  3 28  1  0
  2 29  1  0
 29 30  1  0
 30 31  2  0
 31 32  1  0
 32 33  2  0
 33 34  1  0
 34 35  2  0
 35 36  1  0
 33 37  1  0
 32 38  1  0
 31 39  1  0
 29 40  1  0
 23  7  1  0
 35 30  1  0
 17 12  1  0
M  END
>  <cnnaffinity>  (1) 
-5.15551

>  <filename>  (1) 
O=C(COC(=O)c1cccc(-c2ccccc2)n1)Nc1cccnc1

$$$$
