
     RDKit          3D

 32 34  0  0  0  0  0  0  0  0999 V2000
    8.0660   -1.6758   20.5815 O   0  0  0  0  0  0  0  0  0  0  0  0
    7.3924   -0.7000   20.9220 C   0  0  0  0  0  0  0  0  0  0  0  0
    6.6710   -0.0010   19.8706 C   0  0  0  0  0  0  0  0  0  0  0  0
    5.4696    0.6551   20.1377 C   0  0  0  0  0  0  0  0  0  0  0  0
    4.8347    1.2963   19.0858 C   0  0  0  0  0  0  0  0  0  0  0  0
    5.4101    1.2855   17.8161 C   0  0  0  0  0  0  0  0  0  0  0  0
    6.5644    0.6418   17.5573 N   0  0  0  0  0  0  0  0  0  0  0  0
    7.1795    0.0123   18.5682 C   0  0  0  0  0  0  0  0  0  0  0  0
    8.1274   -0.4811   18.3711 H   0  0  0  0  0  0  0  0  0  0  0  0
    4.9094    1.8239   17.0203 H   0  0  0  0  0  0  0  0  0  0  0  0
    3.9049    1.8291   19.2422 H   0  0  0  0  0  0  0  0  0  0  0  0
    5.0324    0.6738   21.1347 H   0  0  0  0  0  0  0  0  0  0  0  0
    7.2871   -0.2689   22.3467 C   0  0  0  0  0  0  0  0  0  0  0  0
    7.1521    0.9897   22.7398 N   0  0  0  0  0  0  0  0  0  0  0  0
    7.0763    0.9764   24.1220 C   0  0  0  0  0  0  0  0  0  0  0  0
    7.1458   -0.3028   24.5742 C   0  0  0  0  0  0  0  0  0  0  0  0
    7.2844   -1.1071   23.4646 N   0  0  0  0  0  0  0  0  0  0  0  0
    7.2197   -2.5764   23.4854 C   0  0  0  0  0  0  0  0  0  0  0  0
    8.0968   -3.1326   24.5633 C   0  0  0  0  0  0  0  0  0  0  0  0
    7.4828   -3.6204   25.6567 N   0  0  0  0  0  0  0  0  0  0  0  0
    8.2323   -4.1820   26.6159 C   0  0  0  0  0  0  0  0  0  0  0  0
    9.6178   -4.2808   26.4965 C   0  0  0  0  0  0  0  0  0  0  0  0
   10.5822   -5.1177   27.8855 Br  0  0  0  0  0  0  0  0  0  0  0  0
   10.2659   -3.7611   25.3776 C   0  0  0  0  0  0  0  0  0  0  0  0
    9.4907   -3.1592   24.3987 C   0  0  0  0  0  0  0  0  0  0  0  0
   10.2564   -2.4821   22.9851 Cl  0  0  0  0  0  0  0  0  0  0  0  0
   11.3457   -3.8177   25.2577 H   0  0  0  0  0  0  0  0  0  0  0  0
    7.7594   -4.5724   27.5177 H   0  0  0  0  0  0  0  0  0  0  0  0
    7.5448   -2.9811   22.5238 H   0  0  0  0  0  0  0  0  0  0  0  0
    6.1899   -2.8955   23.6766 H   0  0  0  0  0  0  0  0  0  0  0  0
    7.1006   -0.6115   25.6100 H   0  0  0  0  0  0  0  0  0  0  0  0
    6.9778    1.8586   24.7490 H   0  0  0  0  0  0  0  0  0  0  0  0
  1  2  2  0
  2  3  1  0
  3  4  2  0
  4  5  1  0
  5  6  2  0
  6  7  1  0
  7  8  2  0
  8  9  1  0
  6 10  1  0
  5 11  1  0
  4 12  1  0
  2 13  1  0
 13 14  2  0
 14 15  1  0
 15 16  2  0
 16 17  1  0
 17 18  1  0
 18 19  1  0
 19 20  2  0
 20 21  1  0
 21 22  2  0
 22 23  1  0
 22 24  1  0
 24 25  2  0
 25 26  1  0
 24 27  1  0
 21 28  1  0
 18 29  1  0
 18 30  1  0
 16 31  1  0
 15 32  1  0
  8  3  1  0
 17 13  1  0
 25 19  1  0
M  END
>  <cnnaffinity>  (1) 
-5.70305

>  <filename>  (1) 
O=C(c1cccnc1)c1nccn1Cc1ncc(Br)cc1Cl

$$$$
