
     RDKit          3D

 37 39  0  0  0  0  0  0  0  0999 V2000
    7.4527   -4.6842   21.2814 O   0  0  0  0  0  0  0  0  0  0  0  0
    7.1642   -4.2251   22.3725 C   0  0  0  0  0  0  0  0  0  0  0  0
    7.8334   -3.1324   22.8820 N   0  0  0  0  0  0  0  0  0  0  0  0
    8.8124   -2.3701   22.1109 C   0  0  0  0  0  0  0  0  0  0  0  0
    8.2533   -1.5174   20.9865 C   0  0  0  0  0  0  0  0  0  0  0  0
    7.2988   -0.5886   21.0805 C   0  0  0  0  0  0  0  0  0  0  0  0
    6.6380    0.0663   19.9300 C   0  0  0  0  0  0  0  0  0  0  0  0
    5.4115    0.7234   20.1368 C   0  0  0  0  0  0  0  0  0  0  0  0
    4.7734    1.3451   19.0646 C   0  0  0  0  0  0  0  0  0  0  0  0
    5.3911    1.3039   17.8105 C   0  0  0  0  0  0  0  0  0  0  0  0
    6.5503    0.6697   17.5746 N   0  0  0  0  0  0  0  0  0  0  0  0
    7.1486    0.0698   18.6127 C   0  0  0  0  0  0  0  0  0  0  0  0
    8.0961   -0.4166   18.3758 H   0  0  0  0  0  0  0  0  0  0  0  0
    4.9426    1.8066   16.9579 H   0  0  0  0  0  0  0  0  0  0  0  0
    3.8327    1.8712   19.1870 H   0  0  0  0  0  0  0  0  0  0  0  0
    4.9659    0.7300   21.1330 H   0  0  0  0  0  0  0  0  0  0  0  0
    6.9162   -0.2739   22.0555 H   0  0  0  0  0  0  0  0  0  0  0  0
    8.6351   -1.7555   19.9968 H   0  0  0  0  0  0  0  0  0  0  0  0
    9.3850   -1.7668   22.8296 H   0  0  0  0  0  0  0  0  0  0  0  0
    9.5238   -3.0705   21.6697 H   0  0  0  0  0  0  0  0  0  0  0  0
    7.4378   -2.6871   23.6918 H   0  0  0  0  0  0  0  0  0  0  0  0
    6.0702   -4.8239   23.3135 C   0  0  0  0  0  0  0  0  0  0  0  0
    4.8586   -5.0086   22.8057 N   0  0  0  0  0  0  0  0  0  0  0  0
    3.8903   -5.5488   23.5900 C   0  0  0  0  0  0  0  0  0  0  0  0
    4.0817   -5.8969   24.9008 C   0  0  0  0  0  0  0  0  0  0  0  0
    5.3573   -5.7053   25.4962 C   0  0  0  0  0  0  0  0  0  0  0  0
    5.6169   -6.0387   26.8598 C   0  0  0  0  0  0  0  0  0  0  0  0
    6.8722   -5.8692   27.3925 C   0  0  0  0  0  0  0  0  0  0  0  0
    7.9238   -5.3596   26.5879 C   0  0  0  0  0  0  0  0  0  0  0  0
    7.7027   -5.0224   25.2731 C   0  0  0  0  0  0  0  0  0  0  0  0
    6.4043   -5.1737   24.6830 C   0  0  0  0  0  0  0  0  0  0  0  0
    8.5244   -4.6495   24.6742 H   0  0  0  0  0  0  0  0  0  0  0  0
    8.9149   -5.2430   27.0194 H   0  0  0  0  0  0  0  0  0  0  0  0
    7.0747   -6.1278   28.4287 H   0  0  0  0  0  0  0  0  0  0  0  0
    4.8099   -6.4403   27.4682 H   0  0  0  0  0  0  0  0  0  0  0  0
    3.2788   -6.3401   25.4775 H   0  0  0  0  0  0  0  0  0  0  0  0
    2.9339   -5.7164   23.1020 H   0  0  0  0  0  0  0  0  0  0  0  0
  1  2  2  0
  2  3  1  0
  3  4  1  0
  4  5  1  0
  5  6  2  3
  6  7  1  0
  7  8  2  0
  8  9  1  0
  9 10  2  0
 10 11  1  0
 11 12  2  0
 12 13  1  0
 10 14  1  0
  9 15  1  0
  8 16  1  0
  6 17  1  0
  5 18  1  0
  4 19  1  0
  4 20  1  0
  3 21  1  0
  2 22  1  0
 22 23  2  0
 23 24  1  0
 24 25  2  0
 25 26  1  0
 26 27  2  0
 27 28  1  0
 28 29  2  0
 29 30  1  0
 30 31  2  0
 30 32  1  0
 29 33  1  0
 28 34  1  0
 27 35  1  0
 25 36  1  0
 24 37  1  0
 12  7  1  0
 31 22  1  0
 31 26  1  0
M  END
>  <cnnaffinity>  (1) 
-5.32466

>  <filename>  (1) 
O=C(NCC=Cc1cccnc1)c1nccc2ccccc12

$$$$
