
     RDKit          3D

 38 40  0  0  0  0  0  0  0  0999 V2000
    5.5883   -1.6810   21.8549 H   0  0  0  0  0  0  0  0  0  0  0  0
    6.6568   -1.5768   21.8801 C   0  0  0  0  0  0  0  0  0  0  0  0
    7.3108   -0.8142   20.9918 C   0  0  0  0  0  0  0  0  0  0  0  0
    6.6658   -0.0117   19.9447 C   0  0  0  0  0  0  0  0  0  0  0  0
    7.2265    0.0411   18.6575 C   0  0  0  0  0  0  0  0  0  0  0  0
    8.1637   -0.4704   18.4521 H   0  0  0  0  0  0  0  0  0  0  0  0
    6.6669    0.6579   17.6138 N   0  0  0  0  0  0  0  0  0  0  0  0
    5.5141    1.3112   17.8241 C   0  0  0  0  0  0  0  0  0  0  0  0
    5.0802    1.8147   16.9599 H   0  0  0  0  0  0  0  0  0  0  0  0
    4.8789    1.3521   19.0699 C   0  0  0  0  0  0  0  0  0  0  0  0
    3.9499    1.8986   19.1743 H   0  0  0  0  0  0  0  0  0  0  0  0
    5.4542    0.6719   20.1449 C   0  0  0  0  0  0  0  0  0  0  0  0
    4.9896    0.6905   21.1316 H   0  0  0  0  0  0  0  0  0  0  0  0
    8.7047   -0.8052   21.0132 N   0  0  0  0  0  0  0  0  0  0  0  0
    9.2099   -0.0741   20.5408 H   0  0  0  0  0  0  0  0  0  0  0  0
    9.4271   -1.2669   22.0707 C   0  0  0  0  0  0  0  0  0  0  0  0
   11.0101   -0.8469   22.2460 S   0  0  0  0  0  0  0  0  0  0  0  0
    8.7945   -2.0782   22.9388 N   0  0  0  0  0  0  0  0  0  0  0  0
    9.2048   -2.0152   23.8526 H   0  0  0  0  0  0  0  0  0  0  0  0
    7.3641   -2.2689   22.9877 C   0  0  1  0  0  0  0  0  0  0  0  0
    7.1502   -3.3467   22.9549 H   0  0  0  0  0  0  0  0  0  0  0  0
    6.9647   -1.8084   24.3243 N   0  0  0  0  0  0  0  0  0  0  0  0
    6.0256   -2.0606   24.5687 H   0  0  0  0  0  0  0  0  0  0  0  0
    7.1870   -0.4673   24.6009 C   0  0  0  0  0  0  0  0  0  0  0  0
    7.9110    0.2480   23.9383 O   0  0  0  0  0  0  0  0  0  0  0  0
    6.5167   -0.0696   25.7270 N   0  0  0  0  0  0  0  0  0  0  0  0
    5.9609   -0.7772   26.1685 H   0  0  0  0  0  0  0  0  0  0  0  0
    6.7357    1.1164   26.4617 C   0  0  0  0  0  0  0  0  0  0  0  0
    5.7310    1.5313   27.3443 C   0  0  0  0  0  0  0  0  0  0  0  0
    4.8432    0.9175   27.4537 H   0  0  0  0  0  0  0  0  0  0  0  0
    5.8552    2.7270   28.0598 C   0  0  0  0  0  0  0  0  0  0  0  0
    5.0595    3.0774   28.7114 H   0  0  0  0  0  0  0  0  0  0  0  0
    7.0131    3.4945   27.9089 C   0  0  0  0  0  0  0  0  0  0  0  0
    7.1646    5.0126   28.7493 Cl  0  0  0  0  0  0  0  0  0  0  0  0
    8.0434    3.0686   27.0668 C   0  0  0  0  0  0  0  0  0  0  0  0
    8.9450    3.6696   26.9880 H   0  0  0  0  0  0  0  0  0  0  0  0
    7.9071    1.8809   26.3400 C   0  0  0  0  0  0  0  0  0  0  0  0
    8.6847    1.5440   25.6651 H   0  0  0  0  0  0  0  0  0  0  0  0
  1  2  1  0
  2  3  2  0
  3  4  1  0
  4  5  2  0
  5  6  1  0
  5  7  1  0
  7  8  2  0
  8  9  1  0
  8 10  1  0
 10 11  1  0
 10 12  2  0
 12 13  1  0
  3 14  1  0
 14 15  1  0
 14 16  1  0
 16 17  2  0
 16 18  1  0
 18 19  1  0
 18 20  1  0
 20 21  1  1
 20 22  1  0
 22 23  1  0
 22 24  1  0
 24 25  2  0
 24 26  1  0
 26 27  1  0
 26 28  1  0
 28 29  2  0
 29 30  1  0
 29 31  1  0
 31 32  1  0
 31 33  2  0
 33 34  1  0
 33 35  1  0
 35 36  1  0
 35 37  2  0
 37 38  1  0
 20  2  1  0
 37 28  1  0
 12  4  1  0
M  END
>  <cnnaffinity>  (1) 
-5.35336

>  <filename>  (1) 
O=C(Nc1ccc(Cl)cc1)N[C@H]1C=C(c2cccnc2)NC(=S)N1

$$$$
