
     RDKit          3D

 41 44  0  0  0  0  0  0  0  0999 V2000
    4.9261    1.7767   17.0010 H   0  0  0  0  0  0  0  0  0  0  0  0
    5.4081    1.2892   17.8463 C   0  0  0  0  0  0  0  0  0  0  0  0
    6.5725    0.6713   17.5959 N   0  0  0  0  0  0  0  0  0  0  0  0
    7.1727    0.0528   18.6138 C   0  0  0  0  0  0  0  0  0  0  0  0
    8.1148   -0.4367   18.3831 H   0  0  0  0  0  0  0  0  0  0  0  0
    6.6490    0.0064   19.9157 C   0  0  0  0  0  0  0  0  0  0  0  0
    7.4133   -0.7573   20.9426 C   0  0  0  0  0  0  0  0  0  0  0  0
    8.2349   -1.5954   20.6274 O   0  0  0  0  0  0  0  0  0  0  0  0
    7.1546   -0.4264   22.3924 C   0  0  0  0  0  0  0  0  0  0  0  0
    6.2016   -0.8402   22.7172 H   0  0  0  0  0  0  0  0  0  0  0  0
    7.3168    1.0445   22.8339 C   0  0  0  0  0  0  0  0  0  0  0  0
    7.7199    1.6893   22.0426 H   0  0  0  0  0  0  0  0  0  0  0  0
    6.4225    1.5294   23.2539 H   0  0  0  0  0  0  0  0  0  0  0  0
    8.3311    0.6324   23.8179 N   0  0  0  0  0  0  0  0  0  0  0  0
    8.0732    0.9152   25.2279 C   0  0  0  0  0  0  0  0  0  0  0  0
    8.1124    2.0029   25.3580 H   0  0  0  0  0  0  0  0  0  0  0  0
    8.9041    0.4915   25.8066 H   0  0  0  0  0  0  0  0  0  0  0  0
    6.7539    0.3918   25.7942 C   0  0  0  0  0  0  0  0  0  0  0  0
    5.5717    1.1987   25.7281 C   0  0  0  0  0  0  0  0  0  0  0  0
    5.6349    2.2058   25.3105 H   0  0  0  0  0  0  0  0  0  0  0  0
    4.3684    0.7315   26.1970 C   0  0  0  0  0  0  0  0  0  0  0  0
    3.4771    1.3554   26.1581 H   0  0  0  0  0  0  0  0  0  0  0  0
    4.2610   -0.5763   26.7575 C   0  0  0  0  0  0  0  0  0  0  0  0
    3.0292   -1.0900   27.2612 C   0  0  0  0  0  0  0  0  0  0  0  0
    2.1448   -0.4538   27.2009 H   0  0  0  0  0  0  0  0  0  0  0  0
    2.9669   -2.3505   27.8118 C   0  0  0  0  0  0  0  0  0  0  0  0
    2.0242   -2.7350   28.1969 H   0  0  0  0  0  0  0  0  0  0  0  0
    4.1392   -3.1652   27.8865 C   0  0  0  0  0  0  0  0  0  0  0  0
    4.0721   -4.1583   28.3281 H   0  0  0  0  0  0  0  0  0  0  0  0
    5.3417   -2.6994   27.4077 C   0  0  0  0  0  0  0  0  0  0  0  0
    6.2472   -3.3083   27.4590 H   0  0  0  0  0  0  0  0  0  0  0  0
    5.4359   -1.3961   26.8324 C   0  0  0  0  0  0  0  0  0  0  0  0
    6.6666   -0.8763   26.3408 C   0  0  0  0  0  0  0  0  0  0  0  0
    7.5532   -1.5081   26.4175 H   0  0  0  0  0  0  0  0  0  0  0  0
    8.2819   -0.7727   23.3735 C   0  0  0  0  0  0  0  0  0  0  0  0
    9.1972   -1.1043   22.8760 H   0  0  0  0  0  0  0  0  0  0  0  0
    8.0228   -1.5029   24.1498 H   0  0  0  0  0  0  0  0  0  0  0  0
    5.4321    0.6601   20.1682 C   0  0  0  0  0  0  0  0  0  0  0  0
    4.9747    0.6477   21.1637 H   0  0  0  0  0  0  0  0  0  0  0  0
    4.8056    1.3114   19.1085 C   0  0  0  0  0  0  0  0  0  0  0  0
    3.8722    1.8431   19.2557 H   0  0  0  0  0  0  0  0  0  0  0  0
  1  2  1  0
  2  3  2  0
  3  4  1  0
  4  5  1  0
  4  6  2  0
  6  7  1  0
  7  8  2  0
  7  9  1  0
  9 10  1  0
  9 11  1  0
 11 12  1  0
 11 13  1  0
 11 14  1  0
 14 15  1  0
 15 16  1  0
 15 17  1  0
 15 18  1  0
 18 19  2  0
 19 20  1  0
 19 21  1  0
 21 22  1  0
 21 23  2  0
 23 24  1  0
 24 25  1  0
 24 26  2  0
 26 27  1  0
 26 28  1  0
 28 29  1  0
 28 30  2  0
 30 31  1  0
 30 32  1  0
 32 33  2  0
 33 34  1  0
 14 35  1  0
 35 36  1  0
 35 37  1  0
  6 38  1  0
 38 39  1  0
 38 40  2  0
 40 41  1  0
 40  2  1  0
 35  9  1  0
 33 18  1  0
 32 23  1  0
M  END
>  <cnnaffinity>  (1) 
-4.87871

>  <filename>  (1) 
O=C(c1cccnc1)C1CN(Cc2ccc3ccccc3c2)C1

$$$$
