
     RDKit          3D

 41 42  0  0  0  0  0  0  0  0999 V2000
    8.0034    0.0906   24.7954 O   0  0  0  0  0  0  0  0  0  0  0  0
    8.2293   -0.7933   23.9855 C   0  0  0  0  0  0  0  0  0  0  0  0
    9.0870   -0.4831   22.7727 C   0  0  0  0  0  0  0  0  0  0  0  0
    8.2860    0.2702   21.6839 C   0  0  0  0  0  0  0  0  0  0  0  0
    7.1455   -0.5555   21.0680 C   0  0  0  0  0  0  0  0  0  0  0  0
    6.5069    0.0919   19.8565 C   0  0  0  0  0  0  0  0  0  0  0  0
    5.3150    0.8306   19.9161 C   0  0  0  0  0  0  0  0  0  0  0  0
    4.8420    1.4520   18.7556 C   0  0  0  0  0  0  0  0  0  0  0  0
    5.5687    1.3132   17.5715 C   0  0  0  0  0  0  0  0  0  0  0  0
    6.6984    0.5967   17.4792 N   0  0  0  0  0  0  0  0  0  0  0  0
    7.1375    0.0066   18.5997 C   0  0  0  0  0  0  0  0  0  0  0  0
    8.0543   -0.5779   18.4959 H   0  0  0  0  0  0  0  0  0  0  0  0
    5.2315    1.7927   16.6549 H   0  0  0  0  0  0  0  0  0  0  0  0
    3.9362    2.0490   18.7593 H   0  0  0  0  0  0  0  0  0  0  0  0
    4.7687    0.9294   20.8572 H   0  0  0  0  0  0  0  0  0  0  0  0
    6.3813   -0.7601   21.8287 H   0  0  0  0  0  0  0  0  0  0  0  0
    7.5506   -1.5285   20.7593 H   0  0  0  0  0  0  0  0  0  0  0  0
    8.9857    0.5560   20.8896 H   0  0  0  0  0  0  0  0  0  0  0  0
    7.8816    1.2033   22.0976 H   0  0  0  0  0  0  0  0  0  0  0  0
    9.8868    0.1707   23.1456 H   0  0  0  0  0  0  0  0  0  0  0  0
    9.5345   -1.3881   22.3597 H   0  0  0  0  0  0  0  0  0  0  0  0
    7.6262   -2.0522   24.1179 N   0  0  0  0  0  0  0  0  0  0  0  0
    6.4831   -2.1215   25.0793 C   0  0  0  0  0  0  0  0  0  0  0  0
    6.9114   -2.3233   26.5360 C   0  0  0  0  0  0  0  0  0  0  0  0
    7.4323   -3.6080   26.8418 O   0  0  0  0  0  0  0  0  0  0  0  0
    6.6946   -4.2171   26.9868 H   0  0  0  0  0  0  0  0  0  0  0  0
    6.0305   -2.0998   27.1578 H   0  0  0  0  0  0  0  0  0  0  0  0
    7.6741   -1.5753   26.7836 H   0  0  0  0  0  0  0  0  0  0  0  0
    5.8239   -2.9403   24.7653 H   0  0  0  0  0  0  0  0  0  0  0  0
    5.9174   -1.1770   25.0209 H   0  0  0  0  0  0  0  0  0  0  0  0
    7.9351   -3.2250   23.3879 C   0  0  0  0  0  0  0  0  0  0  0  0
    7.1172   -3.7038   22.3983 C   0  0  0  0  0  0  0  0  0  0  0  0
    7.3457   -5.0733   21.8970 C   0  0  0  0  0  0  0  0  0  0  0  0
    8.3914   -5.6808   22.6238 C   0  0  0  0  0  0  0  0  0  0  0  0
    9.0864   -4.8045   23.9532 C   0  0  0  0  0  0  0  0  0  0  0  0
    9.0775   -4.7147   23.6076 C   0  0  0  0  0  0  0  0  0  0  0  0
   10.2500   -4.3754   23.9759 H   0  0  0  0  0  0  0  0  0  0  0  0
    8.6569   -5.0368   25.0006 H   0  0  0  0  0  0  0  0  0  0  0  0
    9.0223   -6.4757   22.2111 H   0  0  0  0  0  0  0  0  0  0  0  0
    6.7685   -5.5079   21.0907 H   0  0  0  0  0  0  0  0  0  0  0  0
    6.2915   -3.0810   22.0215 H   0  0  0  0  0  0  0  0  0  0  0  0
  1  2  2  0
  2  3  1  0
  3  4  1  0
  4  5  1  0
  5  6  1  0
  6  7  2  0
  7  8  1  0
  8  9  2  0
  9 10  1  0
 10 11  2  0
 11 12  1  0
  9 13  1  0
  8 14  1  0
  7 15  1  0
  5 16  1  0
  5 17  1  0
  4 18  1  0
  4 19  1  0
  3 20  1  0
  3 21  1  0
  2 22  1  0
 22 23  1  0
 23 24  1  0
 24 25  1  0
 25 26  1  0
 24 27  1  0
 24 28  1  0
 23 29  1  0
 23 30  1  0
 22 31  1  0
 31 32  2  0
 32 33  1  0
 33 34  2  0
 34 35  1  0
 35 36  2  0
 36 37  1  0
 35 38  1  0
 34 39  1  0
 33 40  1  0
 32 41  1  0
 11  6  1  0
 36 31  1  0
M  END
>  <cnnaffinity>  (1) 
-5.22694

>  <filename>  (1) 
O=C(CCCc1cccnc1)N(CCO)c1ccccc1

$$$$
