
     RDKit          3D

 33 35  0  0  0  0  0  0  0  0999 V2000
    4.9477    1.7954   16.9817 H   0  0  0  0  0  0  0  0  0  0  0  0
    5.4045    1.2801   17.8236 C   0  0  0  0  0  0  0  0  0  0  0  0
    6.5499    0.6277   17.5665 N   0  0  0  0  0  0  0  0  0  0  0  0
    7.1564    0.0040   18.5830 C   0  0  0  0  0  0  0  0  0  0  0  0
    8.0936   -0.5031   18.3584 H   0  0  0  0  0  0  0  0  0  0  0  0
    6.6412   -0.0125   19.8954 C   0  0  0  0  0  0  0  0  0  0  0  0
    7.3292   -0.6638   20.9681 N   0  0  0  0  0  0  0  0  0  0  0  0
    6.7697   -1.6073   21.8108 C   0  0  0  0  0  0  0  0  0  0  0  0
    5.7265   -1.8810   21.7168 H   0  0  0  0  0  0  0  0  0  0  0  0
    7.7149   -2.0378   22.6818 C   0  0  0  0  0  0  0  0  0  0  0  0
    7.4787   -3.0502   23.7755 C   0  0  0  0  0  0  0  0  0  0  0  0
    6.3511   -3.4631   24.0080 O   0  0  0  0  0  0  0  0  0  0  0  0
    8.5726   -3.4813   24.4530 N   0  0  0  0  0  0  0  0  0  0  0  0
    9.4612   -3.1105   24.1718 H   0  0  0  0  0  0  0  0  0  0  0  0
    8.5023   -4.4200   25.5612 C   0  0  0  0  0  0  0  0  0  0  0  0
    7.8353   -5.2483   25.2895 H   0  0  0  0  0  0  0  0  0  0  0  0
    9.5039   -4.8426   25.7155 H   0  0  0  0  0  0  0  0  0  0  0  0
    8.0004   -3.7954   26.8511 C   0  0  0  0  0  0  0  0  0  0  0  0
    8.5396   -2.8934   27.1356 H   0  0  0  0  0  0  0  0  0  0  0  0
    6.5371   -3.7760   27.2092 C   0  0  0  0  0  0  0  0  0  0  0  0
    5.8168   -4.1445   26.4822 H   0  0  0  0  0  0  0  0  0  0  0  0
    6.2125   -2.9137   27.7877 H   0  0  0  0  0  0  0  0  0  0  0  0
    7.4630   -4.7243   27.9080 C   0  0  0  0  0  0  0  0  0  0  0  0
    7.3992   -5.7786   27.6490 H   0  0  0  0  0  0  0  0  0  0  0  0
    7.6716   -4.5667   28.9592 H   0  0  0  0  0  0  0  0  0  0  0  0
    8.8726   -1.3054   22.3393 N   0  0  0  0  0  0  0  0  0  0  0  0
    9.7992   -1.2157   22.7359 H   0  0  0  0  0  0  0  0  0  0  0  0
    8.6375   -0.4251   21.3354 C   0  0  0  0  0  0  0  0  0  0  0  0
    9.7351    0.6879   20.7783 S   0  0  0  0  0  0  0  0  0  0  0  0
    5.4379    0.6487   20.1472 C   0  0  0  0  0  0  0  0  0  0  0  0
    5.0307    0.6457   21.1593 H   0  0  0  0  0  0  0  0  0  0  0  0
    4.8107    1.3154   19.0903 C   0  0  0  0  0  0  0  0  0  0  0  0
    3.8865    1.8634   19.2398 H   0  0  0  0  0  0  0  0  0  0  0  0
  1  2  1  0
  2  3  2  0
  3  4  1  0
  4  5  1  0
  4  6  2  0
  6  7  1  0
  7  8  1  0
  8  9  1  0
  8 10  2  0
 10 11  1  0
 11 12  2  0
 11 13  1  0
 13 14  1  0
 13 15  1  0
 15 16  1  0
 15 17  1  0
 15 18  1  0
 18 19  1  0
 18 20  1  0
 20 21  1  0
 20 22  1  0
 20 23  1  0
 23 24  1  0
 23 25  1  0
 10 26  1  0
 26 27  1  0
 26 28  1  0
 28 29  2  0
  6 30  1  0
 30 31  1  0
 30 32  2  0
 32 33  1  0
 32  2  1  0
 28  7  1  0
 23 18  1  0
M  END
>  <cnnaffinity>  (1) 
-5.04023

>  <filename>  (1) 
O=C(NCC1CC1)c1cn(-c2cccnc2)c(=S)[nH]1

$$$$
