
     RDKit          3D

 23 24  0  0  0  0  0  0  0  0999 V2000
    4.9161    1.8020   16.9808 H   0  0  0  0  0  0  0  0  0  0  0  0
    5.3938    1.3064   17.8231 C   0  0  0  0  0  0  0  0  0  0  0  0
    6.5572    0.6921   17.5587 N   0  0  0  0  0  0  0  0  0  0  0  0
    7.1648    0.0728   18.5734 C   0  0  0  0  0  0  0  0  0  0  0  0
    8.1179   -0.4018   18.3408 H   0  0  0  0  0  0  0  0  0  0  0  0
    6.6550    0.0164   19.8818 C   0  0  0  0  0  0  0  0  0  0  0  0
    7.3544   -0.6927   20.9527 C   0  0  0  0  0  0  0  0  0  0  0  0
    7.5758   -0.3424   22.2759 C   0  0  0  0  0  0  0  0  0  0  0  0
    7.3365    0.9268   22.9711 C   0  0  0  0  0  0  0  0  0  0  0  0
    7.0000    0.9315   24.1354 O   0  0  0  0  0  0  0  0  0  0  0  0
    7.5597    2.3082   22.2132 C   0  0  0  0  0  0  0  0  0  0  0  0
    8.2304    3.1670   22.9905 F   0  0  0  0  0  0  0  0  0  0  0  0
    8.2621    2.1525   21.0698 F   0  0  0  0  0  0  0  0  0  0  0  0
    6.3936    2.8881   21.8907 F   0  0  0  0  0  0  0  0  0  0  0  0
    8.1611   -1.4824   22.8708 C   0  0  0  0  0  0  0  0  0  0  0  0
    8.4888   -1.6060   23.8969 H   0  0  0  0  0  0  0  0  0  0  0  0
    8.3200   -2.4522   21.9890 N   0  0  0  0  0  0  0  0  0  0  0  0
    7.8370   -1.9518   20.8381 N   0  0  0  0  0  0  0  0  0  0  0  0
    7.7784   -2.5334   20.0165 H   0  0  0  0  0  0  0  0  0  0  0  0
    5.4368    0.6560   20.1414 C   0  0  0  0  0  0  0  0  0  0  0  0
    5.0061    0.6355   21.1457 H   0  0  0  0  0  0  0  0  0  0  0  0
    4.8021    1.3162   19.0897 C   0  0  0  0  0  0  0  0  0  0  0  0
    3.8719    1.8477   19.2435 H   0  0  0  0  0  0  0  0  0  0  0  0
  1  2  1  0
  2  3  2  0
  3  4  1  0
  4  5  1  0
  4  6  2  0
  6  7  1  0
  7  8  2  0
  8  9  1  0
  9 10  2  0
  9 11  1  0
 11 12  1  0
 11 13  1  0
 11 14  1  0
  8 15  1  0
 15 16  1  0
 15 17  2  0
 17 18  1  0
 18 19  1  0
  6 20  1  0
 20 21  1  0
 20 22  2  0
 22 23  1  0
 22  2  1  0
 18  7  1  0
M  END
>  <cnnaffinity>  (1) 
-4.83358

>  <filename>  (1) 
O=C(c1cn[nH]c1-c1cccnc1)C(F)(F)F

$$$$
