
     RDKit          3D

 32 33  0  0  0  0  0  0  0  0999 V2000
    4.5854   -3.0036   25.9216 H   0  0  0  0  0  0  0  0  0  0  0  0
    5.0991   -2.4568   25.2989 O   0  0  0  0  0  0  0  0  0  0  0  0
    6.1766   -3.2301   24.8643 N   0  0  0  0  0  0  0  0  0  0  0  0
    6.2849   -3.1497   23.8610 H   0  0  0  0  0  0  0  0  0  0  0  0
    7.3980   -3.2221   25.5299 C   0  0  0  0  0  0  0  0  0  0  0  0
    7.5747   -2.8201   26.6581 O   0  0  0  0  0  0  0  0  0  0  0  0
    8.4942   -3.8600   24.7020 C   0  0  0  0  0  0  0  0  0  0  0  0
    9.0505   -4.4742   25.4120 H   0  0  0  0  0  0  0  0  0  0  0  0
    8.0876   -4.5075   23.9209 H   0  0  0  0  0  0  0  0  0  0  0  0
    9.4319   -2.8169   24.0654 C   0  0  0  0  0  0  0  0  0  0  0  0
    9.8393   -2.1690   24.8537 H   0  0  0  0  0  0  0  0  0  0  0  0
   10.2875   -3.3442   23.6235 H   0  0  0  0  0  0  0  0  0  0  0  0
    8.7098   -2.0165   23.0303 C   0  0  0  0  0  0  0  0  0  0  0  0
    8.1729   -0.7639   23.2664 C   0  0  0  0  0  0  0  0  0  0  0  0
    8.2763   -0.3307   24.2605 H   0  0  0  0  0  0  0  0  0  0  0  0
    7.4867   -0.0456   22.2583 C   0  0  0  0  0  0  0  0  0  0  0  0
    7.0483    0.9224   22.4711 H   0  0  0  0  0  0  0  0  0  0  0  0
    7.3789   -0.5861   20.9974 C   0  0  0  0  0  0  0  0  0  0  0  0
    6.6418    0.0375   19.8953 C   0  0  0  0  0  0  0  0  0  0  0  0
    7.1548    0.0563   18.5860 C   0  0  0  0  0  0  0  0  0  0  0  0
    8.1076   -0.4189   18.3599 H   0  0  0  0  0  0  0  0  0  0  0  0
    6.5525    0.6647   17.5601 N   0  0  0  0  0  0  0  0  0  0  0  0
    5.3922    1.2938   17.8064 C   0  0  0  0  0  0  0  0  0  0  0  0
    4.9388    1.8088   16.9628 H   0  0  0  0  0  0  0  0  0  0  0  0
    4.7761    1.3165   19.0634 C   0  0  0  0  0  0  0  0  0  0  0  0
    3.8463    1.8608   19.2040 H   0  0  0  0  0  0  0  0  0  0  0  0
    5.4141    0.6811   20.1272 C   0  0  0  0  0  0  0  0  0  0  0  0
    4.9661    0.6658   21.1243 H   0  0  0  0  0  0  0  0  0  0  0  0
    7.9924   -1.7902   20.7424 N   0  0  0  0  0  0  0  0  0  0  0  0
    7.7657   -2.3300   19.9191 H   0  0  0  0  0  0  0  0  0  0  0  0
    8.4564   -2.6451   21.7293 C   0  0  0  0  0  0  0  0  0  0  0  0
    8.5928   -3.8244   21.4340 O   0  0  0  0  0  0  0  0  0  0  0  0
  1  2  1  0
  2  3  1  0
  3  4  1  0
  3  5  1  0
  5  6  2  0
  5  7  1  0
  7  8  1  0
  7  9  1  0
  7 10  1  0
 10 11  1  0
 10 12  1  0
 10 13  1  0
 13 14  2  0
 14 15  1  0
 14 16  1  0
 16 17  1  0
 16 18  2  0
 18 19  1  0
 19 20  2  0
 20 21  1  0
 20 22  1  0
 22 23  2  0
 23 24  1  0
 23 25  1  0
 25 26  1  0
 25 27  2  0
 27 28  1  0
 18 29  1  0
 29 30  1  0
 29 31  1  0
 31 32  2  0
 31 13  1  0
 27 19  1  0
M  END
>  <cnnaffinity>  (1) 
-5.18232

>  <filename>  (1) 
O=C(CCc1ccc(-c2cccnc2)[nH]c1=O)NO

$$$$
