
     RDKit          3D

 33 35  0  0  0  0  0  0  0  0999 V2000
    4.9555    1.8570   16.7581 H   0  0  0  0  0  0  0  0  0  0  0  0
    5.3817    1.3620   17.6289 C   0  0  0  0  0  0  0  0  0  0  0  0
    6.5181    0.6753   17.4208 N   0  0  0  0  0  0  0  0  0  0  0  0
    7.0960    0.0816   18.4728 C   0  0  0  0  0  0  0  0  0  0  0  0
    8.0251   -0.4589   18.2922 H   0  0  0  0  0  0  0  0  0  0  0  0
    6.5629    0.1356   19.7761 C   0  0  0  0  0  0  0  0  0  0  0  0
    7.2268   -0.4701   20.8891 N   0  0  0  0  0  0  0  0  0  0  0  0
    6.6641   -1.4476   21.6959 C   0  0  0  0  0  0  0  0  0  0  0  0
    5.6795   -1.8268   21.4566 H   0  0  0  0  0  0  0  0  0  0  0  0
    7.5662   -1.7717   22.6593 C   0  0  0  0  0  0  0  0  0  0  0  0
    7.5694   -2.8089   23.7502 C   0  0  0  0  0  0  0  0  0  0  0  0
    8.6053   -3.1036   24.3172 O   0  0  0  0  0  0  0  0  0  0  0  0
    6.3482   -3.3636   24.0345 N   0  0  0  0  0  0  0  0  0  0  0  0
    5.5680   -2.8375   23.6800 H   0  0  0  0  0  0  0  0  0  0  0  0
    6.0806   -4.3634   25.0016 C   0  0  0  0  0  0  0  0  0  0  0  0
    4.7744   -4.5373   25.4858 C   0  0  0  0  0  0  0  0  0  0  0  0
    3.9426   -3.9574   25.0834 H   0  0  0  0  0  0  0  0  0  0  0  0
    4.5315   -5.4845   26.4905 C   0  0  0  0  0  0  0  0  0  0  0  0
    3.5349   -5.5623   26.9203 H   0  0  0  0  0  0  0  0  0  0  0  0
    5.5587   -6.3164   26.9489 C   0  0  0  0  0  0  0  0  0  0  0  0
    5.3432   -7.0791   27.6916 H   0  0  0  0  0  0  0  0  0  0  0  0
    6.8529   -6.1544   26.4497 C   0  0  0  0  0  0  0  0  0  0  0  0
    7.6689   -6.7697   26.8223 H   0  0  0  0  0  0  0  0  0  0  0  0
    7.1156   -5.1937   25.4689 C   0  0  0  0  0  0  0  0  0  0  0  0
    8.1116   -5.0586   25.0760 H   0  0  0  0  0  0  0  0  0  0  0  0
    8.6731   -0.9509   22.4089 N   0  0  0  0  0  0  0  0  0  0  0  0
    9.5779   -0.9233   22.8589 H   0  0  0  0  0  0  0  0  0  0  0  0
    8.4904   -0.1414   21.3452 C   0  0  0  0  0  0  0  0  0  0  0  0
    9.5949    0.9516   20.7615 S   0  0  0  0  0  0  0  0  0  0  0  0
    5.3620    0.8220   19.9755 C   0  0  0  0  0  0  0  0  0  0  0  0
    4.9296    0.8730   20.9755 H   0  0  0  0  0  0  0  0  0  0  0  0
    4.7646    1.4556   18.8816 C   0  0  0  0  0  0  0  0  0  0  0  0
    3.8509    2.0322   18.9905 H   0  0  0  0  0  0  0  0  0  0  0  0
  1  2  1  0
  2  3  2  0
  3  4  1  0
  4  5  1  0
  4  6  2  0
  6  7  1  0
  7  8  1  0
  8  9  1  0
  8 10  2  0
 10 11  1  0
 11 12  2  0
 11 13  1  0
 13 14  1  0
 13 15  1  0
 15 16  2  0
 16 17  1  0
 16 18  1  0
 18 19  1  0
 18 20  2  0
 20 21  1  0
 20 22  1  0
 22 23  1  0
 22 24  2  0
 24 25  1  0
 10 26  1  0
 26 27  1  0
 26 28  1  0
 28 29  2  0
  6 30  1  0
 30 31  1  0
 30 32  2  0
 32 33  1  0
 32  2  1  0
 28  7  1  0
 24 15  1  0
M  END
>  <cnnaffinity>  (1) 
-5.1187

>  <filename>  (1) 
O=C(Nc1ccccc1)c1cn(-c2cccnc2)c(=S)[nH]1

$$$$
