
     RDKit          3D

 36 39  0  0  0  0  0  0  0  0999 V2000
    8.0760    2.1437   21.2870 O   0  0  0  0  0  0  0  0  0  0  0  0
    7.3394    2.0894   22.2523 C   0  0  0  0  0  0  0  0  0  0  0  0
    7.0717    0.8537   22.8226 N   0  0  0  0  0  0  0  0  0  0  0  0
    7.4999   -0.3270   22.2469 C   0  0  0  0  0  0  0  0  0  0  0  0
    8.0923   -1.3082   22.8678 N   0  0  0  0  0  0  0  0  0  0  0  0
    8.3562   -2.2348   21.9140 N   0  0  0  0  0  0  0  0  0  0  0  0
    7.9249   -1.8687   20.7698 N   0  0  0  0  0  0  0  0  0  0  0  0
    7.3524   -0.6527   20.9383 N   0  0  0  0  0  0  0  0  0  0  0  0
    6.6514    0.0118   19.8903 C   0  0  0  0  0  0  0  0  0  0  0  0
    5.4320    0.6375   20.1596 C   0  0  0  0  0  0  0  0  0  0  0  0
    4.8068    1.3046   19.1060 C   0  0  0  0  0  0  0  0  0  0  0  0
    5.4053    1.2935   17.8423 C   0  0  0  0  0  0  0  0  0  0  0  0
    6.5718    0.6773   17.5827 N   0  0  0  0  0  0  0  0  0  0  0  0
    7.1830    0.0544   18.5933 C   0  0  0  0  0  0  0  0  0  0  0  0
    8.1300   -0.4374   18.3797 H   0  0  0  0  0  0  0  0  0  0  0  0
    4.9182    1.7809   16.9999 H   0  0  0  0  0  0  0  0  0  0  0  0
    3.8781    1.8405   19.2623 H   0  0  0  0  0  0  0  0  0  0  0  0
    4.9977    0.6208   21.1610 H   0  0  0  0  0  0  0  0  0  0  0  0
    6.7340    0.7691   23.7609 H   0  0  0  0  0  0  0  0  0  0  0  0
    6.6016    3.2987   22.7923 C   0  0  0  0  0  0  0  0  0  0  0  0
    6.2499    3.4429   24.1734 C   0  0  0  0  0  0  0  0  0  0  0  0
    5.6107    4.5724   24.6237 C   0  0  0  0  0  0  0  0  0  0  0  0
    5.2758    5.6423   23.7379 C   0  0  0  0  0  0  0  0  0  0  0  0
    4.6019    6.8203   24.1828 C   0  0  0  0  0  0  0  0  0  0  0  0
    4.2991    7.8318   23.3014 C   0  0  0  0  0  0  0  0  0  0  0  0
    4.6592    7.7180   21.9229 C   0  0  0  0  0  0  0  0  0  0  0  0
    5.3117    6.5980   21.4643 C   0  0  0  0  0  0  0  0  0  0  0  0
    5.6326    5.5234   22.3558 C   0  0  0  0  0  0  0  0  0  0  0  0
    6.2896    4.3373   21.9219 C   0  0  0  0  0  0  0  0  0  0  0  0
    6.5275    4.2861   20.8669 H   0  0  0  0  0  0  0  0  0  0  0  0
    5.5924    6.5183   20.4138 H   0  0  0  0  0  0  0  0  0  0  0  0
    4.4103    8.5283   21.2386 H   0  0  0  0  0  0  0  0  0  0  0  0
    3.7852    8.7269   23.6461 H   0  0  0  0  0  0  0  0  0  0  0  0
    4.3361    6.8916   25.2361 H   0  0  0  0  0  0  0  0  0  0  0  0
    5.3398    4.6705   25.6724 H   0  0  0  0  0  0  0  0  0  0  0  0
    6.5167    2.6658   24.8879 H   0  0  0  0  0  0  0  0  0  0  0  0
  1  2  2  0
  2  3  1  0
  3  4  1  0
  4  5  2  0
  5  6  1  0
  6  7  2  0
  7  8  1  0
  8  9  1  0
  9 10  2  0
 10 11  1  0
 11 12  2  0
 12 13  1  0
 13 14  2  0
 14 15  1  0
 12 16  1  0
 11 17  1  0
 10 18  1  0
  3 19  1  0
  2 20  1  0
 20 21  2  0
 21 22  1  0
 22 23  2  0
 23 24  1  0
 24 25  2  0
 25 26  1  0
 26 27  2  0
 27 28  1  0
 28 29  2  0
 29 30  1  0
 27 31  1  0
 26 32  1  0
 25 33  1  0
 24 34  1  0
 22 35  1  0
 21 36  1  0
  8  4  1  0
 14  9  1  0
 29 20  1  0
 28 23  1  0
M  END
>  <cnnaffinity>  (1) 
-5.20485

>  <filename>  (1) 
O=C(Nc1nnnn1-c1cccnc1)c1ccc2ccccc2c1

$$$$
