
     RDKit          3D

 31 33  0  0  0  0  0  0  0  0999 V2000
    8.8735    0.4857   21.0941 H   0  0  0  0  0  0  0  0  0  0  0  0
    8.6639   -0.4578   20.9767 O   0  0  0  0  0  0  0  0  0  0  0  0
    7.2457   -0.4813   21.0147 N   0  0  0  0  0  0  0  0  0  0  0  0
    6.6342   -1.6789   21.5472 C   0  0  0  0  0  0  0  0  0  0  0  0
    5.6160   -2.1449   21.0809 O   0  0  0  0  0  0  0  0  0  0  0  0
    7.2669   -2.1865   22.6522 N   0  0  0  0  0  0  0  0  0  0  0  0
    8.1377   -1.7622   22.9154 H   0  0  0  0  0  0  0  0  0  0  0  0
    6.7862   -3.2193   23.4665 C   0  0  0  0  0  0  0  0  0  0  0  0
    5.9522   -4.2107   23.0767 C   0  0  0  0  0  0  0  0  0  0  0  0
    5.4469   -4.2378   22.1252 H   0  0  0  0  0  0  0  0  0  0  0  0
    5.7353   -5.4383   24.2835 S   0  0  0  0  0  0  0  0  0  0  0  0
    6.7702   -4.5814   25.3976 C   0  0  0  0  0  0  0  0  0  0  0  0
    7.1377   -4.9646   26.7011 C   0  0  0  0  0  0  0  0  0  0  0  0
    6.8337   -5.9223   27.1149 H   0  0  0  0  0  0  0  0  0  0  0  0
    7.8879   -4.0735   27.4556 C   0  0  0  0  0  0  0  0  0  0  0  0
    8.1861   -4.3584   28.4568 H   0  0  0  0  0  0  0  0  0  0  0  0
    8.2793   -2.8203   26.9453 C   0  0  0  0  0  0  0  0  0  0  0  0
    8.8286   -2.1206   27.5659 H   0  0  0  0  0  0  0  0  0  0  0  0
    7.9575   -2.4665   25.6414 C   0  0  0  0  0  0  0  0  0  0  0  0
    8.2677   -1.4998   25.2524 H   0  0  0  0  0  0  0  0  0  0  0  0
    7.2347   -3.3687   24.8366 C   0  0  0  0  0  0  0  0  0  0  0  0
    6.6621    0.1543   19.8716 C   0  0  0  0  0  0  0  0  0  0  0  0
    7.3073    0.2145   18.6193 C   0  0  0  0  0  0  0  0  0  0  0  0
    8.2933   -0.2289   18.4941 H   0  0  0  0  0  0  0  0  0  0  0  0
    6.7630    0.7866   17.5392 N   0  0  0  0  0  0  0  0  0  0  0  0
    5.5477    1.3439   17.6753 C   0  0  0  0  0  0  0  0  0  0  0  0
    5.1343    1.8116   16.7840 H   0  0  0  0  0  0  0  0  0  0  0  0
    4.8335    1.3486   18.8783 C   0  0  0  0  0  0  0  0  0  0  0  0
    3.8622    1.8290   18.9213 H   0  0  0  0  0  0  0  0  0  0  0  0
    5.3913    0.7339   20.0023 C   0  0  0  0  0  0  0  0  0  0  0  0
    4.8799    0.7104   20.9646 H   0  0  0  0  0  0  0  0  0  0  0  0
  1  2  1  0
  2  3  1  0
  3  4  1  0
  4  5  2  0
  4  6  1  0
  6  7  1  0
  6  8  1  0
  8  9  2  0
  9 10  1  0
  9 11  1  0
 11 12  1  0
 12 13  2  0
 13 14  1  0
 13 15  1  0
 15 16  1  0
 15 17  2  0
 17 18  1  0
 17 19  1  0
 19 20  1  0
 19 21  2  0
  3 22  1  0
 22 23  2  0
 23 24  1  0
 23 25  1  0
 25 26  2  0
 26 27  1  0
 26 28  1  0
 28 29  1  0
 28 30  2  0
 30 31  1  0
 21  8  1  0
 30 22  1  0
 21 12  1  0
M  END
>  <cnnaffinity>  (1) 
-5.1673

>  <filename>  (1) 
O=C(Nc1csc2ccccc12)N(O)c1cccnc1

$$$$
