
     RDKit          3D

 40 41  0  0  0  0  0  0  0  0999 V2000
    6.1906   -2.9768   23.9725 O   0  0  0  0  0  0  0  0  0  0  0  0
    7.2238   -2.5533   23.4827 C   0  0  0  0  0  0  0  0  0  0  0  0
    7.6221   -3.0084   22.0835 C   0  0  0  0  0  0  0  0  0  0  0  0
    6.8894   -2.1898   21.0123 C   0  0  0  0  0  0  0  0  0  0  0  0
    7.3702   -0.7379   20.9862 C   0  0  0  0  0  0  0  0  0  0  0  0
    6.6550    0.0077   19.8923 C   0  0  0  0  0  0  0  0  0  0  0  0
    5.4441    0.6489   20.1597 C   0  0  0  0  0  0  0  0  0  0  0  0
    4.8177    1.3089   19.1034 C   0  0  0  0  0  0  0  0  0  0  0  0
    5.4021    1.2955   17.8287 C   0  0  0  0  0  0  0  0  0  0  0  0
    6.5699    0.6790   17.5711 N   0  0  0  0  0  0  0  0  0  0  0  0
    7.1826    0.0561   18.5909 C   0  0  0  0  0  0  0  0  0  0  0  0
    8.1275   -0.4402   18.3975 H   0  0  0  0  0  0  0  0  0  0  0  0
    4.8883    1.7933   17.0128 H   0  0  0  0  0  0  0  0  0  0  0  0
    3.8818    1.8338   19.2615 H   0  0  0  0  0  0  0  0  0  0  0  0
    5.0085    0.6316   21.1614 H   0  0  0  0  0  0  0  0  0  0  0  0
    8.4519   -0.7042   20.8133 H   0  0  0  0  0  0  0  0  0  0  0  0
    7.1700   -0.2624   21.9541 H   0  0  0  0  0  0  0  0  0  0  0  0
    7.0556   -2.6348   20.0362 H   0  0  0  0  0  0  0  0  0  0  0  0
    5.8085   -2.2257   21.1777 H   0  0  0  0  0  0  0  0  0  0  0  0
    8.7036   -2.9194   21.9591 H   0  0  0  0  0  0  0  0  0  0  0  0
    7.3614   -4.0636   21.9707 H   0  0  0  0  0  0  0  0  0  0  0  0
    7.9929   -1.6441   24.1801 N   0  0  0  0  0  0  0  0  0  0  0  0
    7.5626   -1.0011   25.4200 C   0  0  0  0  0  0  0  0  0  0  0  0
    6.4662    0.0259   25.1347 C   0  0  0  0  0  0  0  0  0  0  0  0
    6.0435    0.7146   26.4163 C   0  0  0  0  0  0  0  0  0  0  0  0
    4.9758    0.1798   27.1569 C   0  0  0  0  0  0  0  0  0  0  0  0
    4.5688    0.7798   28.3551 C   0  0  0  0  0  0  0  0  0  0  0  0
    5.2218    1.9203   28.8284 C   0  0  0  0  0  0  0  0  0  0  0  0
    6.2864    2.4566   28.0969 C   0  0  0  0  0  0  0  0  0  0  0  0
    6.7058    1.8659   26.8967 C   0  0  0  0  0  0  0  0  0  0  0  0
    8.4480    2.7966   25.8158 I   0  0  0  0  0  0  0  0  0  0  0  0
    6.8042    3.3381   28.4620 H   0  0  0  0  0  0  0  0  0  0  0  0
    4.9125    2.3897   29.7609 H   0  0  0  0  0  0  0  0  0  0  0  0
    3.7488    0.3562   28.9229 H   0  0  0  0  0  0  0  0  0  0  0  0
    4.4666   -0.7125   26.7991 H   0  0  0  0  0  0  0  0  0  0  0  0
    6.8315    0.7630   24.4130 H   0  0  0  0  0  0  0  0  0  0  0  0
    5.6084   -0.4784   24.6776 H   0  0  0  0  0  0  0  0  0  0  0  0
    8.4161   -0.5063   25.8964 H   0  0  0  0  0  0  0  0  0  0  0  0
    7.1944   -1.7599   26.1176 H   0  0  0  0  0  0  0  0  0  0  0  0
    8.8758   -1.3735   23.7677 H   0  0  0  0  0  0  0  0  0  0  0  0
  1  2  2  0
  2  3  1  0
  3  4  1  0
  4  5  1  0
  5  6  1  0
  6  7  2  0
  7  8  1  0
  8  9  2  0
  9 10  1  0
 10 11  2  0
 11 12  1  0
  9 13  1  0
  8 14  1  0
  7 15  1  0
  5 16  1  0
  5 17  1  0
  4 18  1  0
  4 19  1  0
  3 20  1  0
  3 21  1  0
  2 22  1  0
 22 23  1  0
 23 24  1  0
 24 25  1  0
 25 26  2  0
 26 27  1  0
 27 28  2  0
 28 29  1  0
 29 30  2  0
 30 31  1  0
 29 32  1  0
 28 33  1  0
 27 34  1  0
 26 35  1  0
 24 36  1  0
 24 37  1  0
 23 38  1  0
 23 39  1  0
 22 40  1  0
 11  6  1  0
 30 25  1  0
M  END
>  <cnnaffinity>  (1) 
-5.14568

>  <filename>  (1) 
O=C(CCCc1cccnc1)NCCc1ccccc1I

$$$$
