
     RDKit          3D

 31 32  0  0  0  0  0  0  0  0999 V2000
   10.4163   -2.0941   21.6677 O   0  0  0  0  0  0  0  0  0  0  0  0
   10.2696   -1.2249   22.4932 C   0  0  0  0  0  0  0  0  0  0  0  0
    9.1603   -1.0888   23.2580 O   0  0  0  0  0  0  0  0  0  0  0  0
    7.9330   -1.7415   22.9007 C   0  0  0  0  0  0  0  0  0  0  0  0
    6.9966   -0.8276   22.1222 C   0  0  0  0  0  0  0  0  0  0  0  0
    7.4223   -0.7292   20.7701 O   0  0  0  0  0  0  0  0  0  0  0  0
    6.6774   -0.0375   19.8602 C   0  0  0  0  0  0  0  0  0  0  0  0
    5.4662    0.6272   20.1019 C   0  0  0  0  0  0  0  0  0  0  0  0
    4.8598    1.3169   19.0382 C   0  0  0  0  0  0  0  0  0  0  0  0
    5.4641    1.3086   17.7813 C   0  0  0  0  0  0  0  0  0  0  0  0
    6.6120    0.6504   17.5319 N   0  0  0  0  0  0  0  0  0  0  0  0
    7.1978    0.0027   18.5443 C   0  0  0  0  0  0  0  0  0  0  0  0
    8.1295   -0.5219   18.3305 H   0  0  0  0  0  0  0  0  0  0  0  0
    5.0191    1.8432   16.9419 H   0  0  0  0  0  0  0  0  0  0  0  0
    3.9378    1.8719   19.1824 H   0  0  0  0  0  0  0  0  0  0  0  0
    5.0126    0.6182   21.0918 H   0  0  0  0  0  0  0  0  0  0  0  0
    6.9887    0.1623   22.5984 H   0  0  0  0  0  0  0  0  0  0  0  0
    5.9885   -1.2564   22.1597 H   0  0  0  0  0  0  0  0  0  0  0  0
    7.4672   -1.9578   23.8651 H   0  0  0  0  0  0  0  0  0  0  0  0
    8.1206   -2.6744   22.3636 H   0  0  0  0  0  0  0  0  0  0  0  0
   11.2662   -0.1370   22.8057 C   0  0  0  0  0  0  0  0  0  0  0  0
   10.8683    1.0785   23.4127 C   0  0  0  0  0  0  0  0  0  0  0  0
   11.7166    2.1833   23.4496 C   0  0  0  0  0  0  0  0  0  0  0  0
   13.0125    2.0675   22.9428 C   0  0  0  0  0  0  0  0  0  0  0  0
   13.9889    3.5000   22.8512 Cl  0  0  0  0  0  0  0  0  0  0  0  0
   13.4873    0.8413   22.4851 C   0  0  0  0  0  0  0  0  0  0  0  0
   12.6144   -0.2544   22.4200 C   0  0  0  0  0  0  0  0  0  0  0  0
   13.2968   -1.7525   21.8845 Cl  0  0  0  0  0  0  0  0  0  0  0  0
   14.5118    0.7165   22.1608 H   0  0  0  0  0  0  0  0  0  0  0  0
   11.3899    3.1245   23.8728 H   0  0  0  0  0  0  0  0  0  0  0  0
    9.8751    1.1646   23.8450 H   0  0  0  0  0  0  0  0  0  0  0  0
  1  2  2  0
  2  3  1  0
  3  4  1  0
  4  5  1  0
  5  6  1  0
  6  7  1  0
  7  8  2  0
  8  9  1  0
  9 10  2  0
 10 11  1  0
 11 12  2  0
 12 13  1  0
 10 14  1  0
  9 15  1  0
  8 16  1  0
  5 17  1  0
  5 18  1  0
  4 19  1  0
  4 20  1  0
  2 21  1  0
 21 22  2  0
 22 23  1  0
 23 24  2  0
 24 25  1  0
 24 26  1  0
 26 27  2  0
 27 28  1  0
 26 29  1  0
 23 30  1  0
 22 31  1  0
 12  7  1  0
 27 21  1  0
M  END
>  <cnnaffinity>  (1) 
-5.2564

>  <filename>  (1) 
O=C(OCCOc1cccnc1)c1ccc(Cl)cc1Cl

$$$$
