
     RDKit          3D

 27 28  0  0  0  0  0  0  0  0999 V2000
    5.2663    1.7859   17.0576 H   0  0  0  0  0  0  0  0  0  0  0  0
    5.5930    1.2207   17.9265 C   0  0  0  0  0  0  0  0  0  0  0  0
    6.6823    0.4605   17.7480 N   0  0  0  0  0  0  0  0  0  0  0  0
    7.0968   -0.2673   18.7876 C   0  0  0  0  0  0  0  0  0  0  0  0
    8.0122   -0.8365   18.6391 H   0  0  0  0  0  0  0  0  0  0  0  0
    6.4266   -0.3087   20.0199 C   0  0  0  0  0  0  0  0  0  0  0  0
    6.9281   -1.1961   21.0815 C   0  0  0  0  0  0  0  0  0  0  0  0
    6.0024   -2.3821   21.6878 S   0  0  0  0  0  0  0  0  0  0  0  0
    8.3775   -1.0400   21.4912 C   0  0  0  0  0  0  0  0  0  0  0  0
    8.5288   -1.4139   22.5022 H   0  0  0  0  0  0  0  0  0  0  0  0
    8.9542   -1.6802   20.8206 H   0  0  0  0  0  0  0  0  0  0  0  0
    8.9724    0.3435   21.3050 C   0  0  0  0  0  0  0  0  0  0  0  0
    9.5799    0.5715   20.2814 O   0  0  0  0  0  0  0  0  0  0  0  0
    8.8004    1.4650   22.3185 C   0  0  0  0  0  0  0  0  0  0  0  0
    9.2878    2.7459   21.9877 C   0  0  0  0  0  0  0  0  0  0  0  0
    9.8502    2.8727   21.0700 H   0  0  0  0  0  0  0  0  0  0  0  0
    9.0618    3.8229   22.8439 C   0  0  0  0  0  0  0  0  0  0  0  0
    9.4049    4.8258   22.5836 H   0  0  0  0  0  0  0  0  0  0  0  0
    8.4175    3.7031   24.0155 N   0  0  0  0  0  0  0  0  0  0  0  0
    7.9810    2.4851   24.3514 C   0  0  0  0  0  0  0  0  0  0  0  0
    7.4657    2.4218   25.3064 H   0  0  0  0  0  0  0  0  0  0  0  0
    8.1495    1.3419   23.5577 C   0  0  0  0  0  0  0  0  0  0  0  0
    7.7839    0.3942   23.9338 H   0  0  0  0  0  0  0  0  0  0  0  0
    5.2846    0.4814   20.1933 C   0  0  0  0  0  0  0  0  0  0  0  0
    4.7610    0.4680   21.1532 H   0  0  0  0  0  0  0  0  0  0  0  0
    4.8735    1.2801   19.1281 C   0  0  0  0  0  0  0  0  0  0  0  0
    4.0054    1.9270   19.2067 H   0  0  0  0  0  0  0  0  0  0  0  0
  1  2  1  0
  2  3  2  0
  3  4  1  0
  4  5  1  0
  4  6  2  0
  6  7  1  0
  7  8  2  0
  7  9  1  0
  9 10  1  0
  9 11  1  0
  9 12  1  0
 12 13  2  0
 12 14  1  0
 14 15  2  0
 15 16  1  0
 15 17  1  0
 17 18  1  0
 17 19  2  0
 19 20  1  0
 20 21  1  0
 20 22  2  0
 22 23  1  0
  6 24  1  0
 24 25  1  0
 24 26  2  0
 26 27  1  0
 26  2  1  0
 22 14  1  0
M  END
>  <cnnaffinity>  (1) 
-4.89176

>  <filename>  (1) 
O=C(CC(=S)c1cccnc1)c1ccncc1

$$$$
