
     RDKit          3D

 36 38  0  0  0  0  0  0  0  0999 V2000
    5.5111   -2.5079   20.8753 H   0  0  0  0  0  0  0  0  0  0  0  0
    6.2408   -2.8318   21.6143 C   0  0  0  0  0  0  0  0  0  0  0  0
    5.6607   -4.0010   22.3528 C   0  0  0  0  0  0  0  0  0  0  0  0
    4.5675   -4.4054   22.0007 O   0  0  0  0  0  0  0  0  0  0  0  0
    6.4004   -4.5536   23.3643 N   0  0  0  0  0  0  0  0  0  0  0  0
    7.2141   -4.0210   23.5974 H   0  0  0  0  0  0  0  0  0  0  0  0
    5.9309   -5.3573   24.4207 C   0  0  0  0  0  0  0  0  0  0  0  0
    4.7331   -6.0815   24.3622 C   0  0  0  0  0  0  0  0  0  0  0  0
    4.1442   -6.0327   23.4527 H   0  0  0  0  0  0  0  0  0  0  0  0
    4.3101   -6.8085   25.4833 C   0  0  0  0  0  0  0  0  0  0  0  0
    3.3931   -7.3923   25.4366 H   0  0  0  0  0  0  0  0  0  0  0  0
    5.0680   -6.7888   26.6613 C   0  0  0  0  0  0  0  0  0  0  0  0
    4.5123   -7.6363   28.0839 Cl  0  0  0  0  0  0  0  0  0  0  0  0
    6.2750   -6.0829   26.7114 C   0  0  0  0  0  0  0  0  0  0  0  0
    6.8337   -6.0510   27.6410 H   0  0  0  0  0  0  0  0  0  0  0  0
    6.7173   -5.3997   25.5786 C   0  0  0  0  0  0  0  0  0  0  0  0
    7.6731   -4.8801   25.5857 H   0  0  0  0  0  0  0  0  0  0  0  0
    7.4173   -2.1937   21.7140 C   0  0  0  0  0  0  0  0  0  0  0  0
    7.8685   -1.0470   20.8751 C   0  0  0  0  0  0  0  0  0  0  0  0
    7.0100   -0.3561   19.8892 C   0  0  0  0  0  0  0  0  0  0  0  0
    7.5313   -0.1948   18.6011 C   0  0  0  0  0  0  0  0  0  0  0  0
    8.5123   -0.5991   18.3580 H   0  0  0  0  0  0  0  0  0  0  0  0
    6.8906    0.4438   17.6199 N   0  0  0  0  0  0  0  0  0  0  0  0
    5.7013    0.9901   17.9155 C   0  0  0  0  0  0  0  0  0  0  0  0
    5.2101    1.5240   17.1051 H   0  0  0  0  0  0  0  0  0  0  0  0
    5.0975    0.9001   19.1746 C   0  0  0  0  0  0  0  0  0  0  0  0
    4.1389    1.3750   19.3472 H   0  0  0  0  0  0  0  0  0  0  0  0
    5.7585    0.2019   20.1858 C   0  0  0  0  0  0  0  0  0  0  0  0
    5.3318    0.1133   21.1887 H   0  0  0  0  0  0  0  0  0  0  0  0
    9.0863   -0.7017   21.0536 N   0  0  0  0  0  0  0  0  0  0  0  0
    9.6577   -1.4758   22.1579 C   0  0  0  0  0  0  0  0  0  0  0  0
   10.5872   -1.9426   21.8222 H   0  0  0  0  0  0  0  0  0  0  0  0
    9.9031   -0.7781   22.9662 H   0  0  0  0  0  0  0  0  0  0  0  0
    8.6034   -2.5197   22.6088 C   0  0  0  0  0  0  0  0  0  0  0  0
    8.3629   -2.3834   23.6688 H   0  0  0  0  0  0  0  0  0  0  0  0
    8.9484   -3.5496   22.4559 H   0  0  0  0  0  0  0  0  0  0  0  0
  1  2  1  0
  2  3  1  0
  3  4  2  0
  3  5  1  0
  5  6  1  0
  5  7  1  0
  7  8  2  0
  8  9  1  0
  8 10  1  0
 10 11  1  0
 10 12  2  0
 12 13  1  0
 12 14  1  0
 14 15  1  0
 14 16  2  0
 16 17  1  0
  2 18  2  3
 18 19  1  0
 19 20  1  0
 20 21  2  0
 21 22  1  0
 21 23  1  0
 23 24  2  0
 24 25  1  0
 24 26  1  0
 26 27  1  0
 26 28  2  0
 28 29  1  0
 19 30  2  0
 30 31  1  0
 31 32  1  0
 31 33  1  0
 31 34  1  0
 34 35  1  0
 34 36  1  0
 16  7  1  0
 34 18  1  0
 28 20  1  0
M  END
>  <cnnaffinity>  (1) 
-5.24142

>  <filename>  (1) 
O=C(C=C1CCN=C1c1cccnc1)Nc1ccc(Cl)cc1

$$$$
