
     RDKit          3D

 28 29  0  0  0  0  0  0  0  0999 V2000
    4.9339    1.7794   16.9976 H   0  0  0  0  0  0  0  0  0  0  0  0
    5.4102    1.2894   17.8448 C   0  0  0  0  0  0  0  0  0  0  0  0
    6.5734    0.6692   17.5969 N   0  0  0  0  0  0  0  0  0  0  0  0
    7.1695    0.0492   18.6193 C   0  0  0  0  0  0  0  0  0  0  0  0
    8.1081   -0.4424   18.3837 H   0  0  0  0  0  0  0  0  0  0  0  0
    6.6440    0.0081   19.9218 C   0  0  0  0  0  0  0  0  0  0  0  0
    7.4066   -0.7535   20.9580 C   0  0  0  0  0  0  0  0  0  0  0  0
    8.1861   -1.6280   20.6418 O   0  0  0  0  0  0  0  0  0  0  0  0
    7.1678   -0.4044   22.4146 C   0  0  0  0  0  0  0  0  0  0  0  0
    6.2293   -0.8525   22.7368 H   0  0  0  0  0  0  0  0  0  0  0  0
    7.2937    1.0894   22.8062 C   0  0  0  0  0  0  0  0  0  0  0  0
    6.4373    1.5231   23.3485 H   0  0  0  0  0  0  0  0  0  0  0  0
    7.5360    1.7780   21.9788 H   0  0  0  0  0  0  0  0  0  0  0  0
    8.4374    0.7447   23.6697 N   0  0  0  0  0  0  0  0  0  0  0  0
    9.6892    1.4654   23.4758 C   0  0  0  0  0  0  0  0  0  0  0  0
   10.3554    1.3356   24.3399 H   0  0  0  0  0  0  0  0  0  0  0  0
    9.4543    2.5332   23.4145 H   0  0  0  0  0  0  0  0  0  0  0  0
   10.5389    1.1415   22.2298 C   0  0  0  0  0  0  0  0  0  0  0  0
   11.4299    2.1220   21.9902 F   0  0  0  0  0  0  0  0  0  0  0  0
    9.8055    0.9979   21.1082 F   0  0  0  0  0  0  0  0  0  0  0  0
   11.2365   -0.0058   22.3896 F   0  0  0  0  0  0  0  0  0  0  0  0
    8.3445   -0.7017   23.3603 C   0  0  0  0  0  0  0  0  0  0  0  0
    8.1021   -1.3250   24.2311 H   0  0  0  0  0  0  0  0  0  0  0  0
    9.2313   -1.1354   22.8817 H   0  0  0  0  0  0  0  0  0  0  0  0
    5.4266    0.6625   20.1701 C   0  0  0  0  0  0  0  0  0  0  0  0
    4.9674    0.6588   21.1629 H   0  0  0  0  0  0  0  0  0  0  0  0
    4.8047    1.3117   19.1063 C   0  0  0  0  0  0  0  0  0  0  0  0
    3.8723    1.8436   19.2485 H   0  0  0  0  0  0  0  0  0  0  0  0
  1  2  1  0
  2  3  2  0
  3  4  1  0
  4  5  1  0
  4  6  2  0
  6  7  1  0
  7  8  2  0
  7  9  1  0
  9 10  1  0
  9 11  1  0
 11 12  1  0
 11 13  1  0
 11 14  1  0
 14 15  1  0
 15 16  1  0
 15 17  1  0
 15 18  1  0
 18 19  1  0
 18 20  1  0
 18 21  1  0
 14 22  1  0
 22 23  1  0
 22 24  1  0
  6 25  1  0
 25 26  1  0
 25 27  2  0
 27 28  1  0
 27  2  1  0
 22  9  1  0
M  END
>  <cnnaffinity>  (1) 
-4.58007

>  <filename>  (1) 
O=C(c1cccnc1)C1CN(CC(F)(F)F)C1

$$$$
