
     RDKit          3D

 33 36  0  0  0  0  0  0  0  0999 V2000
    4.9991    1.8722   16.9983 H   0  0  0  0  0  0  0  0  0  0  0  0
    5.4981    1.3326   17.8003 C   0  0  0  0  0  0  0  0  0  0  0  0
    6.6499    0.7248   17.4720 N   0  0  0  0  0  0  0  0  0  0  0  0
    7.3014    0.0466   18.4244 C   0  0  0  0  0  0  0  0  0  0  0  0
    8.2426   -0.4146   18.1175 H   0  0  0  0  0  0  0  0  0  0  0  0
    6.8162   -0.0939   19.7404 C   0  0  0  0  0  0  0  0  0  0  0  0
    7.4816   -0.9137   20.6871 N   0  0  0  0  0  0  0  0  0  0  0  0
    8.8261   -0.8186   21.0402 C   0  0  0  0  0  0  0  0  0  0  0  0
    9.4469   -0.0798   20.5609 H   0  0  0  0  0  0  0  0  0  0  0  0
    9.0934   -1.6962   22.0405 C   0  0  0  0  0  0  0  0  0  0  0  0
    9.9661   -1.9151   22.6293 H   0  0  0  0  0  0  0  0  0  0  0  0
    7.9030   -2.3461   22.2994 N   0  0  0  0  0  0  0  0  0  0  0  0
    7.5165   -3.2806   23.2029 N   0  0  0  0  0  0  0  0  0  0  0  0
    6.2186   -3.3774   22.9331 C   0  0  0  0  0  0  0  0  0  0  0  0
    5.3412   -4.1809   23.6361 N   0  0  0  0  0  0  0  0  0  0  0  0
    4.3853   -4.1276   23.3286 H   0  0  0  0  0  0  0  0  0  0  0  0
    5.6714   -5.1851   24.5123 C   0  0  0  0  0  0  0  0  0  0  0  0
    6.7847   -5.3441   24.9626 O   0  0  0  0  0  0  0  0  0  0  0  0
    4.5466   -6.1131   24.8864 C   0  0  0  0  0  0  0  0  0  0  0  0
    3.2935   -5.9627   24.3343 O   0  0  0  0  0  0  0  0  0  0  0  0
    2.5214   -6.9622   24.8192 C   0  0  0  0  0  0  0  0  0  0  0  0
    1.4970   -6.9705   24.4734 H   0  0  0  0  0  0  0  0  0  0  0  0
    3.2353   -7.7479   25.6621 C   0  0  0  0  0  0  0  0  0  0  0  0
    2.8635   -8.6125   26.1921 H   0  0  0  0  0  0  0  0  0  0  0  0
    4.5492   -7.1969   25.7149 C   0  0  0  0  0  0  0  0  0  0  0  0
    5.4054   -7.5353   26.2905 H   0  0  0  0  0  0  0  0  0  0  0  0
    5.7651   -2.5681   21.8767 C   0  0  0  0  0  0  0  0  0  0  0  0
    4.7537   -2.5117   21.5449 H   0  0  0  0  0  0  0  0  0  0  0  0
    6.9154   -1.8919   21.4933 C   0  0  0  0  0  0  0  0  0  0  0  0
    5.6338    0.5824   20.0839 C   0  0  0  0  0  0  0  0  0  0  0  0
    5.2754    0.5645   21.1139 H   0  0  0  0  0  0  0  0  0  0  0  0
    4.9604    1.2975   19.0921 C   0  0  0  0  0  0  0  0  0  0  0  0
    4.0428    1.8369   19.3074 H   0  0  0  0  0  0  0  0  0  0  0  0
  1  2  1  0
  2  3  2  0
  3  4  1  0
  4  5  1  0
  4  6  2  0
  6  7  1  0
  7  8  1  0
  8  9  1  0
  8 10  2  0
 10 11  1  0
 10 12  1  0
 12 13  1  0
 13 14  2  0
 14 15  1  0
 15 16  1  0
 15 17  1  0
 17 18  2  0
 17 19  1  0
 19 20  1  0
 20 21  1  0
 21 22  1  0
 21 23  2  0
 23 24  1  0
 23 25  1  0
 25 26  1  0
 14 27  1  0
 27 28  1  0
 27 29  2  0
  6 30  1  0
 30 31  1  0
 30 32  2  0
 32 33  1  0
 32  2  1  0
 29  7  1  0
 29 12  1  0
 25 19  2  0
M  END
>  <cnnaffinity>  (1) 
-5.12001

>  <filename>  (1) 
O=C(Nc1cc2n(-c3cccnc3)ccn2n1)c1ccco1

$$$$
