
     RDKit          3D

 41 43  0  0  0  0  0  0  0  0999 V2000
    5.1295    1.8253   17.0129 H   0  0  0  0  0  0  0  0  0  0  0  0
    5.5391    1.2956   17.8708 C   0  0  0  0  0  0  0  0  0  0  0  0
    6.6776    0.6257   17.6532 N   0  0  0  0  0  0  0  0  0  0  0  0
    7.2013   -0.0394   18.6948 C   0  0  0  0  0  0  0  0  0  0  0  0
    8.1400   -0.5446   18.4854 H   0  0  0  0  0  0  0  0  0  0  0  0
    6.6474   -0.0951   19.9901 C   0  0  0  0  0  0  0  0  0  0  0  0
    7.2761   -0.9133   21.1552 C   0  0  0  0  0  0  0  0  0  0  0  0
    6.4497   -2.2610   21.3475 C   0  0  0  0  0  0  0  0  0  0  0  0
    5.7739   -2.7462   20.4572 O   0  0  0  0  0  0  0  0  0  0  0  0
    6.6093   -2.9104   22.5553 N   0  0  0  0  0  0  0  0  0  0  0  0
    7.1067   -2.4118   23.2732 H   0  0  0  0  0  0  0  0  0  0  0  0
    5.7986   -3.9549   23.0576 C   0  0  0  0  0  0  0  0  0  0  0  0
    6.3227   -4.7670   24.0701 C   0  0  0  0  0  0  0  0  0  0  0  0
    7.3705   -4.6507   24.3335 H   0  0  0  0  0  0  0  0  0  0  0  0
    5.5080   -5.7005   24.7228 C   0  0  0  0  0  0  0  0  0  0  0  0
    5.8897   -6.3152   25.5332 H   0  0  0  0  0  0  0  0  0  0  0  0
    4.1695   -5.8281   24.3326 C   0  0  0  0  0  0  0  0  0  0  0  0
    3.1137   -6.9143   25.1936 Cl  0  0  0  0  0  0  0  0  0  0  0  0
    3.6619   -5.0752   23.2719 C   0  0  0  0  0  0  0  0  0  0  0  0
    2.6306   -5.2209   22.9626 H   0  0  0  0  0  0  0  0  0  0  0  0
    4.4791   -4.1382   22.6340 C   0  0  0  0  0  0  0  0  0  0  0  0
    4.1211   -3.5214   21.8255 H   0  0  0  0  0  0  0  0  0  0  0  0
    7.3173   -0.0257   22.4498 C   0  0  0  0  0  0  0  0  0  0  0  0
    6.3036    0.2734   22.7373 H   0  0  0  0  0  0  0  0  0  0  0  0
    7.7221   -0.6068   23.2909 H   0  0  0  0  0  0  0  0  0  0  0  0
    8.2242    1.2043   22.2736 C   0  0  0  0  0  0  0  0  0  0  0  0
    8.1821    1.8298   23.1736 H   0  0  0  0  0  0  0  0  0  0  0  0
    7.8513    1.8182   21.4392 H   0  0  0  0  0  0  0  0  0  0  0  0
    9.6705    0.7748   21.9941 C   0  0  0  0  0  0  0  0  0  0  0  0
   10.3140    1.6498   21.8460 H   0  0  0  0  0  0  0  0  0  0  0  0
   10.0704    0.2545   22.8763 H   0  0  0  0  0  0  0  0  0  0  0  0
    9.7520   -0.1504   20.7757 C   0  0  0  0  0  0  0  0  0  0  0  0
    9.5513    0.4363   19.8689 H   0  0  0  0  0  0  0  0  0  0  0  0
   10.7664   -0.5605   20.6737 H   0  0  0  0  0  0  0  0  0  0  0  0
    8.7587   -1.3193   20.8562 C   0  0  0  0  0  0  0  0  0  0  0  0
    8.7931   -1.8767   19.9245 H   0  0  0  0  0  0  0  0  0  0  0  0
    9.0885   -2.0171   21.6351 H   0  0  0  0  0  0  0  0  0  0  0  0
    5.4343    0.5902   20.1717 C   0  0  0  0  0  0  0  0  0  0  0  0
    4.9208    0.5781   21.1351 H   0  0  0  0  0  0  0  0  0  0  0  0
    4.8806    1.3070   19.1043 C   0  0  0  0  0  0  0  0  0  0  0  0
    3.9560    1.8673   19.2081 H   0  0  0  0  0  0  0  0  0  0  0  0
  1  2  1  0
  2  3  2  0
  3  4  1  0
  4  5  1  0
  4  6  2  0
  6  7  1  0
  7  8  1  0
  8  9  2  0
  8 10  1  0
 10 11  1  0
 10 12  1  0
 12 13  2  0
 13 14  1  0
 13 15  1  0
 15 16  1  0
 15 17  2  0
 17 18  1  0
 17 19  1  0
 19 20  1  0
 19 21  2  0
 21 22  1  0
  7 23  1  0
 23 24  1  0
 23 25  1  0
 23 26  1  0
 26 27  1  0
 26 28  1  0
 26 29  1  0
 29 30  1  0
 29 31  1  0
 29 32  1  0
 32 33  1  0
 32 34  1  0
 32 35  1  0
 35 36  1  0
 35 37  1  0
  6 38  1  0
 38 39  1  0
 38 40  2  0
 40 41  1  0
 40  2  1  0
 35  7  1  0
 21 12  1  0
M  END
>  <cnnaffinity>  (1) 
-5.39749

>  <filename>  (1) 
O=C(Nc1ccc(Cl)cc1)C1(c2cccnc2)CCCCC1

$$$$
