
     RDKit          3D

 34 37  0  0  0  0  0  0  0  0999 V2000
    5.1060    1.8670   16.9583 H   0  0  0  0  0  0  0  0  0  0  0  0
    5.5022    1.3365   17.8220 C   0  0  0  0  0  0  0  0  0  0  0  0
    6.6211    0.6249   17.6138 N   0  0  0  0  0  0  0  0  0  0  0  0
    7.1269   -0.0360   18.6650 C   0  0  0  0  0  0  0  0  0  0  0  0
    8.0563   -0.5809   18.4978 H   0  0  0  0  0  0  0  0  0  0  0  0
    6.5595   -0.0412   19.9543 C   0  0  0  0  0  0  0  0  0  0  0  0
    7.2229   -0.7467   21.1144 C   0  0  0  0  0  0  0  0  0  0  0  0
    8.3409   -0.0273   21.9020 C   0  0  0  0  0  0  0  0  0  0  0  0
    9.0779   -0.5873   22.6760 O   0  0  0  0  0  0  0  0  0  0  0  0
    8.4087    1.3135   21.6318 N   0  0  0  0  0  0  0  0  0  0  0  0
    7.7021    1.7248   21.0503 H   0  0  0  0  0  0  0  0  0  0  0  0
    9.0990    2.2585   22.3160 C   0  0  0  0  0  0  0  0  0  0  0  0
    8.8445    3.5105   22.1736 N   0  0  0  0  0  0  0  0  0  0  0  0
    9.8808    4.1142   22.9010 C   0  0  0  0  0  0  0  0  0  0  0  0
   10.2835    5.4494   23.0420 C   0  0  0  0  0  0  0  0  0  0  0  0
    9.6938    6.2368   22.5777 H   0  0  0  0  0  0  0  0  0  0  0  0
   11.4820    5.7061   23.7244 C   0  0  0  0  0  0  0  0  0  0  0  0
   11.8471    6.7280   23.8054 H   0  0  0  0  0  0  0  0  0  0  0  0
   12.2325    4.6617   24.3058 C   0  0  0  0  0  0  0  0  0  0  0  0
   13.1591    4.9022   24.8249 H   0  0  0  0  0  0  0  0  0  0  0  0
   11.8097    3.3262   24.2087 C   0  0  0  0  0  0  0  0  0  0  0  0
   12.3442    2.4736   24.6138 H   0  0  0  0  0  0  0  0  0  0  0  0
   10.6601    3.1031   23.4763 C   0  0  0  0  0  0  0  0  0  0  0  0
   10.1264    1.8940   23.1027 O   0  0  0  0  0  0  0  0  0  0  0  0
    6.3201   -1.6704   21.9212 C   0  0  0  0  0  0  0  0  0  0  0  0
    6.4685   -1.7392   22.9964 H   0  0  0  0  0  0  0  0  0  0  0  0
    5.2853   -1.7345   21.5885 H   0  0  0  0  0  0  0  0  0  0  0  0
    7.3240   -2.2573   20.9932 C   0  0  0  0  0  0  0  0  0  0  0  0
    8.2092   -2.7401   21.3993 H   0  0  0  0  0  0  0  0  0  0  0  0
    6.9054   -2.6985   20.0925 H   0  0  0  0  0  0  0  0  0  0  0  0
    5.3880    0.7059   20.1423 C   0  0  0  0  0  0  0  0  0  0  0  0
    4.9346    0.7299   21.1358 H   0  0  0  0  0  0  0  0  0  0  0  0
    4.8533    1.4113   19.0605 C   0  0  0  0  0  0  0  0  0  0  0  0
    3.9655    2.0235   19.1686 H   0  0  0  0  0  0  0  0  0  0  0  0
  1  2  1  0
  2  3  2  0
  3  4  1  0
  4  5  1  0
  4  6  2  0
  6  7  1  0
  7  8  1  0
  8  9  2  0
  8 10  1  0
 10 11  1  0
 10 12  1  0
 12 13  2  0
 13 14  1  0
 14 15  2  0
 15 16  1  0
 15 17  1  0
 17 18  1  0
 17 19  2  0
 19 20  1  0
 19 21  1  0
 21 22  1  0
 21 23  2  0
 23 24  1  0
  7 25  1  0
 25 26  1  0
 25 27  1  0
 25 28  1  0
 28 29  1  0
 28 30  1  0
  6 31  1  0
 31 32  1  0
 31 33  2  0
 33 34  1  0
 33  2  1  0
 28  7  1  0
 24 12  1  0
 23 14  1  0
M  END
>  <cnnaffinity>  (1) 
-4.91818

>  <filename>  (1) 
O=C(Nc1nc2ccccc2o1)C1(c2cccnc2)CC1

$$$$
