
     RDKit          3D

 34 35  0  0  0  0  0  0  0  0999 V2000
    5.0005    1.7972   17.0289 H   0  0  0  0  0  0  0  0  0  0  0  0
    5.4769    1.3064   17.8731 C   0  0  0  0  0  0  0  0  0  0  0  0
    6.6442    0.6908   17.6206 N   0  0  0  0  0  0  0  0  0  0  0  0
    7.2389    0.0504   18.6372 C   0  0  0  0  0  0  0  0  0  0  0  0
    8.1770   -0.4571   18.4174 H   0  0  0  0  0  0  0  0  0  0  0  0
    6.6971   -0.0196   19.9333 C   0  0  0  0  0  0  0  0  0  0  0  0
    7.4601   -1.0231   21.1983 S   0  0  0  0  0  0  0  0  0  0  0  0
    8.2616    0.2087   22.1387 N   0  0  0  0  0  0  0  0  0  0  0  0
    9.0783    0.5404   21.6168 H   0  0  0  0  0  0  0  0  0  0  0  0
    7.4696    1.3077   22.5679 N   0  0  0  0  0  0  0  0  0  0  0  0
    6.9205    1.1379   23.3971 H   0  0  0  0  0  0  0  0  0  0  0  0
    7.6486    2.6214   22.2017 C   0  0  0  0  0  0  0  0  0  0  0  0
    8.4737    2.9587   21.3736 O   0  0  0  0  0  0  0  0  0  0  0  0
    6.7122    3.5883   22.9283 C   0  0  0  0  0  0  0  0  0  0  0  0
    6.4226    3.1160   23.8780 H   0  0  0  0  0  0  0  0  0  0  0  0
    7.4401    4.9116   23.2368 C   0  0  0  0  0  0  0  0  0  0  0  0
    7.7198    5.3612   22.2720 H   0  0  0  0  0  0  0  0  0  0  0  0
    8.3746    4.7198   23.7807 H   0  0  0  0  0  0  0  0  0  0  0  0
    6.5376    5.8731   24.0150 C   0  0  0  0  0  0  0  0  0  0  0  0
    6.3061    5.4441   25.0033 H   0  0  0  0  0  0  0  0  0  0  0  0
    7.0767    6.8102   24.1955 H   0  0  0  0  0  0  0  0  0  0  0  0
    5.2270    6.1457   23.2601 C   0  0  0  0  0  0  0  0  0  0  0  0
    4.5682    6.7788   23.8674 H   0  0  0  0  0  0  0  0  0  0  0  0
    5.4497    6.7122   22.3416 H   0  0  0  0  0  0  0  0  0  0  0  0
    4.5048    4.8398   22.8876 C   0  0  0  0  0  0  0  0  0  0  0  0
    3.6169    5.0578   22.2834 H   0  0  0  0  0  0  0  0  0  0  0  0
    4.1500    4.3507   23.8075 H   0  0  0  0  0  0  0  0  0  0  0  0
    5.4189    3.8682   22.1251 C   0  0  0  0  0  0  0  0  0  0  0  0
    4.8884    2.9322   21.8994 H   0  0  0  0  0  0  0  0  0  0  0  0
    5.7065    4.3132   21.1603 H   0  0  0  0  0  0  0  0  0  0  0  0
    5.4887    0.6386   20.1849 C   0  0  0  0  0  0  0  0  0  0  0  0
    5.0330    0.5819   21.1724 H   0  0  0  0  0  0  0  0  0  0  0  0
    4.8647    1.3094   19.1313 C   0  0  0  0  0  0  0  0  0  0  0  0
    3.9168    1.8161   19.2748 H   0  0  0  0  0  0  0  0  0  0  0  0
  1  2  1  0
  2  3  2  0
  3  4  1  0
  4  5  1  0
  4  6  2  0
  6  7  1  0
  7  8  1  0
  8  9  1  0
  8 10  1  0
 10 11  1  0
 10 12  1  0
 12 13  2  0
 12 14  1  0
 14 15  1  0
 14 16  1  0
 16 17  1  0
 16 18  1  0
 16 19  1  0
 19 20  1  0
 19 21  1  0
 19 22  1  0
 22 23  1  0
 22 24  1  0
 22 25  1  0
 25 26  1  0
 25 27  1  0
 25 28  1  0
 28 29  1  0
 28 30  1  0
  6 31  1  0
 31 32  1  0
 31 33  2  0
 33 34  1  0
 33  2  1  0
 28 14  1  0
M  END
>  <cnnaffinity>  (1) 
-4.61802

>  <filename>  (1) 
O=C(NNSc1cccnc1)C1CCCCC1

$$$$
