
     RDKit          3D

 40 42  0  0  0  0  0  0  0  0999 V2000
   11.6215   -1.6990   21.2155 O   0  0  0  0  0  0  0  0  0  0  0  0
   11.1068   -0.9481   22.0222 C   0  0  0  0  0  0  0  0  0  0  0  0
    9.9494   -1.2542   22.7108 N   0  0  0  0  0  0  0  0  0  0  0  0
    8.9753   -2.1508   22.1056 C   0  0  0  0  0  0  0  0  0  0  0  0
    8.2720   -1.4611   20.9647 C   0  0  0  0  0  0  0  0  0  0  0  0
    7.1847   -0.6900   21.0695 C   0  0  0  0  0  0  0  0  0  0  0  0
    6.5728    0.0594   19.9545 C   0  0  0  0  0  0  0  0  0  0  0  0
    5.3716    0.7690   20.1371 C   0  0  0  0  0  0  0  0  0  0  0  0
    4.7859    1.3988   19.0387 C   0  0  0  0  0  0  0  0  0  0  0  0
    5.4272    1.3258   17.7979 C   0  0  0  0  0  0  0  0  0  0  0  0
    6.5874    0.6817   17.6029 N   0  0  0  0  0  0  0  0  0  0  0  0
    7.1360    0.0753   18.6624 C   0  0  0  0  0  0  0  0  0  0  0  0
    8.0755   -0.4445   18.4676 H   0  0  0  0  0  0  0  0  0  0  0  0
    4.9957    1.7961   16.9178 H   0  0  0  0  0  0  0  0  0  0  0  0
    3.8513    1.9405   19.1260 H   0  0  0  0  0  0  0  0  0  0  0  0
    4.9144    0.8221   21.1258 H   0  0  0  0  0  0  0  0  0  0  0  0
    6.7155   -0.5444   22.0446 H   0  0  0  0  0  0  0  0  0  0  0  0
    8.8354   -1.5022   20.0317 H   0  0  0  0  0  0  0  0  0  0  0  0
    8.2778   -2.4651   22.8886 H   0  0  0  0  0  0  0  0  0  0  0  0
    9.5141   -3.0356   21.7567 H   0  0  0  0  0  0  0  0  0  0  0  0
    9.5519   -0.4364   23.1595 H   0  0  0  0  0  0  0  0  0  0  0  0
   11.6931    0.4065   22.4137 C   0  0  0  0  0  0  0  0  0  0  0  0
   12.2907    0.2732   23.8353 C   0  0  0  0  0  0  0  0  0  0  0  0
   12.5074    1.5922   24.5021 C   0  0  0  0  0  0  0  0  0  0  0  0
   11.8571    2.7069   24.1481 C   0  0  0  0  0  0  0  0  0  0  0  0
   10.8183    2.6933   23.1110 C   0  0  0  0  0  0  0  0  0  0  0  0
    9.8751    3.7365   23.0058 C   0  0  0  0  0  0  0  0  0  0  0  0
    8.7703    3.6215   22.1756 C   0  0  0  0  0  0  0  0  0  0  0  0
    8.6394    2.4886   21.3536 C   0  0  0  0  0  0  0  0  0  0  0  0
    9.6377    1.5177   21.3609 C   0  0  0  0  0  0  0  0  0  0  0  0
   10.6948    1.5605   22.2807 C   0  0  0  0  0  0  0  0  0  0  0  0
    9.5837    0.7035   20.6451 H   0  0  0  0  0  0  0  0  0  0  0  0
    7.7789    2.3461   20.7083 H   0  0  0  0  0  0  0  0  0  0  0  0
    8.0317    4.4192   22.1506 H   0  0  0  0  0  0  0  0  0  0  0  0
   10.0288    4.6156   23.6201 H   0  0  0  0  0  0  0  0  0  0  0  0
   12.0079    3.6491   24.6680 H   0  0  0  0  0  0  0  0  0  0  0  0
   13.1590    1.5333   25.3612 H   0  0  0  0  0  0  0  0  0  0  0  0
   11.6419   -0.3317   24.4878 H   0  0  0  0  0  0  0  0  0  0  0  0
   13.2428   -0.2703   23.7839 H   0  0  0  0  0  0  0  0  0  0  0  0
   12.5265    0.5981   21.7298 H   0  0  0  0  0  0  0  0  0  0  0  0
  1  2  2  0
  2  3  1  0
  3  4  1  0
  4  5  1  0
  5  6  2  3
  6  7  1  0
  7  8  2  0
  8  9  1  0
  9 10  2  0
 10 11  1  0
 11 12  2  0
 12 13  1  0
 10 14  1  0
  9 15  1  0
  8 16  1  0
  6 17  1  0
  5 18  1  0
  4 19  1  0
  4 20  1  0
  3 21  1  0
  2 22  1  0
 22 23  1  0
 23 24  1  0
 24 25  2  0
 25 26  1  0
 26 27  2  0
 27 28  1  0
 28 29  2  0
 29 30  1  0
 30 31  2  0
 30 32  1  0
 29 33  1  0
 28 34  1  0
 27 35  1  0
 25 36  1  0
 24 37  1  0
 23 38  1  0
 23 39  1  0
 22 40  1  0
 12  7  1  0
 31 22  1  0
 31 26  1  0
M  END
>  <cnnaffinity>  (1) 
-5.48996

>  <filename>  (1) 
O=C(NCC=Cc1cccnc1)C1CC=Cc2ccccc21

$$$$
