
     RDKit          3D

 32 33  0  0  0  0  0  0  0  0999 V2000
    4.3294   -2.4667   18.2630 H   0  0  0  0  0  0  0  0  0  0  0  0
    4.9919   -3.1185   18.5673 O   0  0  0  0  0  0  0  0  0  0  0  0
    5.9987   -2.3503   19.1569 N   0  0  0  0  0  0  0  0  0  0  0  0
    6.7373   -2.1309   18.4991 H   0  0  0  0  0  0  0  0  0  0  0  0
    6.4726   -2.5948   20.4405 C   0  0  0  0  0  0  0  0  0  0  0  0
    5.9275   -3.2896   21.2664 O   0  0  0  0  0  0  0  0  0  0  0  0
    7.7754   -1.8391   20.7346 C   0  0  0  0  0  0  0  0  0  0  0  0
    8.2696   -2.4024   21.5270 H   0  0  0  0  0  0  0  0  0  0  0  0
    8.4493   -1.8251   19.8796 H   0  0  0  0  0  0  0  0  0  0  0  0
    7.6098   -0.3584   21.1841 C   0  0  0  0  0  0  0  0  0  0  0  0
    6.8383    0.4016   20.1002 C   0  0  0  0  0  0  0  0  0  0  0  0
    7.3846    0.4609   18.8022 C   0  0  0  0  0  0  0  0  0  0  0  0
    8.4165    0.1464   18.6275 H   0  0  0  0  0  0  0  0  0  0  0  0
    6.7264    0.8673   17.7046 N   0  0  0  0  0  0  0  0  0  0  0  0
    5.4838    1.3452   17.8841 C   0  0  0  0  0  0  0  0  0  0  0  0
    4.9877    1.7332   16.9947 H   0  0  0  0  0  0  0  0  0  0  0  0
    4.8606    1.4038   19.1364 C   0  0  0  0  0  0  0  0  0  0  0  0
    3.8635    1.8268   19.2303 H   0  0  0  0  0  0  0  0  0  0  0  0
    5.5498    0.9321   20.2615 C   0  0  0  0  0  0  0  0  0  0  0  0
    5.0909    0.9807   21.2516 H   0  0  0  0  0  0  0  0  0  0  0  0
    8.9780    0.3118   21.4594 C   0  0  0  0  0  0  0  0  0  0  0  0
    9.6169   -0.4264   21.9628 H   0  0  0  0  0  0  0  0  0  0  0  0
    9.4864    0.6114   20.5373 H   0  0  0  0  0  0  0  0  0  0  0  0
    8.6794    1.4963   22.4037 C   0  0  0  0  0  0  0  0  0  0  0  0
    8.5114    2.4196   21.8344 H   0  0  0  0  0  0  0  0  0  0  0  0
    9.5258    1.6939   23.0723 H   0  0  0  0  0  0  0  0  0  0  0  0
    7.3883    1.0939   23.1655 C   0  0  0  0  0  0  0  0  0  0  0  0
    6.5855    1.8206   22.9874 H   0  0  0  0  0  0  0  0  0  0  0  0
    7.5380    1.0499   24.2499 H   0  0  0  0  0  0  0  0  0  0  0  0
    7.0006   -0.2866   22.5959 C   0  0  0  0  0  0  0  0  0  0  0  0
    5.9337   -0.4977   22.5740 H   0  0  0  0  0  0  0  0  0  0  0  0
    7.4590   -1.0880   23.1906 H   0  0  0  0  0  0  0  0  0  0  0  0
  1  2  1  0
  2  3  1  0
  3  4  1  0
  3  5  1  0
  5  6  2  0
  5  7  1  0
  7  8  1  0
  7  9  1  0
  7 10  1  0
 10 11  1  0
 11 12  2  0
 12 13  1  0
 12 14  1  0
 14 15  2  0
 15 16  1  0
 15 17  1  0
 17 18  1  0
 17 19  2  0
 19 20  1  0
 10 21  1  0
 21 22  1  0
 21 23  1  0
 21 24  1  0
 24 25  1  0
 24 26  1  0
 24 27  1  0
 27 28  1  0
 27 29  1  0
 27 30  1  0
 30 31  1  0
 30 32  1  0
 30 10  1  0
 19 11  1  0
M  END
>  <cnnaffinity>  (1) 
-4.83684

>  <filename>  (1) 
O=C(CC1(c2cccnc2)CCCC1)NO

$$$$
