
     RDKit          3D

 36 39  0  0  0  0  0  0  0  0999 V2000
    4.9609    1.7936   16.8908 H   0  0  0  0  0  0  0  0  0  0  0  0
    5.4423    1.3228   17.7483 C   0  0  0  0  0  0  0  0  0  0  0  0
    6.6119    0.7095   17.5126 N   0  0  0  0  0  0  0  0  0  0  0  0
    7.2204    0.1120   18.5437 C   0  0  0  0  0  0  0  0  0  0  0  0
    8.1618   -0.3845   18.3215 H   0  0  0  0  0  0  0  0  0  0  0  0
    6.7086    0.0955   19.8542 C   0  0  0  0  0  0  0  0  0  0  0  0
    7.3958   -0.6365   20.9369 C   0  0  0  0  0  0  0  0  0  0  0  0
    8.6200   -1.1659   20.7978 N   0  0  0  0  0  0  0  0  0  0  0  0
    8.7659   -1.8602   21.9491 N   0  0  0  0  0  0  0  0  0  0  0  0
    9.6997   -2.7776   22.4135 C   0  0  0  0  0  0  0  0  0  0  0  0
   10.6525   -2.8927   21.9422 H   0  0  0  0  0  0  0  0  0  0  0  0
    9.1606   -3.3525   23.5073 C   0  0  0  0  0  0  0  0  0  0  0  0
    9.5307   -4.1614   24.1180 H   0  0  0  0  0  0  0  0  0  0  0  0
    7.9132   -2.7611   23.7703 N   0  0  0  0  0  0  0  0  0  0  0  0
    7.0219   -3.2181   24.7753 C   0  0  0  0  0  0  0  0  0  0  0  0
    7.0766   -4.3459   25.2139 O   0  0  0  0  0  0  0  0  0  0  0  0
    6.1632   -2.2526   25.2134 N   0  0  0  0  0  0  0  0  0  0  0  0
    6.1985   -1.3714   24.7346 H   0  0  0  0  0  0  0  0  0  0  0  0
    5.1714   -2.4223   26.1978 C   0  0  0  0  0  0  0  0  0  0  0  0
    5.3536   -3.3136   27.2634 C   0  0  0  0  0  0  0  0  0  0  0  0
    6.2776   -3.8709   27.3357 H   0  0  0  0  0  0  0  0  0  0  0  0
    4.3387   -3.4904   28.2042 C   0  0  0  0  0  0  0  0  0  0  0  0
    4.4725   -4.1807   29.0338 H   0  0  0  0  0  0  0  0  0  0  0  0
    3.1370   -2.7883   28.0659 C   0  0  0  0  0  0  0  0  0  0  0  0
    1.8528   -3.0489   29.2141 Cl  0  0  0  0  0  0  0  0  0  0  0  0
    2.9530   -1.8814   27.0159 C   0  0  0  0  0  0  0  0  0  0  0  0
    2.0183   -1.3337   26.9253 H   0  0  0  0  0  0  0  0  0  0  0  0
    3.9844   -1.6912   26.0889 C   0  0  0  0  0  0  0  0  0  0  0  0
    3.8633   -0.9918   25.2665 H   0  0  0  0  0  0  0  0  0  0  0  0
    7.6998   -1.8120   22.7623 C   0  0  0  0  0  0  0  0  0  0  0  0
    6.7952   -0.9562   22.1794 C   0  0  0  0  0  0  0  0  0  0  0  0
    5.9349   -0.4734   22.5899 H   0  0  0  0  0  0  0  0  0  0  0  0
    5.4788    0.7421   20.0791 C   0  0  0  0  0  0  0  0  0  0  0  0
    5.0214    0.7730   21.0708 H   0  0  0  0  0  0  0  0  0  0  0  0
    4.8357    1.3581   19.0087 C   0  0  0  0  0  0  0  0  0  0  0  0
    3.8816    1.8599   19.1389 H   0  0  0  0  0  0  0  0  0  0  0  0
  1  2  1  0
  2  3  2  0
  3  4  1  0
  4  5  1  0
  4  6  2  0
  6  7  1  0
  7  8  2  0
  8  9  1  0
  9 10  1  0
 10 11  1  0
 10 12  2  0
 12 13  1  0
 12 14  1  0
 14 15  1  0
 15 16  2  0
 15 17  1  0
 17 18  1  0
 17 19  1  0
 19 20  2  0
 20 21  1  0
 20 22  1  0
 22 23  1  0
 22 24  2  0
 24 25  1  0
 24 26  1  0
 26 27  1  0
 26 28  2  0
 28 29  1  0
 14 30  1  0
 30 31  2  0
 31 32  1  0
  6 33  1  0
 33 34  1  0
 33 35  2  0
 35 36  1  0
 35  2  1  0
 31  7  1  0
 30  9  1  0
 28 19  1  0
M  END
>  <cnnaffinity>  (1) 
-5.67939

>  <filename>  (1) 
O=C(Nc1ccc(Cl)cc1)n1ccn2nc(-c3cccnc3)cc12

$$$$
