
     RDKit          3D

 32 33  0  0  0  0  0  0  0  0999 V2000
    6.7294    4.3582   22.4100 H   0  0  0  0  0  0  0  0  0  0  0  0
    6.3817    3.5041   22.0873 O   0  0  0  0  0  0  0  0  0  0  0  0
    7.2244    2.5042   22.5797 N   0  0  0  0  0  0  0  0  0  0  0  0
    6.6532    1.7358   22.9117 H   0  0  0  0  0  0  0  0  0  0  0  0
    8.2902    2.0161   21.8277 C   0  0  0  0  0  0  0  0  0  0  0  0
    8.8547    2.5910   20.9258 O   0  0  0  0  0  0  0  0  0  0  0  0
    8.8043    0.7065   22.3639 C   0  0  0  0  0  0  0  0  0  0  0  0
    8.2836    0.3776   23.2655 H   0  0  0  0  0  0  0  0  0  0  0  0
    9.8498    0.9026   22.6144 H   0  0  0  0  0  0  0  0  0  0  0  0
    8.7515   -0.3714   21.2708 C   0  0  2  0  0  0  0  0  0  0  0  0
    9.2558    0.0345   20.3858 H   0  0  0  0  0  0  0  0  0  0  0  0
    7.3721   -0.7101   20.9023 N   0  0  0  0  0  0  0  0  0  0  0  0
    6.6870    0.0013   19.8896 C   0  0  0  0  0  0  0  0  0  0  0  0
    7.1872    0.0856   18.5641 C   0  0  0  0  0  0  0  0  0  0  0  0
    8.1352   -0.3942   18.3170 H   0  0  0  0  0  0  0  0  0  0  0  0
    6.5646    0.7036   17.5503 N   0  0  0  0  0  0  0  0  0  0  0  0
    5.3982    1.3151   17.8194 C   0  0  0  0  0  0  0  0  0  0  0  0
    4.9131    1.8160   16.9848 H   0  0  0  0  0  0  0  0  0  0  0  0
    4.8025    1.3134   19.0854 C   0  0  0  0  0  0  0  0  0  0  0  0
    3.8556    1.8330   19.2412 H   0  0  0  0  0  0  0  0  0  0  0  0
    5.4513    0.6389   20.1304 C   0  0  0  0  0  0  0  0  0  0  0  0
    5.0182    0.5904   21.1293 H   0  0  0  0  0  0  0  0  0  0  0  0
    6.6360   -1.5317   21.8704 C   0  0  0  0  0  0  0  0  0  0  0  0
    5.7049   -1.8851   21.4079 H   0  0  0  0  0  0  0  0  0  0  0  0
    6.3720   -0.9676   22.7822 H   0  0  0  0  0  0  0  0  0  0  0  0
    7.4807   -2.7518   22.2610 C   0  0  0  0  0  0  0  0  0  0  0  0
    7.0268   -3.2904   23.0983 H   0  0  0  0  0  0  0  0  0  0  0  0
    7.5455   -3.4389   21.4045 H   0  0  0  0  0  0  0  0  0  0  0  0
    8.7825   -2.3821   22.6867 O   0  0  0  0  0  0  0  0  0  0  0  0
    9.4795   -1.6615   21.6786 C   0  0  0  0  0  0  0  0  0  0  0  0
    9.6156   -2.2903   20.7880 H   0  0  0  0  0  0  0  0  0  0  0  0
   10.4705   -1.4385   22.0871 H   0  0  0  0  0  0  0  0  0  0  0  0
  1  2  1  0
  2  3  1  0
  3  4  1  0
  3  5  1  0
  5  6  2  0
  5  7  1  0
  7  8  1  0
  7  9  1  0
  7 10  1  0
 10 11  1  6
 10 12  1  0
 12 13  1  0
 13 14  2  0
 14 15  1  0
 14 16  1  0
 16 17  2  0
 17 18  1  0
 17 19  1  0
 19 20  1  0
 19 21  2  0
 21 22  1  0
 12 23  1  0
 23 24  1  0
 23 25  1  0
 23 26  1  0
 26 27  1  0
 26 28  1  0
 26 29  1  0
 29 30  1  0
 30 31  1  0
 30 32  1  0
 30 10  1  0
 21 13  1  0
M  END
>  <cnnaffinity>  (1) 
-4.40192

>  <filename>  (1) 
O=C(C[C@H]1COCCN1c1cccnc1)NO

$$$$
