
     RDKit          3D

 46 48  0  0  0  0  0  0  0  0999 V2000
   10.1588   -2.0938   21.0043 O   0  0  0  0  0  0  0  0  0  0  0  0
   10.0316   -1.7515   22.1711 C   0  0  0  0  0  0  0  0  0  0  0  0
   10.4757   -2.7004   23.2771 C   0  0  0  0  0  0  0  0  0  0  0  0
    9.4280   -3.8151   23.4965 C   0  0  0  0  0  0  0  0  0  0  0  0
    8.1319   -3.3008   24.1397 C   0  0  0  0  0  0  0  0  0  0  0  0
    7.1058   -4.3983   24.2914 C   0  0  0  0  0  0  0  0  0  0  0  0
    6.1900   -4.6861   23.2687 C   0  0  0  0  0  0  0  0  0  0  0  0
    5.2907   -5.7444   23.4343 C   0  0  0  0  0  0  0  0  0  0  0  0
    5.2511   -6.5166   24.5261 N   0  0  0  0  0  0  0  0  0  0  0  0
    6.1330   -6.2490   25.5008 C   0  0  0  0  0  0  0  0  0  0  0  0
    7.0788   -5.2232   25.4234 C   0  0  0  0  0  0  0  0  0  0  0  0
    7.7852   -5.0908   26.2371 H   0  0  0  0  0  0  0  0  0  0  0  0
    6.0970   -6.9100   26.3680 H   0  0  0  0  0  0  0  0  0  0  0  0
    4.5674   -5.9886   22.6534 H   0  0  0  0  0  0  0  0  0  0  0  0
    6.1670   -4.0979   22.3575 H   0  0  0  0  0  0  0  0  0  0  0  0
    7.7136   -2.4891   23.5286 H   0  0  0  0  0  0  0  0  0  0  0  0
    8.3611   -2.8688   25.1250 H   0  0  0  0  0  0  0  0  0  0  0  0
    9.1784   -4.2923   22.5395 H   0  0  0  0  0  0  0  0  0  0  0  0
    9.8553   -4.6069   24.1276 H   0  0  0  0  0  0  0  0  0  0  0  0
   10.6526   -2.1696   24.2187 H   0  0  0  0  0  0  0  0  0  0  0  0
   11.4224   -3.1334   22.9385 H   0  0  0  0  0  0  0  0  0  0  0  0
    9.4137   -0.5779   22.5124 N   0  0  0  0  0  0  0  0  0  0  0  0
    9.5363    0.1242   23.7890 C   0  0  0  0  0  0  0  0  0  0  0  0
    9.0274    1.5428   23.4753 C   0  0  0  0  0  0  0  0  0  0  0  0
    8.1401    1.4000   22.2265 C   0  0  0  0  0  0  0  0  0  0  0  0
    8.6016    0.1247   21.5037 C   0  0  0  0  0  0  0  0  0  0  0  0
    7.4212   -0.7336   20.9790 C   0  0  0  0  0  0  0  0  0  0  0  0
    6.6371   -0.0328   19.8867 C   0  0  0  0  0  0  0  0  0  0  0  0
    5.4314    0.6435   20.1330 C   0  0  0  0  0  0  0  0  0  0  0  0
    4.7938    1.3155   19.0841 C   0  0  0  0  0  0  0  0  0  0  0  0
    5.3896    1.3063   17.8200 C   0  0  0  0  0  0  0  0  0  0  0  0
    6.5491    0.6835   17.5594 N   0  0  0  0  0  0  0  0  0  0  0  0
    7.1478    0.0495   18.5757 C   0  0  0  0  0  0  0  0  0  0  0  0
    8.1054   -0.4185   18.3374 H   0  0  0  0  0  0  0  0  0  0  0  0
    4.9239    1.8143   16.9759 H   0  0  0  0  0  0  0  0  0  0  0  0
    3.8632    1.8543   19.2325 H   0  0  0  0  0  0  0  0  0  0  0  0
    4.9982    0.6475   21.1354 H   0  0  0  0  0  0  0  0  0  0  0  0
    6.7647   -0.9711   21.8282 H   0  0  0  0  0  0  0  0  0  0  0  0
    7.8299   -1.6825   20.6127 H   0  0  0  0  0  0  0  0  0  0  0  0
    9.2486    0.3542   20.6417 H   0  0  0  0  0  0  0  0  0  0  0  0
    8.2007    2.2680   21.5624 H   0  0  0  0  0  0  0  0  0  0  0  0
    7.0821    1.3020   22.5063 H   0  0  0  0  0  0  0  0  0  0  0  0
    9.8730    2.2083   23.2685 H   0  0  0  0  0  0  0  0  0  0  0  0
    8.4757    1.9656   24.3214 H   0  0  0  0  0  0  0  0  0  0  0  0
    8.9404   -0.3666   24.5742 H   0  0  0  0  0  0  0  0  0  0  0  0
   10.5782    0.1301   24.1434 H   0  0  0  0  0  0  0  0  0  0  0  0
  1  2  2  0
  2  3  1  0
  3  4  1  0
  4  5  1  0
  5  6  1  0
  6  7  2  0
  7  8  1  0
  8  9  2  0
  9 10  1  0
 10 11  2  0
 11 12  1  0
 10 13  1  0
  8 14  1  0
  7 15  1  0
  5 16  1  0
  5 17  1  0
  4 18  1  0
  4 19  1  0
  3 20  1  0
  3 21  1  0
  2 22  1  0
 22 23  1  0
 23 24  1  0
 24 25  1  0
 25 26  1  0
 26 27  1  0
 27 28  1  0
 28 29  2  0
 29 30  1  0
 30 31  2  0
 31 32  1  0
 32 33  2  0
 33 34  1  0
 31 35  1  0
 30 36  1  0
 29 37  1  0
 27 38  1  0
 27 39  1  0
 26 40  1  0
 25 41  1  0
 25 42  1  0
 24 43  1  0
 24 44  1  0
 23 45  1  0
 23 46  1  0
 11  6  1  0
 26 22  1  0
 33 28  1  0
M  END
>  <cnnaffinity>  (1) 
-5.78708

>  <filename>  (1) 
O=C(CCCc1ccncc1)N1CCCC1Cc1cccnc1

$$$$
