
     RDKit          3D

 37 39  0  0  0  0  0  0  0  0999 V2000
    9.9084   -3.0641   24.0724 O   0  0  0  0  0  0  0  0  0  0  0  0
    8.8398   -2.9454   24.6448 C   0  0  0  0  0  0  0  0  0  0  0  0
    8.5847   -3.7136   25.9429 C   0  0  0  0  0  0  0  0  0  0  0  0
    8.0123   -5.1165   25.6722 C   0  0  0  0  0  0  0  0  0  0  0  0
    6.6837   -4.9889   24.9751 C   0  0  0  0  0  0  0  0  0  0  0  0
    5.5233   -4.7152   25.7129 C   0  0  0  0  0  0  0  0  0  0  0  0
    4.2845   -4.6094   25.0655 C   0  0  0  0  0  0  0  0  0  0  0  0
    4.1893   -4.8157   23.6848 C   0  0  0  0  0  0  0  0  0  0  0  0
    2.4838   -4.9874   22.8379 Br  0  0  0  0  0  0  0  0  0  0  0  0
    5.3560   -5.0122   22.9414 C   0  0  0  0  0  0  0  0  0  0  0  0
    6.5976   -5.1183   23.5815 C   0  0  0  0  0  0  0  0  0  0  0  0
    7.4906   -5.3409   23.0014 H   0  0  0  0  0  0  0  0  0  0  0  0
    5.2849   -5.1242   21.8656 H   0  0  0  0  0  0  0  0  0  0  0  0
    3.3881   -4.4066   25.6415 H   0  0  0  0  0  0  0  0  0  0  0  0
    5.5834   -4.6242   26.7955 H   0  0  0  0  0  0  0  0  0  0  0  0
    8.7064   -5.6980   25.0545 H   0  0  0  0  0  0  0  0  0  0  0  0
    7.8841   -5.6604   26.6151 H   0  0  0  0  0  0  0  0  0  0  0  0
    9.5294   -3.8112   26.4833 H   0  0  0  0  0  0  0  0  0  0  0  0
    7.8932   -3.1442   26.5715 H   0  0  0  0  0  0  0  0  0  0  0  0
    7.8454   -2.1747   24.0886 N   0  0  0  0  0  0  0  0  0  0  0  0
    7.9563   -1.6820   22.8142 C   0  0  0  0  0  0  0  0  0  0  0  0
    8.9600   -1.7993   21.9883 N   0  0  0  0  0  0  0  0  0  0  0  0
    8.6043   -1.1809   20.8047 N   0  0  0  0  0  0  0  0  0  0  0  0
    7.3917   -0.7002   20.9358 C   0  0  0  0  0  0  0  0  0  0  0  0
    6.6511    0.0082   19.9055 C   0  0  0  0  0  0  0  0  0  0  0  0
    5.4351    0.6479   20.1648 C   0  0  0  0  0  0  0  0  0  0  0  0
    4.8181    1.3012   19.1017 C   0  0  0  0  0  0  0  0  0  0  0  0
    5.4033    1.2917   17.8314 C   0  0  0  0  0  0  0  0  0  0  0  0
    6.5710    0.6707   17.5858 N   0  0  0  0  0  0  0  0  0  0  0  0
    7.1816    0.0522   18.6101 C   0  0  0  0  0  0  0  0  0  0  0  0
    8.1300   -0.4381   18.4095 H   0  0  0  0  0  0  0  0  0  0  0  0
    4.8958    1.8020   17.0185 H   0  0  0  0  0  0  0  0  0  0  0  0
    3.8864    1.8286   19.2511 H   0  0  0  0  0  0  0  0  0  0  0  0
    4.9905    0.6477   21.1612 H   0  0  0  0  0  0  0  0  0  0  0  0
    6.9578   -1.0009   22.1985 N   0  0  0  0  0  0  0  0  0  0  0  0
    6.0440   -0.8052   22.5928 H   0  0  0  0  0  0  0  0  0  0  0  0
    6.9724   -2.0662   24.5838 H   0  0  0  0  0  0  0  0  0  0  0  0
  1  2  2  0
  2  3  1  0
  3  4  1  0
  4  5  1  0
  5  6  2  0
  6  7  1  0
  7  8  2  0
  8  9  1  0
  8 10  1  0
 10 11  2  0
 11 12  1  0
 10 13  1  0
  7 14  1  0
  6 15  1  0
  4 16  1  0
  4 17  1  0
  3 18  1  0
  3 19  1  0
  2 20  1  0
 20 21  1  0
 21 22  2  0
 22 23  1  0
 23 24  2  0
 24 25  1  0
 25 26  2  0
 26 27  1  0
 27 28  2  0
 28 29  1  0
 29 30  2  0
 30 31  1  0
 28 32  1  0
 27 33  1  0
 26 34  1  0
 24 35  1  0
 35 36  1  0
 20 37  1  0
 11  5  1  0
 35 21  1  0
 30 25  1  0
M  END
>  <cnnaffinity>  (1) 
-5.65125

>  <filename>  (1) 
O=C(CCc1ccc(Br)cc1)Nc1nnc(-c2cccnc2)[nH]1

$$$$
