
     RDKit          3D

 27 28  0  0  0  0  0  0  0  0999 V2000
    5.0723   -0.5518   24.0709 H   0  0  0  0  0  0  0  0  0  0  0  0
    5.2532   -0.2958   24.9860 O   0  0  0  0  0  0  0  0  0  0  0  0
    5.8188    0.9363   25.0246 C   0  0  0  0  0  0  0  0  0  0  0  0
    5.5726    1.6615   26.1957 C   0  0  0  0  0  0  0  0  0  0  0  0
    4.9682    1.1960   26.9633 H   0  0  0  0  0  0  0  0  0  0  0  0
    6.0665    2.9526   26.3503 C   0  0  0  0  0  0  0  0  0  0  0  0
    5.5696    3.8794   27.7355 Cl  0  0  0  0  0  0  0  0  0  0  0  0
    6.9067    3.5137   25.3862 C   0  0  0  0  0  0  0  0  0  0  0  0
    7.2956    4.5192   25.5021 H   0  0  0  0  0  0  0  0  0  0  0  0
    7.2072    2.7674   24.2396 C   0  0  0  0  0  0  0  0  0  0  0  0
    7.8633    3.1672   23.4739 H   0  0  0  0  0  0  0  0  0  0  0  0
    6.6472    1.5081   24.0307 C   0  0  0  0  0  0  0  0  0  0  0  0
    6.8359    0.9321   22.7597 O   0  0  0  0  0  0  0  0  0  0  0  0
    7.5759   -0.1764   22.5461 C   0  0  0  0  0  0  0  0  0  0  0  0
    8.3593   -0.9999   23.7005 S   0  0  0  0  0  0  0  0  0  0  0  0
    7.5890   -0.5765   21.0481 C   0  0  0  0  0  0  0  0  0  0  0  0
    8.3161   -1.4849   20.7014 O   0  0  0  0  0  0  0  0  0  0  0  0
    6.7403    0.1348   20.0307 C   0  0  0  0  0  0  0  0  0  0  0  0
    7.1923    0.0525   18.6976 C   0  0  0  0  0  0  0  0  0  0  0  0
    8.1108   -0.4823   18.4719 H   0  0  0  0  0  0  0  0  0  0  0  0
    6.5611    0.6022   17.6607 N   0  0  0  0  0  0  0  0  0  0  0  0
    5.4240    1.2648   17.9079 C   0  0  0  0  0  0  0  0  0  0  0  0
    4.9311    1.7118   17.0462 H   0  0  0  0  0  0  0  0  0  0  0  0
    4.8784    1.3962   19.1879 C   0  0  0  0  0  0  0  0  0  0  0  0
    3.9652    1.9634   19.3252 H   0  0  0  0  0  0  0  0  0  0  0  0
    5.5425    0.8274   20.2735 C   0  0  0  0  0  0  0  0  0  0  0  0
    5.1253    0.9379   21.2723 H   0  0  0  0  0  0  0  0  0  0  0  0
  1  2  1  0
  2  3  1  0
  3  4  2  0
  4  5  1  0
  4  6  1  0
  6  7  1  0
  6  8  2  0
  8  9  1  0
  8 10  1  0
 10 11  1  0
 10 12  2  0
 12 13  1  0
 13 14  1  0
 14 15  2  0
 14 16  1  0
 16 17  2  0
 16 18  1  0
 18 19  2  0
 19 20  1  0
 19 21  1  0
 21 22  2  0
 22 23  1  0
 22 24  1  0
 24 25  1  0
 24 26  2  0
 26 27  1  0
 12  3  1  0
 26 18  1  0
M  END
>  <cnnaffinity>  (1) 
-4.70449

>  <filename>  (1) 
O=C(C(=S)Oc1ccc(Cl)cc1O)c1cccnc1

$$$$
