
     RDKit          3D

 32 34  0  0  0  0  0  0  0  0999 V2000
    8.0544   -1.6794   20.5819 O   0  0  0  0  0  0  0  0  0  0  0  0
    7.3925   -0.6986   20.9231 C   0  0  0  0  0  0  0  0  0  0  0  0
    6.6753    0.0001   19.8648 C   0  0  0  0  0  0  0  0  0  0  0  0
    5.4767    0.6582   20.1294 C   0  0  0  0  0  0  0  0  0  0  0  0
    4.8376    1.2957   19.0772 C   0  0  0  0  0  0  0  0  0  0  0  0
    5.4143    1.2818   17.8083 C   0  0  0  0  0  0  0  0  0  0  0  0
    6.5623    0.6323   17.5488 N   0  0  0  0  0  0  0  0  0  0  0  0
    7.1803    0.0022   18.5619 C   0  0  0  0  0  0  0  0  0  0  0  0
    8.1223   -0.4960   18.3599 H   0  0  0  0  0  0  0  0  0  0  0  0
    4.9162    1.8346   17.0175 H   0  0  0  0  0  0  0  0  0  0  0  0
    3.9106    1.8307   19.2346 H   0  0  0  0  0  0  0  0  0  0  0  0
    5.0426    0.6840   21.1265 H   0  0  0  0  0  0  0  0  0  0  0  0
    7.2853   -0.2651   22.3516 C   0  0  0  0  0  0  0  0  0  0  0  0
    7.1490    0.9926   22.7472 N   0  0  0  0  0  0  0  0  0  0  0  0
    7.0700    0.9817   24.1308 C   0  0  0  0  0  0  0  0  0  0  0  0
    7.1415   -0.2981   24.5828 C   0  0  0  0  0  0  0  0  0  0  0  0
    7.2783   -1.1022   23.4712 N   0  0  0  0  0  0  0  0  0  0  0  0
    7.2036   -2.5708   23.4869 C   0  0  0  0  0  0  0  0  0  0  0  0
    8.0055   -3.1402   24.6141 C   0  0  0  0  0  0  0  0  0  0  0  0
    7.3374   -3.6156   25.6822 N   0  0  0  0  0  0  0  0  0  0  0  0
    8.0371   -4.1674   26.6881 C   0  0  0  0  0  0  0  0  0  0  0  0
    9.4320   -4.2845   26.6448 C   0  0  0  0  0  0  0  0  0  0  0  0
   10.2931   -5.0133   27.9673 Cl  0  0  0  0  0  0  0  0  0  0  0  0
   10.1234   -3.8124   25.5303 C   0  0  0  0  0  0  0  0  0  0  0  0
    9.4047   -3.1987   24.5119 C   0  0  0  0  0  0  0  0  0  0  0  0
   10.3307   -2.4606   23.0051 Br  0  0  0  0  0  0  0  0  0  0  0  0
   11.2032   -3.9185   25.4538 H   0  0  0  0  0  0  0  0  0  0  0  0
    7.4986   -4.5411   27.5579 H   0  0  0  0  0  0  0  0  0  0  0  0
    6.1616   -2.8897   23.5980 H   0  0  0  0  0  0  0  0  0  0  0  0
    7.6085   -2.9669   22.5527 H   0  0  0  0  0  0  0  0  0  0  0  0
    7.0972   -0.6024   25.6199 H   0  0  0  0  0  0  0  0  0  0  0  0
    6.9674    1.8611   24.7612 H   0  0  0  0  0  0  0  0  0  0  0  0
  1  2  2  0
  2  3  1  0
  3  4  2  0
  4  5  1  0
  5  6  2  0
  6  7  1  0
  7  8  2  0
  8  9  1  0
  6 10  1  0
  5 11  1  0
  4 12  1  0
  2 13  1  0
 13 14  2  0
 14 15  1  0
 15 16  2  0
 16 17  1  0
 17 18  1  0
 18 19  1  0
 19 20  2  0
 20 21  1  0
 21 22  2  0
 22 23  1  0
 22 24  1  0
 24 25  2  0
 25 26  1  0
 24 27  1  0
 21 28  1  0
 18 29  1  0
 18 30  1  0
 16 31  1  0
 15 32  1  0
  8  3  1  0
 17 13  1  0
 25 19  1  0
M  END
>  <cnnaffinity>  (1) 
-5.61516

>  <filename>  (1) 
O=C(c1cccnc1)c1nccn1Cc1ncc(Cl)cc1Br

$$$$
