
     RDKit          3D

 28 29  0  0  0  0  0  0  0  0999 V2000
    4.1882   -4.0075   25.1388 H   0  0  0  0  0  0  0  0  0  0  0  0
    5.2498   -3.7792   25.1620 C   0  0  0  0  0  0  0  0  0  0  0  0
    5.6932   -2.9851   24.1899 N   0  0  0  0  0  0  0  0  0  0  0  0
    7.0060   -2.7694   24.1275 C   0  0  0  0  0  0  0  0  0  0  0  0
    7.5845   -1.8819   23.0576 C   0  0  0  0  0  0  0  0  0  0  0  0
    8.6774   -1.3518   23.1651 O   0  0  0  0  0  0  0  0  0  0  0  0
    6.7458   -1.6813   21.7603 C   0  0  0  0  0  0  0  0  0  0  0  0
    5.7261   -2.2788   21.5003 O   0  0  0  0  0  0  0  0  0  0  0  0
    7.3367   -0.7598   20.9124 N   0  0  0  0  0  0  0  0  0  0  0  0
    8.2459   -0.4243   21.2052 H   0  0  0  0  0  0  0  0  0  0  0  0
    6.6694   -0.0530   19.8691 C   0  0  0  0  0  0  0  0  0  0  0  0
    7.2221    0.0452   18.5742 C   0  0  0  0  0  0  0  0  0  0  0  0
    8.1800   -0.4327   18.3691 H   0  0  0  0  0  0  0  0  0  0  0  0
    6.6322    0.6933   17.5600 N   0  0  0  0  0  0  0  0  0  0  0  0
    5.4613    1.3052   17.8104 C   0  0  0  0  0  0  0  0  0  0  0  0
    5.0036    1.8211   16.9688 H   0  0  0  0  0  0  0  0  0  0  0  0
    4.8377    1.2899   19.0633 C   0  0  0  0  0  0  0  0  0  0  0  0
    3.9043    1.8270   19.2095 H   0  0  0  0  0  0  0  0  0  0  0  0
    5.4525    0.5925   20.1123 C   0  0  0  0  0  0  0  0  0  0  0  0
    5.0179    0.5508   21.1110 H   0  0  0  0  0  0  0  0  0  0  0  0
    7.9003   -3.2993   24.9717 N   0  0  0  0  0  0  0  0  0  0  0  0
    7.4568   -4.0668   25.9693 C   0  0  0  0  0  0  0  0  0  0  0  0
    8.5209   -4.7284   26.8782 C   0  0  0  0  0  0  0  0  0  0  0  0
    9.0698   -5.7881   26.2574 F   0  0  0  0  0  0  0  0  0  0  0  0
    9.5219   -3.9140   27.2267 F   0  0  0  0  0  0  0  0  0  0  0  0
    7.9567   -5.1683   28.0226 F   0  0  0  0  0  0  0  0  0  0  0  0
    6.0965   -4.3534   26.1069 C   0  0  0  0  0  0  0  0  0  0  0  0
    5.7133   -4.9836   26.8958 H   0  0  0  0  0  0  0  0  0  0  0  0
  1  2  1  0
  2  3  2  0
  3  4  1  0
  4  5  1  0
  5  6  2  0
  5  7  1  0
  7  8  2  0
  7  9  1  0
  9 10  1  0
  9 11  1  0
 11 12  2  0
 12 13  1  0
 12 14  1  0
 14 15  2  0
 15 16  1  0
 15 17  1  0
 17 18  1  0
 17 19  2  0
 19 20  1  0
  4 21  2  0
 21 22  1  0
 22 23  1  0
 23 24  1  0
 23 25  1  0
 23 26  1  0
 22 27  2  0
 27 28  1  0
 27  2  1  0
 19 11  1  0
M  END
>  <cnnaffinity>  (1) 
-4.86336

>  <filename>  (1) 
O=C(Nc1cccnc1)C(=O)c1nccc(C(F)(F)F)n1

$$$$
