
     RDKit          3D

 30 32  0  0  0  0  0  0  0  0999 V2000
    8.7932   -3.2459   22.1973 H   0  0  0  0  0  0  0  0  0  0  0  0
    8.3250   -2.3081   21.9194 C   0  0  0  0  0  0  0  0  0  0  0  0
    7.8469   -1.9566   20.7807 N   0  0  0  0  0  0  0  0  0  0  0  0
    7.3585   -0.6814   20.9766 C   0  0  0  0  0  0  0  0  0  0  0  0
    6.6533    0.0149   19.9095 C   0  0  0  0  0  0  0  0  0  0  0  0
    7.1721    0.0442   18.6033 C   0  0  0  0  0  0  0  0  0  0  0  0
    8.1231   -0.4368   18.3775 H   0  0  0  0  0  0  0  0  0  0  0  0
    6.5704    0.6712   17.5876 N   0  0  0  0  0  0  0  0  0  0  0  0
    5.4044    1.2889   17.8428 C   0  0  0  0  0  0  0  0  0  0  0  0
    4.9192    1.7770   17.0007 H   0  0  0  0  0  0  0  0  0  0  0  0
    4.8012    1.3072   19.1025 C   0  0  0  0  0  0  0  0  0  0  0  0
    3.8743    1.8440   19.2605 H   0  0  0  0  0  0  0  0  0  0  0  0
    5.4306    0.6526   20.1562 C   0  0  0  0  0  0  0  0  0  0  0  0
    5.0024    0.6420   21.1585 H   0  0  0  0  0  0  0  0  0  0  0  0
    7.6068   -0.3096   22.2753 C   0  0  0  0  0  0  0  0  0  0  0  0
    7.3774    1.0169   22.9057 C   0  0  0  0  0  0  0  0  0  0  0  0
    7.1096    1.9720   22.1982 O   0  0  0  0  0  0  0  0  0  0  0  0
    7.4706    1.1264   24.2780 N   0  0  0  0  0  0  0  0  0  0  0  0
    7.4537    0.2834   24.8270 H   0  0  0  0  0  0  0  0  0  0  0  0
    7.5026    2.3313   24.9953 C   0  0  0  0  0  0  0  0  0  0  0  0
    8.1256    3.4656   24.4754 C   0  0  0  0  0  0  0  0  0  0  0  0
    8.6021    3.4427   23.5083 H   0  0  0  0  0  0  0  0  0  0  0  0
    8.1178    4.6263   25.2368 C   0  0  0  0  0  0  0  0  0  0  0  0
    8.5891    5.5238   24.8466 H   0  0  0  0  0  0  0  0  0  0  0  0
    7.5597    4.7324   26.4492 N   0  0  0  0  0  0  0  0  0  0  0  0
    6.9819    3.6290   26.9348 C   0  0  0  0  0  0  0  0  0  0  0  0
    6.5366    3.7254   27.9215 H   0  0  0  0  0  0  0  0  0  0  0  0
    6.9328    2.4093   26.2663 C   0  0  0  0  0  0  0  0  0  0  0  0
    6.4465    1.5594   26.7245 H   0  0  0  0  0  0  0  0  0  0  0  0
    8.2337   -1.3788   22.8861 O   0  0  0  0  0  0  0  0  0  0  0  0
  1  2  1  0
  2  3  2  0
  3  4  1  0
  4  5  1  0
  5  6  2  0
  6  7  1  0
  6  8  1  0
  8  9  2  0
  9 10  1  0
  9 11  1  0
 11 12  1  0
 11 13  2  0
 13 14  1  0
  4 15  2  0
 15 16  1  0
 16 17  2  0
 16 18  1  0
 18 19  1  0
 18 20  1  0
 20 21  2  0
 21 22  1  0
 21 23  1  0
 23 24  1  0
 23 25  2  0
 25 26  1  0
 26 27  1  0
 26 28  2  0
 28 29  1  0
 15 30  1  0
 30  2  1  0
 13  5  1  0
 28 20  1  0
M  END
>  <cnnaffinity>  (1) 
-4.91247

>  <filename>  (1) 
O=C(Nc1ccncc1)c1ocnc1-c1cccnc1

$$$$
