
     RDKit          3D

 29 30  0  0  0  0  0  0  0  0999 V2000
    4.9210    1.7868   17.0017 H   0  0  0  0  0  0  0  0  0  0  0  0
    5.4006    1.2891   17.8439 C   0  0  0  0  0  0  0  0  0  0  0  0
    6.5574    0.6658   17.5768 N   0  0  0  0  0  0  0  0  0  0  0  0
    7.1880    0.0551   18.5839 C   0  0  0  0  0  0  0  0  0  0  0  0
    8.1292   -0.4263   18.3451 H   0  0  0  0  0  0  0  0  0  0  0  0
    6.6820    0.0092   19.8971 C   0  0  0  0  0  0  0  0  0  0  0  0
    7.3007   -0.7087   20.9306 O   0  0  0  0  0  0  0  0  0  0  0  0
    8.6691   -0.7146   21.0547 C   0  0  0  0  0  0  0  0  0  0  0  0
    9.4057   -0.0693   20.3587 O   0  0  0  0  0  0  0  0  0  0  0  0
    9.1605   -1.6755   22.1660 C   0  0  0  0  0  0  0  0  0  0  0  0
    9.9943   -2.2256   21.7239 H   0  0  0  0  0  0  0  0  0  0  0  0
    8.3858   -2.4182   22.3855 H   0  0  0  0  0  0  0  0  0  0  0  0
    9.6435   -1.0929   23.4185 N   0  0  0  0  0  0  0  0  0  0  0  0
   10.6264   -0.8648   23.4939 H   0  0  0  0  0  0  0  0  0  0  0  0
    8.8331   -0.3195   24.2327 C   0  0  0  0  0  0  0  0  0  0  0  0
    9.4245    0.5577   25.1597 C   0  0  0  0  0  0  0  0  0  0  0  0
   10.5050    0.6679   25.1789 H   0  0  0  0  0  0  0  0  0  0  0  0
    8.6304    1.2649   26.0629 C   0  0  0  0  0  0  0  0  0  0  0  0
    9.0684    1.9301   26.7957 H   0  0  0  0  0  0  0  0  0  0  0  0
    7.2428    1.1095   26.0373 C   0  0  0  0  0  0  0  0  0  0  0  0
    6.2560    1.9847   27.1704 Cl  0  0  0  0  0  0  0  0  0  0  0  0
    6.6412    0.2622   25.1087 C   0  0  0  0  0  0  0  0  0  0  0  0
    5.5635    0.1509   25.1001 H   0  0  0  0  0  0  0  0  0  0  0  0
    7.4324   -0.4426   24.2022 C   0  0  0  0  0  0  0  0  0  0  0  0
    6.9764   -1.0916   23.4665 H   0  0  0  0  0  0  0  0  0  0  0  0
    5.4670    0.6367   20.1767 C   0  0  0  0  0  0  0  0  0  0  0  0
    5.0500    0.6025   21.1835 H   0  0  0  0  0  0  0  0  0  0  0  0
    4.8280    1.2981   19.1190 C   0  0  0  0  0  0  0  0  0  0  0  0
    3.8944    1.8251   19.2686 H   0  0  0  0  0  0  0  0  0  0  0  0
  1  2  1  0
  2  3  2  0
  3  4  1  0
  4  5  1  0
  4  6  2  0
  6  7  1  0
  7  8  1  0
  8  9  2  0
  8 10  1  0
 10 11  1  0
 10 12  1  0
 10 13  1  0
 13 14  1  0
 13 15  1  0
 15 16  2  0
 16 17  1  0
 16 18  1  0
 18 19  1  0
 18 20  2  0
 20 21  1  0
 20 22  1  0
 22 23  1  0
 22 24  2  0
 24 25  1  0
  6 26  1  0
 26 27  1  0
 26 28  2  0
 28 29  1  0
 28  2  1  0
 24 15  1  0
M  END
>  <cnnaffinity>  (1) 
-4.36066

>  <filename>  (1) 
O=C(CNc1ccc(Cl)cc1)Oc1cccnc1

$$$$
