
     RDKit          3D

 37 40  0  0  0  0  0  0  0  0999 V2000
    6.2063   -0.1241   24.8007 O   0  0  0  0  0  0  0  0  0  0  0  0
    6.6446   -1.2299   25.0245 C   0  0  0  0  0  0  0  0  0  0  0  0
    7.5811   -1.8274   24.2128 N   0  0  0  0  0  0  0  0  0  0  0  0
    7.7428   -1.5023   22.8756 C   0  0  0  0  0  0  0  0  0  0  0  0
    6.8370   -0.8282   22.1885 N   0  0  0  0  0  0  0  0  0  0  0  0
    7.3673   -0.7433   20.9734 N   0  0  0  0  0  0  0  0  0  0  0  0
    6.6903   -0.0475   19.9442 C   0  0  0  0  0  0  0  0  0  0  0  0
    5.4756    0.6252   20.1824 C   0  0  0  0  0  0  0  0  0  0  0  0
    4.8743    1.2881   19.1119 C   0  0  0  0  0  0  0  0  0  0  0  0
    5.4974    1.2544   17.8588 C   0  0  0  0  0  0  0  0  0  0  0  0
    6.6516    0.6051   17.6336 N   0  0  0  0  0  0  0  0  0  0  0  0
    7.2341   -0.0278   18.6537 C   0  0  0  0  0  0  0  0  0  0  0  0
    8.1648   -0.5428   18.4233 H   0  0  0  0  0  0  0  0  0  0  0  0
    5.0506    1.7537   17.0014 H   0  0  0  0  0  0  0  0  0  0  0  0
    3.9404    1.8305   19.2329 H   0  0  0  0  0  0  0  0  0  0  0  0
    5.0304    0.6196   21.1798 H   0  0  0  0  0  0  0  0  0  0  0  0
    8.5504   -1.3215   20.8217 N   0  0  0  0  0  0  0  0  0  0  0  0
    8.8133   -1.8211   22.0249 C   0  0  0  0  0  0  0  0  0  0  0  0
    9.7195   -2.3641   22.2573 H   0  0  0  0  0  0  0  0  0  0  0  0
    8.0143   -2.6535   24.5636 H   0  0  0  0  0  0  0  0  0  0  0  0
    6.2407   -2.0219   26.2605 C   0  0  0  0  0  0  0  0  0  0  0  0
    5.7140   -1.2676   27.3416 C   0  0  0  0  0  0  0  0  0  0  0  0
    5.1999   -1.8933   28.4833 C   0  0  0  0  0  0  0  0  0  0  0  0
    5.2029   -3.2895   28.5743 C   0  0  0  0  0  0  0  0  0  0  0  0
    5.7567   -4.0312   27.5268 C   0  0  0  0  0  0  0  0  0  0  0  0
    6.2611   -3.4243   26.3616 C   0  0  0  0  0  0  0  0  0  0  0  0
    6.7100   -4.5362   25.4173 C   0  0  0  0  0  0  0  0  0  0  0  0
    6.3498   -5.8485   26.1697 C   0  0  0  0  0  0  0  0  0  0  0  0
    5.9473   -5.3929   27.4974 N   0  0  0  0  0  0  0  0  0  0  0  0
    5.4080   -5.9725   28.1186 H   0  0  0  0  0  0  0  0  0  0  0  0
    5.5411   -6.4122   25.6769 H   0  0  0  0  0  0  0  0  0  0  0  0
    7.2240   -6.5130   26.2371 H   0  0  0  0  0  0  0  0  0  0  0  0
    6.2179   -4.4558   24.4425 H   0  0  0  0  0  0  0  0  0  0  0  0
    7.7928   -4.5168   25.2362 H   0  0  0  0  0  0  0  0  0  0  0  0
    4.7924   -3.8093   29.4317 H   0  0  0  0  0  0  0  0  0  0  0  0
    4.7922   -1.2871   29.2971 H   0  0  0  0  0  0  0  0  0  0  0  0
    5.6963   -0.1839   27.2672 H   0  0  0  0  0  0  0  0  0  0  0  0
  1  2  2  0
  2  3  1  0
  3  4  1  0
  4  5  2  0
  5  6  1  0
  6  7  1  0
  7  8  2  0
  8  9  1  0
  9 10  2  0
 10 11  1  0
 11 12  2  0
 12 13  1  0
 10 14  1  0
  9 15  1  0
  8 16  1  0
  6 17  1  0
 17 18  2  0
 18 19  1  0
  3 20  1  0
  2 21  1  0
 21 22  2  0
 22 23  1  0
 23 24  2  0
 24 25  1  0
 25 26  2  0
 26 27  1  0
 27 28  1  0
 28 29  1  0
 29 30  1  0
 28 31  1  0
 28 32  1  0
 27 33  1  0
 27 34  1  0
 24 35  1  0
 23 36  1  0
 22 37  1  0
 18  4  1  0
 26 21  1  0
 12  7  1  0
 29 25  1  0
M  END
>  <cnnaffinity>  (1) 
-5.39909

>  <filename>  (1) 
O=C(Nc1cnn(-c2cccnc2)n1)c1cccc2c1CCN2

$$$$
