
     RDKit          3D

 35 37  0  0  0  0  0  0  0  0999 V2000
    9.6525    0.8288   20.4866 O   0  0  0  0  0  0  0  0  0  0  0  0
    9.0888    1.0033   21.5566 C   0  0  0  0  0  0  0  0  0  0  0  0
    9.4685    2.0369   22.5433 C   0  0  0  0  0  0  0  0  0  0  0  0
   10.4488    2.9331   22.3705 C   0  0  0  0  0  0  0  0  0  0  0  0
   10.7588    4.0107   23.3102 C   0  0  0  0  0  0  0  0  0  0  0  0
   10.1452    4.2272   24.5067 C   0  0  0  0  0  0  0  0  0  0  0  0
   10.7610    5.5803   25.3814 S   0  0  0  0  0  0  0  0  0  0  0  0
   11.9144    5.9297   24.1269 C   0  0  0  0  0  0  0  0  0  0  0  0
   12.8475    6.9867   24.1025 C   0  0  0  0  0  0  0  0  0  0  0  0
   13.6893    7.0803   22.9943 C   0  0  0  0  0  0  0  0  0  0  0  0
   13.6310    6.1383   21.9469 C   0  0  0  0  0  0  0  0  0  0  0  0
   12.7005    5.1088   21.9754 C   0  0  0  0  0  0  0  0  0  0  0  0
   11.8145    4.9936   23.0707 C   0  0  0  0  0  0  0  0  0  0  0  0
   12.6662    4.3911   21.1583 H   0  0  0  0  0  0  0  0  0  0  0  0
   14.3279    6.2186   21.1165 H   0  0  0  0  0  0  0  0  0  0  0  0
   14.4515    7.8511   22.9391 H   0  0  0  0  0  0  0  0  0  0  0  0
   12.8900    7.7115   24.9155 H   0  0  0  0  0  0  0  0  0  0  0  0
    9.3715    3.6290   24.9711 H   0  0  0  0  0  0  0  0  0  0  0  0
   11.0685    2.8859   21.4692 H   0  0  0  0  0  0  0  0  0  0  0  0
    8.8865    2.0286   23.4580 H   0  0  0  0  0  0  0  0  0  0  0  0
    8.0424    0.2157   21.9587 N   0  0  0  0  0  0  0  0  0  0  0  0
    7.3904   -0.6941   21.0297 C   0  0  0  0  0  0  0  0  0  0  0  0
    6.6511    0.0114   19.9088 C   0  0  0  0  0  0  0  0  0  0  0  0
    5.4184    0.6433   20.1160 C   0  0  0  0  0  0  0  0  0  0  0  0
    4.8105    1.2992   19.0428 C   0  0  0  0  0  0  0  0  0  0  0  0
    5.4515    1.2952   17.7990 C   0  0  0  0  0  0  0  0  0  0  0  0
    6.6304    0.6965   17.5760 N   0  0  0  0  0  0  0  0  0  0  0  0
    7.2109    0.0923   18.6222 C   0  0  0  0  0  0  0  0  0  0  0  0
    8.1813   -0.3644   18.4248 H   0  0  0  0  0  0  0  0  0  0  0  0
    5.0023    1.7936   16.9409 H   0  0  0  0  0  0  0  0  0  0  0  0
    3.8665    1.8226   19.1605 H   0  0  0  0  0  0  0  0  0  0  0  0
    4.9461    0.6210   21.1017 H   0  0  0  0  0  0  0  0  0  0  0  0
    6.7101   -1.3327   21.6083 H   0  0  0  0  0  0  0  0  0  0  0  0
    8.1561   -1.3468   20.6020 H   0  0  0  0  0  0  0  0  0  0  0  0
    7.4935    0.6008   22.7025 H   0  0  0  0  0  0  0  0  0  0  0  0
  1  2  2  0
  2  3  1  0
  3  4  2  3
  4  5  1  0
  5  6  2  0
  6  7  1  0
  7  8  1  0
  8  9  2  0
  9 10  1  0
 10 11  2  0
 11 12  1  0
 12 13  2  0
 12 14  1  0
 11 15  1  0
 10 16  1  0
  9 17  1  0
  6 18  1  0
  4 19  1  0
  3 20  1  0
  2 21  1  0
 21 22  1  0
 22 23  1  0
 23 24  2  0
 24 25  1  0
 25 26  2  0
 26 27  1  0
 27 28  2  0
 28 29  1  0
 26 30  1  0
 25 31  1  0
 24 32  1  0
 22 33  1  0
 22 34  1  0
 21 35  1  0
 13  5  1  0
 28 23  1  0
 13  8  1  0
M  END
>  <cnnaffinity>  (1) 
-5.21507

>  <filename>  (1) 
O=C(C=Cc1csc2ccccc12)NCc1cccnc1

$$$$
