
     RDKit          3D

 33 35  0  0  0  0  0  0  0  0999 V2000
    5.7813   -2.2331   21.5023 O   0  0  0  0  0  0  0  0  0  0  0  0
    6.7844   -1.6140   21.7807 C   0  0  0  0  0  0  0  0  0  0  0  0
    7.5681   -1.8244   23.0892 C   0  0  0  0  0  0  0  0  0  0  0  0
    7.5171   -0.6813   24.1171 C   0  0  0  0  0  0  0  0  0  0  0  0
    6.5227   -0.5838   25.0354 C   0  0  0  0  0  0  0  0  0  0  0  0
    6.4942    0.4926   26.0117 C   0  0  0  0  0  0  0  0  0  0  0  0
    5.4819    0.6514   26.9931 C   0  0  0  0  0  0  0  0  0  0  0  0
    5.5102    1.7317   27.8695 C   0  0  0  0  0  0  0  0  0  0  0  0
    6.5527    2.6777   27.7940 C   0  0  0  0  0  0  0  0  0  0  0  0
    7.5700    2.5369   26.8499 C   0  0  0  0  0  0  0  0  0  0  0  0
    7.5358    1.4436   25.9746 C   0  0  0  0  0  0  0  0  0  0  0  0
    8.5604    1.3511   25.0660 O   0  0  0  0  0  0  0  0  0  0  0  0
    8.6029    0.3637   24.1112 C   0  0  0  0  0  0  0  0  0  0  0  0
    9.5029    0.3819   23.3089 O   0  0  0  0  0  0  0  0  0  0  0  0
    8.3884    3.2480   26.7671 H   0  0  0  0  0  0  0  0  0  0  0  0
    6.5646    3.5209   28.4824 H   0  0  0  0  0  0  0  0  0  0  0  0
    4.7248    1.8494   28.6132 H   0  0  0  0  0  0  0  0  0  0  0  0
    4.6747   -0.0767   27.0470 H   0  0  0  0  0  0  0  0  0  0  0  0
    5.7413   -1.3484   25.0631 H   0  0  0  0  0  0  0  0  0  0  0  0
    7.1540   -2.7419   23.5265 H   0  0  0  0  0  0  0  0  0  0  0  0
    8.6062   -2.0348   22.8030 H   0  0  0  0  0  0  0  0  0  0  0  0
    7.3853   -0.7115   20.9274 N   0  0  0  0  0  0  0  0  0  0  0  0
    6.7139   -0.0195   19.8716 C   0  0  0  0  0  0  0  0  0  0  0  0
    5.4955    0.6203   20.1283 C   0  0  0  0  0  0  0  0  0  0  0  0
    4.8534    1.2976   19.0856 C   0  0  0  0  0  0  0  0  0  0  0  0
    5.4382    1.2980   17.8159 C   0  0  0  0  0  0  0  0  0  0  0  0
    6.6081    0.6915   17.5488 N   0  0  0  0  0  0  0  0  0  0  0  0
    7.2296    0.0608   18.5571 C   0  0  0  0  0  0  0  0  0  0  0  0
    8.1758   -0.4245   18.3105 H   0  0  0  0  0  0  0  0  0  0  0  0
    4.9489    1.8014   16.9840 H   0  0  0  0  0  0  0  0  0  0  0  0
    3.9107    1.8086   19.2486 H   0  0  0  0  0  0  0  0  0  0  0  0
    5.0824    0.5774   21.1377 H   0  0  0  0  0  0  0  0  0  0  0  0
    8.2548   -0.3289   21.2645 H   0  0  0  0  0  0  0  0  0  0  0  0
  1  2  2  0
  2  3  1  0
  3  4  1  0
  4  5  2  0
  5  6  1  0
  6  7  2  0
  7  8  1  0
  8  9  2  0
  9 10  1  0
 10 11  2  0
 11 12  1  0
 12 13  1  0
 13 14  2  0
 10 15  1  0
  9 16  1  0
  8 17  1  0
  7 18  1  0
  5 19  1  0
  3 20  1  0
  3 21  1  0
  2 22  1  0
 22 23  1  0
 23 24  2  0
 24 25  1  0
 25 26  2  0
 26 27  1  0
 27 28  2  0
 28 29  1  0
 26 30  1  0
 25 31  1  0
 24 32  1  0
 22 33  1  0
 13  4  1  0
 28 23  1  0
 11  6  1  0
M  END
>  <cnnaffinity>  (1) 
-5.04678

>  <filename>  (1) 
O=C(Cc1cc2ccccc2oc1=O)Nc1cccnc1

$$$$
