
     RDKit          3D

 30 32  0  0  0  0  0  0  0  0999 V2000
    4.9846    1.7936   17.0061 H   0  0  0  0  0  0  0  0  0  0  0  0
    5.4619    1.2982   17.8474 C   0  0  0  0  0  0  0  0  0  0  0  0
    6.6244    0.6820   17.5760 N   0  0  0  0  0  0  0  0  0  0  0  0
    7.2321    0.0558   18.5912 C   0  0  0  0  0  0  0  0  0  0  0  0
    8.1751   -0.4488   18.3891 H   0  0  0  0  0  0  0  0  0  0  0  0
    6.7195    0.0011   19.8923 C   0  0  0  0  0  0  0  0  0  0  0  0
    7.4740   -0.6751   20.9068 N   0  0  0  0  0  0  0  0  0  0  0  0
    7.2880   -1.9226   21.4644 C   0  0  0  0  0  0  0  0  0  0  0  0
    6.2247   -2.8506   20.9513 C   0  0  0  0  0  0  0  0  0  0  0  0
    5.5615   -2.5844   19.9646 O   0  0  0  0  0  0  0  0  0  0  0  0
    5.9883   -4.1142   21.7296 C   0  0  0  0  0  0  0  0  0  0  0  0
    4.6732   -4.4231   22.1093 C   0  0  0  0  0  0  0  0  0  0  0  0
    3.8822   -3.7032   21.9280 H   0  0  0  0  0  0  0  0  0  0  0  0
    4.3836   -5.6270   22.7445 C   0  0  0  0  0  0  0  0  0  0  0  0
    3.3739   -5.8725   23.0516 H   0  0  0  0  0  0  0  0  0  0  0  0
    5.4112   -6.5388   22.9839 C   0  0  0  0  0  0  0  0  0  0  0  0
    5.0211   -8.0448   23.7543 Cl  0  0  0  0  0  0  0  0  0  0  0  0
    6.7312   -6.2483   22.6260 C   0  0  0  0  0  0  0  0  0  0  0  0
    7.5106   -6.9791   22.8048 H   0  0  0  0  0  0  0  0  0  0  0  0
    7.0240   -5.0109   22.0465 C   0  0  0  0  0  0  0  0  0  0  0  0
    8.0607   -4.7156   21.9016 H   0  0  0  0  0  0  0  0  0  0  0  0
    8.1807   -2.1607   22.4125 N   0  0  0  0  0  0  0  0  0  0  0  0
    8.9636   -1.0454   22.4654 C   0  0  0  0  0  0  0  0  0  0  0  0
    9.7760   -0.9528   23.1717 H   0  0  0  0  0  0  0  0  0  0  0  0
    8.5685   -0.1320   21.5267 C   0  0  0  0  0  0  0  0  0  0  0  0
    8.9509    0.8292   21.2151 H   0  0  0  0  0  0  0  0  0  0  0  0
    5.5079    0.6457   20.1674 C   0  0  0  0  0  0  0  0  0  0  0  0
    5.1078    0.6387   21.1821 H   0  0  0  0  0  0  0  0  0  0  0  0
    4.8606    1.3023   19.1127 C   0  0  0  0  0  0  0  0  0  0  0  0
    3.9172    1.8232   19.2630 H   0  0  0  0  0  0  0  0  0  0  0  0
  1  2  1  0
  2  3  2  0
  3  4  1  0
  4  5  1  0
  4  6  2  0
  6  7  1  0
  7  8  1  0
  8  9  1  0
  9 10  2  0
  9 11  1  0
 11 12  2  0
 12 13  1  0
 12 14  1  0
 14 15  1  0
 14 16  2  0
 16 17  1  0
 16 18  1  0
 18 19  1  0
 18 20  2  0
 20 21  1  0
  8 22  2  0
 22 23  1  0
 23 24  1  0
 23 25  2  0
 25 26  1  0
  6 27  1  0
 27 28  1  0
 27 29  2  0
 29 30  1  0
 29  2  1  0
 25  7  1  0
 20 11  1  0
M  END
>  <cnnaffinity>  (1) 
-4.77491

>  <filename>  (1) 
O=C(c1ccc(Cl)cc1)c1nccn1-c1cccnc1

$$$$
