
     RDKit          3D

 44 47  0  0  0  0  0  0  0  0999 V2000
   11.7788   -1.1207   20.9788 O   0  0  0  0  0  0  0  0  0  0  0  0
   11.1127   -1.4377   21.9366 C   0  0  0  0  0  0  0  0  0  0  0  0
   10.0429   -2.4952   21.8883 C   0  0  0  0  0  0  0  0  0  0  0  0
    8.7497   -1.7993   22.0159 C   0  0  0  0  0  0  0  0  0  0  0  0
    7.9670   -1.6605   23.1153 C   0  0  0  0  0  0  0  0  0  0  0  0
    6.6337   -0.6277   22.7386 S   0  0  0  0  0  0  0  0  0  0  0  0
    7.2122   -0.5211   21.0967 C   0  0  0  0  0  0  0  0  0  0  0  0
    6.5245    0.1517   19.9925 C   0  0  0  0  0  0  0  0  0  0  0  0
    5.2919    0.8133   20.1065 C   0  0  0  0  0  0  0  0  0  0  0  0
    4.7587    1.3962   18.9564 C   0  0  0  0  0  0  0  0  0  0  0  0
    5.4639    1.2967   17.7512 C   0  0  0  0  0  0  0  0  0  0  0  0
    6.6324    0.6507   17.6292 N   0  0  0  0  0  0  0  0  0  0  0  0
    7.1426    0.0950   18.7286 C   0  0  0  0  0  0  0  0  0  0  0  0
    8.0896   -0.4292   18.6159 H   0  0  0  0  0  0  0  0  0  0  0  0
    5.0792    1.7491   16.8389 H   0  0  0  0  0  0  0  0  0  0  0  0
    3.8195    1.9372   18.9780 H   0  0  0  0  0  0  0  0  0  0  0  0
    4.7664    0.8726   21.0619 H   0  0  0  0  0  0  0  0  0  0  0  0
    8.3439   -1.1327   20.9074 N   0  0  0  0  0  0  0  0  0  0  0  0
    8.0856   -2.1487   24.0697 H   0  0  0  0  0  0  0  0  0  0  0  0
   10.1815   -3.2706   22.6452 H   0  0  0  0  0  0  0  0  0  0  0  0
   10.0592   -2.9026   20.8842 H   0  0  0  0  0  0  0  0  0  0  0  0
   11.2684   -0.8591   23.1716 N   0  0  0  0  0  0  0  0  0  0  0  0
   11.9965    0.3452   23.3219 C   0  0  0  0  0  0  0  0  0  0  0  0
   13.3375    0.3408   22.9644 C   0  0  0  0  0  0  0  0  0  0  0  0
   14.0397    1.5465   22.9012 C   0  0  0  0  0  0  0  0  0  0  0  0
   13.3780    2.7487   23.1640 C   0  0  0  0  0  0  0  0  0  0  0  0
   12.0443    2.7493   23.6105 C   0  0  0  0  0  0  0  0  0  0  0  0
   11.3647    1.5222   23.7616 C   0  0  0  0  0  0  0  0  0  0  0  0
    9.9577    1.4706   24.3261 C   0  0  0  0  0  0  0  0  0  0  0  0
    9.6957    2.7163   25.1362 N   0  0  0  0  0  4  0  0  0  0  0  0
    9.8824    3.9320   24.2377 C   0  0  0  0  0  0  0  0  0  0  0  0
   11.3767    4.0741   23.9345 C   0  0  0  0  0  0  0  0  0  0  0  0
   11.5287    4.7533   23.0873 H   0  0  0  0  0  0  0  0  0  0  0  0
   11.9040    4.5210   24.7896 H   0  0  0  0  0  0  0  0  0  0  0  0
    9.3473    3.7477   23.3013 H   0  0  0  0  0  0  0  0  0  0  0  0
    9.4787    4.8369   24.6988 H   0  0  0  0  0  0  0  0  0  0  0  0
   10.4902    2.7351   25.8146 H   0  0  0  0  0  0  0  0  0  0  0  0
    8.8018    2.6980   25.6493 H   0  0  0  0  0  0  0  0  0  0  0  0
    9.8377    0.5939   24.9661 H   0  0  0  0  0  0  0  0  0  0  0  0
    9.2303    1.3861   23.5099 H   0  0  0  0  0  0  0  0  0  0  0  0
   13.9052    3.6932   23.0236 H   0  0  0  0  0  0  0  0  0  0  0  0
   15.0798    1.5501   22.5821 H   0  0  0  0  0  0  0  0  0  0  0  0
   13.7916   -0.6086   22.7010 H   0  0  0  0  0  0  0  0  0  0  0  0
   10.5234   -1.0236   23.8194 H   0  0  0  0  0  0  0  0  0  0  0  0
  1  2  2  0
  2  3  1  0
  3  4  1  0
  4  5  2  0
  5  6  1  0
  6  7  1  0
  7  8  1  0
  8  9  2  0
  9 10  1  0
 10 11  2  0
 11 12  1  0
 12 13  2  0
 13 14  1  0
 11 15  1  0
 10 16  1  0
  9 17  1  0
  7 18  2  0
  5 19  1  0
  3 20  1  0
  3 21  1  0
  2 22  1  0
 22 23  1  0
 23 24  2  0
 24 25  1  0
 25 26  2  0
 26 27  1  0
 27 28  2  0
 28 29  1  0
 29 30  1  0
 30 31  1  0
 31 32  1  0
 32 33  1  0
 32 34  1  0
 31 35  1  0
 31 36  1  0
 30 37  1  0
 30 38  1  0
 29 39  1  0
 29 40  1  0
 26 41  1  0
 25 42  1  0
 24 43  1  0
 22 44  1  0
 18  4  1  0
 28 23  1  0
 13  8  1  0
 32 27  1  0
M  CHG  1  30   1
M  END
>  <cnnaffinity>  (1) 
-5.95017

>  <filename>  (1) 
O=C(Cc1csc(-c2cccnc2)n1)Nc1cccc2c1C[NH2+]CC2

$$$$
