
     RDKit          3D

 31 32  0  0  0  0  0  0  0  0999 V2000
    7.4080   -4.5711   21.3027 O   0  0  0  0  0  0  0  0  0  0  0  0
    7.1407   -4.1643   22.4342 C   0  0  0  0  0  0  0  0  0  0  0  0
    7.8628   -3.0543   22.8869 N   0  0  0  0  0  0  0  0  0  0  0  0
    8.8526   -2.3600   22.0589 C   0  0  0  0  0  0  0  0  0  0  0  0
    8.2179   -1.6024   20.9180 C   0  0  0  0  0  0  0  0  0  0  0  0
    7.2816   -0.6155   21.0875 C   0  0  0  0  0  0  0  0  0  0  0  0
    6.6432    0.0397   19.9391 C   0  0  0  0  0  0  0  0  0  0  0  0
    5.4362    0.6875   20.1525 C   0  0  0  0  0  0  0  0  0  0  0  0
    4.8164    1.3135   19.0781 C   0  0  0  0  0  0  0  0  0  0  0  0
    5.4079    1.2897   17.8139 C   0  0  0  0  0  0  0  0  0  0  0  0
    6.5674    0.6411   17.5826 N   0  0  0  0  0  0  0  0  0  0  0  0
    7.1693    0.0310   18.6277 C   0  0  0  0  0  0  0  0  0  0  0  0
    8.1151   -0.4682   18.4330 H   0  0  0  0  0  0  0  0  0  0  0  0
    4.9077    1.8161   17.0048 H   0  0  0  0  0  0  0  0  0  0  0  0
    3.8809    1.8366   19.2216 H   0  0  0  0  0  0  0  0  0  0  0  0
    4.9962    0.6894   21.1440 H   0  0  0  0  0  0  0  0  0  0  0  0
    6.9687   -0.3367   22.0942 H   0  0  0  0  0  0  0  0  0  0  0  0
    8.5129   -1.8159   19.8971 H   0  0  0  0  0  0  0  0  0  0  0  0
    9.5743   -3.0776   21.6582 H   0  0  0  0  0  0  0  0  0  0  0  0
    9.4096   -1.6570   22.6834 H   0  0  0  0  0  0  0  0  0  0  0  0
    7.5584   -2.6086   23.7513 H   0  0  0  0  0  0  0  0  0  0  0  0
    6.1170   -4.8722   23.3051 C   0  0  0  0  0  0  0  0  0  0  0  0
    4.9101   -5.2887   22.8160 N   0  0  0  0  0  0  0  0  0  0  0  0
    4.0255   -5.9163   23.6212 C   0  0  0  0  0  0  0  0  0  0  0  0
    4.2851   -6.1655   24.9724 C   0  0  0  0  0  0  0  0  0  0  0  0
    2.9774   -7.0448   26.0608 Br  0  0  0  0  0  0  0  0  0  0  0  0
    5.5052   -5.7567   25.5086 C   0  0  0  0  0  0  0  0  0  0  0  0
    6.4228   -5.1077   24.6689 C   0  0  0  0  0  0  0  0  0  0  0  0
    7.9704   -4.6339   25.3269 Cl  0  0  0  0  0  0  0  0  0  0  0  0
    5.7372   -5.9442   26.5587 H   0  0  0  0  0  0  0  0  0  0  0  0
    3.0791   -6.2430   23.2004 H   0  0  0  0  0  0  0  0  0  0  0  0
  1  2  2  0
  2  3  1  0
  3  4  1  0
  4  5  1  0
  5  6  2  3
  6  7  1  0
  7  8  2  0
  8  9  1  0
  9 10  2  0
 10 11  1  0
 11 12  2  0
 12 13  1  0
 10 14  1  0
  9 15  1  0
  8 16  1  0
  6 17  1  0
  5 18  1  0
  4 19  1  0
  4 20  1  0
  3 21  1  0
  2 22  1  0
 22 23  2  0
 23 24  1  0
 24 25  2  0
 25 26  1  0
 25 27  1  0
 27 28  2  0
 28 29  1  0
 27 30  1  0
 24 31  1  0
 12  7  1  0
 28 22  1  0
M  END
>  <cnnaffinity>  (1) 
-5.41222

>  <filename>  (1) 
O=C(NCC=Cc1cccnc1)c1ncc(Br)cc1Cl

$$$$
