
     RDKit          3D

 39 42  0  0  0  0  0  0  0  0999 V2000
    5.0150    1.7925   16.9044 H   0  0  0  0  0  0  0  0  0  0  0  0
    5.4715    1.3133   17.7656 C   0  0  0  0  0  0  0  0  0  0  0  0
    6.6314    0.6803   17.5355 N   0  0  0  0  0  0  0  0  0  0  0  0
    7.2108    0.0483   18.5586 C   0  0  0  0  0  0  0  0  0  0  0  0
    8.1530   -0.4577   18.3386 H   0  0  0  0  0  0  0  0  0  0  0  0
    6.6576    0.0117   19.8446 C   0  0  0  0  0  0  0  0  0  0  0  0
    7.2960   -0.7265   20.9366 C   0  0  0  0  0  0  0  0  0  0  0  0
    6.6704   -0.8856   22.0540 N   0  0  0  0  0  0  0  0  0  0  0  0
    7.4552   -1.5590   22.9364 N   0  0  0  0  0  0  0  0  0  0  0  0
    7.3641   -2.0898   24.1976 C   0  0  0  0  0  0  0  0  0  0  0  0
    6.2806   -2.0579   25.0669 N   0  0  0  0  0  0  0  0  0  0  0  0
    6.3940   -2.7506   25.7914 H   0  0  0  0  0  0  0  0  0  0  0  0
    5.6250   -0.8824   25.3938 C   0  0  0  0  0  0  0  0  0  0  0  0
    5.9878    0.1836   24.9575 O   0  0  0  0  0  0  0  0  0  0  0  0
    4.3887   -1.0323   26.2811 C   0  0  0  0  0  0  0  0  0  0  0  0
    4.3248   -2.0743   26.6148 H   0  0  0  0  0  0  0  0  0  0  0  0
    3.1310   -0.7227   25.4205 C   0  0  0  0  0  0  0  0  0  0  0  0
    3.3552    0.1672   24.8166 H   0  0  0  0  0  0  0  0  0  0  0  0
    2.9696   -1.5613   24.7347 H   0  0  0  0  0  0  0  0  0  0  0  0
    1.8234   -0.4827   26.1957 C   0  0  0  0  0  0  0  0  0  0  0  0
    1.3471   -1.4368   26.4688 H   0  0  0  0  0  0  0  0  0  0  0  0
    1.1211    0.0147   25.5174 H   0  0  0  0  0  0  0  0  0  0  0  0
    2.0235    0.3819   27.4463 C   0  0  0  0  0  0  0  0  0  0  0  0
    1.0926    0.4600   28.0238 H   0  0  0  0  0  0  0  0  0  0  0  0
    2.2716    1.4097   27.1413 H   0  0  0  0  0  0  0  0  0  0  0  0
    3.1747   -0.1508   28.3097 C   0  0  0  0  0  0  0  0  0  0  0  0
    2.9580   -1.1848   28.6214 H   0  0  0  0  0  0  0  0  0  0  0  0
    3.2669    0.4289   29.2319 H   0  0  0  0  0  0  0  0  0  0  0  0
    4.4934   -0.1237   27.5253 C   0  0  0  0  0  0  0  0  0  0  0  0
    5.3302   -0.4411   28.1642 H   0  0  0  0  0  0  0  0  0  0  0  0
    4.7272    0.9017   27.1980 H   0  0  0  0  0  0  0  0  0  0  0  0
    8.4245   -2.7896   24.4591 N   0  0  0  0  0  0  0  0  0  0  0  0
    9.2825   -2.7201   23.3726 N   0  0  0  0  0  0  0  0  0  0  0  0
    8.6712   -1.9989   22.4858 C   0  0  0  0  0  0  0  0  0  0  0  0
    8.9239   -1.4400   20.8586 S   0  0  0  0  0  0  0  0  0  0  0  0
    5.4474    0.6934   20.0817 C   0  0  0  0  0  0  0  0  0  0  0  0
    5.0192    0.6949   21.0847 H   0  0  0  0  0  0  0  0  0  0  0  0
    4.8418    1.3517   19.0161 C   0  0  0  0  0  0  0  0  0  0  0  0
    3.9058    1.8843   19.1395 H   0  0  0  0  0  0  0  0  0  0  0  0
  1  2  1  0
  2  3  2  0
  3  4  1  0
  4  5  1  0
  4  6  2  0
  6  7  1  0
  7  8  2  0
  8  9  1  0
  9 10  1  0
 10 11  1  0
 11 12  1  0
 11 13  1  0
 13 14  2  0
 13 15  1  0
 15 16  1  0
 15 17  1  0
 17 18  1  0
 17 19  1  0
 17 20  1  0
 20 21  1  0
 20 22  1  0
 20 23  1  0
 23 24  1  0
 23 25  1  0
 23 26  1  0
 26 27  1  0
 26 28  1  0
 26 29  1  0
 29 30  1  0
 29 31  1  0
 10 32  2  0
 32 33  1  0
 33 34  2  0
 34 35  1  0
  6 36  1  0
 36 37  1  0
 36 38  2  0
 38 39  1  0
 38  2  1  0
 35  7  1  0
 34  9  1  0
 29 15  1  0
M  END
>  <cnnaffinity>  (1) 
-5.43862

>  <filename>  (1) 
O=C(Nc1nnc2sc(-c3cccnc3)nn12)C1CCCCC1

$$$$
