
     RDKit          3D

 32 34  0  0  0  0  0  0  0  0999 V2000
    4.9467    1.8455   16.8907 H   0  0  0  0  0  0  0  0  0  0  0  0
    5.4223    1.3552   17.7375 C   0  0  0  0  0  0  0  0  0  0  0  0
    6.5969    0.7503   17.4859 N   0  0  0  0  0  0  0  0  0  0  0  0
    7.1851    0.0992   18.4992 C   0  0  0  0  0  0  0  0  0  0  0  0
    8.1387   -0.3796   18.2763 H   0  0  0  0  0  0  0  0  0  0  0  0
    6.6279   -0.0094   19.7966 C   0  0  0  0  0  0  0  0  0  0  0  0
    7.2221   -0.7912   20.8290 N   0  0  0  0  0  0  0  0  0  0  0  0
    8.1596   -0.5595   21.1083 H   0  0  0  0  0  0  0  0  0  0  0  0
    6.6004   -1.7046   21.6651 C   0  0  0  0  0  0  0  0  0  0  0  0
    5.5743   -2.3000   21.3913 O   0  0  0  0  0  0  0  0  0  0  0  0
    7.3948   -1.9078   22.9588 C   0  0  0  0  0  0  0  0  0  0  0  0
    8.6305   -1.4234   23.2804 C   0  0  0  0  0  0  0  0  0  0  0  0
    9.2863   -0.7563   22.7437 H   0  0  0  0  0  0  0  0  0  0  0  0
    9.0018   -1.8475   24.6074 C   0  0  0  0  0  0  0  0  0  0  0  0
    9.9880   -1.5582   25.2540 O   0  0  0  0  0  0  0  0  0  0  0  0
    7.9013   -2.6521   25.0192 N   0  0  0  0  0  0  0  0  0  0  0  0
    7.7516   -3.4542   26.1881 C   0  0  0  0  0  0  0  0  0  0  0  0
    6.5088   -3.5694   26.8529 C   0  0  0  0  0  0  0  0  0  0  0  0
    5.6562   -2.9901   26.5005 H   0  0  0  0  0  0  0  0  0  0  0  0
    6.3141   -4.3260   27.9361 N   0  0  0  0  0  0  0  0  0  0  0  0
    7.3624   -5.0166   28.4071 C   0  0  0  0  0  0  0  0  0  0  0  0
    7.1847   -5.6022   29.3076 H   0  0  0  0  0  0  0  0  0  0  0  0
    8.6315   -4.9650   27.8238 C   0  0  0  0  0  0  0  0  0  0  0  0
    9.4357   -5.5460   28.2534 H   0  0  0  0  0  0  0  0  0  0  0  0
    8.8483   -4.1571   26.7049 C   0  0  0  0  0  0  0  0  0  0  0  0
    9.8332   -4.0706   26.2457 H   0  0  0  0  0  0  0  0  0  0  0  0
    6.9248   -2.6064   24.0462 N   0  0  0  0  0  0  0  0  0  0  0  0
    6.0961   -3.1771   24.1492 H   0  0  0  0  0  0  0  0  0  0  0  0
    5.4313    0.6691   20.0511 C   0  0  0  0  0  0  0  0  0  0  0  0
    5.0147    0.6557   21.0586 H   0  0  0  0  0  0  0  0  0  0  0  0
    4.8181    1.3569   18.9991 C   0  0  0  0  0  0  0  0  0  0  0  0
    3.8729    1.8660   19.1455 H   0  0  0  0  0  0  0  0  0  0  0  0
  1  2  1  0
  2  3  2  0
  3  4  1  0
  4  5  1  0
  4  6  2  0
  6  7  1  0
  7  8  1  0
  7  9  1  0
  9 10  2  0
  9 11  1  0
 11 12  2  0
 12 13  1  0
 12 14  1  0
 14 15  2  0
 14 16  1  0
 16 17  1  0
 17 18  2  0
 18 19  1  0
 18 20  1  0
 20 21  2  0
 21 22  1  0
 21 23  1  0
 23 24  1  0
 23 25  2  0
 25 26  1  0
 16 27  1  0
 27 28  1  0
  6 29  1  0
 29 30  1  0
 29 31  2  0
 31 32  1  0
 31  2  1  0
 27 11  1  0
 25 17  1  0
M  END
>  <cnnaffinity>  (1) 
-4.98837

>  <filename>  (1) 
O=C(Nc1cccnc1)c1cc(=O)n(-c2cccnc2)[nH]1

$$$$
