
     RDKit          3D

 27 29  0  0  0  0  0  0  0  0999 V2000
    5.8687   -2.1784   21.5563 O   0  0  0  0  0  0  0  0  0  0  0  0
    6.8766   -1.5462   21.8179 C   0  0  0  0  0  0  0  0  0  0  0  0
    7.4415   -0.6495   20.9417 N   0  0  0  0  0  0  0  0  0  0  0  0
    6.7260   -0.0125   19.8811 C   0  0  0  0  0  0  0  0  0  0  0  0
    5.5024    0.6190   20.1327 C   0  0  0  0  0  0  0  0  0  0  0  0
    4.8631    1.2890   19.0809 C   0  0  0  0  0  0  0  0  0  0  0  0
    5.4481    1.2889   17.8116 C   0  0  0  0  0  0  0  0  0  0  0  0
    6.6167    0.6796   17.5482 N   0  0  0  0  0  0  0  0  0  0  0  0
    7.2343    0.0581   18.5646 C   0  0  0  0  0  0  0  0  0  0  0  0
    8.1804   -0.4241   18.3283 H   0  0  0  0  0  0  0  0  0  0  0  0
    4.9640    1.7924   16.9763 H   0  0  0  0  0  0  0  0  0  0  0  0
    3.9194    1.7974   19.2353 H   0  0  0  0  0  0  0  0  0  0  0  0
    5.0844    0.5742   21.1398 H   0  0  0  0  0  0  0  0  0  0  0  0
    8.2623   -0.1888   21.3402 H   0  0  0  0  0  0  0  0  0  0  0  0
    7.5661   -1.7297   23.1227 C   0  0  0  0  0  0  0  0  0  0  0  0
    7.1588   -2.6146   24.0841 C   0  0  0  0  0  0  0  0  0  0  0  0
    8.0593   -2.5408   25.5455 S   0  0  0  0  0  0  0  0  0  0  0  0
    9.0228   -1.2327   24.9261 C   0  0  0  0  0  0  0  0  0  0  0  0
   10.0294   -0.4904   25.5616 C   0  0  0  0  0  0  0  0  0  0  0  0
   10.6909    0.4682   24.7981 C   0  0  0  0  0  0  0  0  0  0  0  0
   10.2837    0.6975   23.4664 C   0  0  0  0  0  0  0  0  0  0  0  0
    9.3081    0.0223   22.8710 N   0  0  0  0  0  0  0  0  0  0  0  0
    8.6654   -0.9302   23.5915 C   0  0  0  0  0  0  0  0  0  0  0  0
   10.7723    1.4840   22.8871 H   0  0  0  0  0  0  0  0  0  0  0  0
   11.5190    1.0333   25.2056 H   0  0  0  0  0  0  0  0  0  0  0  0
   10.2889   -0.6674   26.6052 H   0  0  0  0  0  0  0  0  0  0  0  0
    6.3145   -3.2955   24.0320 H   0  0  0  0  0  0  0  0  0  0  0  0
  1  2  2  0
  2  3  1  0
  3  4  1  0
  4  5  2  0
  5  6  1  0
  6  7  2  0
  7  8  1  0
  8  9  2  0
  9 10  1  0
  7 11  1  0
  6 12  1  0
  5 13  1  0
  3 14  1  0
  2 15  1  0
 15 16  2  0
 16 17  1  0
 17 18  1  0
 18 19  2  0
 19 20  1  0
 20 21  2  0
 21 22  1  0
 22 23  2  0
 21 24  1  0
 20 25  1  0
 19 26  1  0
 16 27  1  0
  9  4  1  0
 23 15  1  0
 23 18  1  0
M  END
>  <cnnaffinity>  (1) 
-5.47681

>  <filename>  (1) 
O=C(Nc1cccnc1)c1csc2cccnc12

$$$$
