
     RDKit          3D

 40 42  0  0  0  0  0  0  0  0999 V2000
    5.6884   -2.4267   21.0138 O   0  0  0  0  0  0  0  0  0  0  0  0
    6.5357   -1.7536   21.5633 C   0  0  0  0  0  0  0  0  0  0  0  0
    6.9028   -1.9338   22.9071 N   0  0  0  0  0  0  0  0  0  0  0  0
    6.5791   -3.2394   23.4840 C   0  0  0  0  0  0  0  0  0  0  0  0
    7.2986   -3.4831   24.7998 C   0  0  0  0  0  0  0  0  0  0  0  0
    7.3626   -4.7985   25.2724 C   0  0  0  0  0  0  0  0  0  0  0  0
    7.9591   -5.0944   26.4956 C   0  0  0  0  0  0  0  0  0  0  0  0
    8.4876   -4.0580   27.2728 C   0  0  0  0  0  0  0  0  0  0  0  0
    8.4190   -2.7356   26.8298 C   0  0  0  0  0  0  0  0  0  0  0  0
    7.8400   -2.4444   25.5777 C   0  0  0  0  0  0  0  0  0  0  0  0
    7.8439   -1.0260   25.0380 C   0  0  0  0  0  0  0  0  0  0  0  0
    7.4944   -0.1432   26.0268 F   0  0  0  0  0  0  0  0  0  0  0  0
    9.1250   -0.6640   24.6824 F   0  0  0  0  0  0  0  0  0  0  0  0
    6.8862   -0.8053   23.8567 C   0  0  0  0  0  0  0  0  0  0  0  0
    7.1716    0.1370   23.3807 H   0  0  0  0  0  0  0  0  0  0  0  0
    5.8882   -0.6791   24.2991 H   0  0  0  0  0  0  0  0  0  0  0  0
    8.8082   -1.9240   27.4429 H   0  0  0  0  0  0  0  0  0  0  0  0
    8.9589   -4.3111   28.2154 H   0  0  0  0  0  0  0  0  0  0  0  0
    7.9986   -6.1243   26.8421 H   0  0  0  0  0  0  0  0  0  0  0  0
    6.9294   -5.5909   24.6690 H   0  0  0  0  0  0  0  0  0  0  0  0
    6.8857   -4.0229   22.7781 H   0  0  0  0  0  0  0  0  0  0  0  0
    5.4913   -3.3440   23.6362 H   0  0  0  0  0  0  0  0  0  0  0  0
    7.2787   -0.7544   20.8997 N   0  0  0  0  0  0  0  0  0  0  0  0
    8.6992   -0.5376   21.2194 C   0  0  0  0  0  0  0  0  0  0  0  0
    9.0924    0.9354   21.3372 C   0  0  0  0  0  0  0  0  0  0  0  0
    8.6443    1.4388   22.5289 F   0  0  0  0  0  0  0  0  0  0  0  0
   10.4490    1.0247   21.3401 F   0  0  0  0  0  0  0  0  0  0  0  0
    8.7112    1.5775   20.5409 H   0  0  0  0  0  0  0  0  0  0  0  0
    8.9481   -0.9913   22.1858 H   0  0  0  0  0  0  0  0  0  0  0  0
    9.3547   -1.0166   20.4762 H   0  0  0  0  0  0  0  0  0  0  0  0
    6.6411   -0.0590   19.8131 C   0  0  0  0  0  0  0  0  0  0  0  0
    5.4215    0.5968   20.0510 C   0  0  0  0  0  0  0  0  0  0  0  0
    4.8320    1.3209   19.0121 C   0  0  0  0  0  0  0  0  0  0  0  0
    5.4609    1.3385   17.7634 C   0  0  0  0  0  0  0  0  0  0  0  0
    6.6038    0.6834   17.5042 N   0  0  0  0  0  0  0  0  0  0  0  0
    7.1780    0.0046   18.5082 C   0  0  0  0  0  0  0  0  0  0  0  0
    8.0896   -0.5489   18.2734 H   0  0  0  0  0  0  0  0  0  0  0  0
    5.0322    1.8950   16.9334 H   0  0  0  0  0  0  0  0  0  0  0  0
    3.9085    1.8711   19.1557 H   0  0  0  0  0  0  0  0  0  0  0  0
    4.9527    0.5187   21.0332 H   0  0  0  0  0  0  0  0  0  0  0  0
  1  2  2  0
  2  3  1  0
  3  4  1  0
  4  5  1  0
  5  6  2  0
  6  7  1  0
  7  8  2  0
  8  9  1  0
  9 10  2  0
 10 11  1  0
 11 12  1  0
 11 13  1  0
 11 14  1  0
 14 15  1  0
 14 16  1  0
  9 17  1  0
  8 18  1  0
  7 19  1  0
  6 20  1  0
  4 21  1  0
  4 22  1  0
  2 23  1  0
 23 24  1  0
 24 25  1  0
 25 26  1  0
 25 27  1  0
 25 28  1  0
 24 29  1  0
 24 30  1  0
 23 31  1  0
 31 32  2  0
 32 33  1  0
 33 34  2  0
 34 35  1  0
 35 36  2  0
 36 37  1  0
 34 38  1  0
 33 39  1  0
 32 40  1  0
 14  3  1  0
 36 31  1  0
 10  5  1  0
M  END
>  <cnnaffinity>  (1) 
-5.59255

>  <filename>  (1) 
O=C(N1Cc2ccccc2C(F)(F)C1)N(CC(F)F)c1cccnc1

$$$$
