
     RDKit          3D

 28 29  0  0  0  0  0  0  0  0999 V2000
    5.0521    1.8155   16.9578 H   0  0  0  0  0  0  0  0  0  0  0  0
    5.4599    1.3039   17.8276 C   0  0  0  0  0  0  0  0  0  0  0  0
    6.6224    0.6612   17.6416 N   0  0  0  0  0  0  0  0  0  0  0  0
    7.1420    0.0152   18.6884 C   0  0  0  0  0  0  0  0  0  0  0  0
    8.0759   -0.5197   18.5313 H   0  0  0  0  0  0  0  0  0  0  0  0
    6.5581   -0.0015   19.9563 C   0  0  0  0  0  0  0  0  0  0  0  0
    7.2940   -0.7954   20.9729 C   0  0  0  0  0  0  0  0  0  0  0  0
    7.9907   -1.7472   20.6564 O   0  0  0  0  0  0  0  0  0  0  0  0
    7.1335   -0.3795   22.2672 N   0  0  0  0  0  0  0  0  0  0  0  0
    7.0200    0.6154   22.3579 H   0  0  0  0  0  0  0  0  0  0  0  0
    7.8752   -1.0213   23.3501 C   0  0  0  0  0  0  0  0  0  0  0  0
    7.6828   -2.1004   23.3135 H   0  0  0  0  0  0  0  0  0  0  0  0
    7.4871   -0.6358   24.2979 H   0  0  0  0  0  0  0  0  0  0  0  0
    9.3763   -0.7758   23.2815 C   0  0  0  0  0  0  0  0  0  0  0  0
   10.2166   -1.7399   22.6916 C   0  0  0  0  0  0  0  0  0  0  0  0
    9.7798   -2.6719   22.3402 H   0  0  0  0  0  0  0  0  0  0  0  0
   11.5770   -1.4991   22.4990 C   0  0  0  0  0  0  0  0  0  0  0  0
   12.1997   -2.2540   22.0222 H   0  0  0  0  0  0  0  0  0  0  0  0
   12.1409   -0.2937   22.9364 C   0  0  0  0  0  0  0  0  0  0  0  0
   13.2019   -0.0994   22.7838 H   0  0  0  0  0  0  0  0  0  0  0  0
   11.3371    0.6783   23.5415 C   0  0  0  0  0  0  0  0  0  0  0  0
   11.7612    1.6210   23.8835 H   0  0  0  0  0  0  0  0  0  0  0  0
    9.9658    0.4338   23.6962 C   0  0  0  0  0  0  0  0  0  0  0  0
    8.9764    1.7312   24.3279 Cl  0  0  0  0  0  0  0  0  0  0  0  0
    5.3595    0.6966   20.1536 C   0  0  0  0  0  0  0  0  0  0  0  0
    4.8925    0.7361   21.1386 H   0  0  0  0  0  0  0  0  0  0  0  0
    4.7932    1.3456   19.0579 C   0  0  0  0  0  0  0  0  0  0  0  0
    3.8722    1.9079   19.1439 H   0  0  0  0  0  0  0  0  0  0  0  0
  1  2  1  0
  2  3  2  0
  3  4  1  0
  4  5  1  0
  4  6  2  0
  6  7  1  0
  7  8  2  0
  7  9  1  0
  9 10  1  0
  9 11  1  0
 11 12  1  0
 11 13  1  0
 11 14  1  0
 14 15  2  0
 15 16  1  0
 15 17  1  0
 17 18  1  0
 17 19  2  0
 19 20  1  0
 19 21  1  0
 21 22  1  0
 21 23  2  0
 23 24  1  0
  6 25  1  0
 25 26  1  0
 25 27  2  0
 27 28  1  0
 27  2  1  0
 23 14  1  0
M  END
>  <cnnaffinity>  (1) 
-4.68452

>  <filename>  (1) 
O=C(NCc1ccccc1Cl)c1cccnc1

$$$$
