
     RDKit          3D

 39 41  0  0  0  0  0  0  0  0999 V2000
    8.7687    0.7155   21.7977 H   0  0  0  0  0  0  0  0  0  0  0  0
    8.4378    0.9696   20.9128 O   0  0  0  0  0  0  0  0  0  0  0  0
    7.0677    0.6725   21.0006 C   0  0  1  0  0  0  0  0  0  0  0  0
    6.5801    1.2785   21.7920 H   0  0  0  0  0  0  0  0  0  0  0  0
    6.4488    1.1128   19.6973 C   0  0  0  0  0  0  0  0  0  0  0  0
    7.0614    0.7573   18.4859 C   0  0  0  0  0  0  0  0  0  0  0  0
    7.9647    0.1460   18.4944 H   0  0  0  0  0  0  0  0  0  0  0  0
    6.5985    1.1037   17.2750 N   0  0  0  0  0  0  0  0  0  0  0  0
    5.5137    1.8947   17.2355 C   0  0  0  0  0  0  0  0  0  0  0  0
    5.1910    2.2372   16.2532 H   0  0  0  0  0  0  0  0  0  0  0  0
    4.8406    2.3302   18.3795 C   0  0  0  0  0  0  0  0  0  0  0  0
    3.9861    2.9902   18.2810 H   0  0  0  0  0  0  0  0  0  0  0  0
    5.3170    1.9357   19.6312 C   0  0  0  0  0  0  0  0  0  0  0  0
    4.8197    2.2731   20.5446 H   0  0  0  0  0  0  0  0  0  0  0  0
    6.9077   -0.8298   21.3951 C   0  0  0  0  0  0  0  0  0  0  0  0
    7.5014   -0.9847   22.8092 C   0  0  0  0  0  0  0  0  0  0  0  0
    8.4577   -0.3098   23.1733 O   0  0  0  0  0  0  0  0  0  0  0  0
    7.0020   -1.9701   23.6235 N   0  0  0  0  0  0  0  0  0  0  0  0
    6.0447   -2.2333   23.4584 H   0  0  0  0  0  0  0  0  0  0  0  0
    7.7815   -2.9629   24.2627 C   0  0  0  0  0  0  0  0  0  0  0  0
    9.1867   -2.9693   24.2156 C   0  0  0  0  0  0  0  0  0  0  0  0
    9.6965   -2.1361   23.7524 H   0  0  0  0  0  0  0  0  0  0  0  0
    9.8969   -4.0541   24.7439 C   0  0  0  0  0  0  0  0  0  0  0  0
   10.9832   -4.0780   24.7042 H   0  0  0  0  0  0  0  0  0  0  0  0
    9.2001   -5.1211   25.3173 C   0  0  0  0  0  0  0  0  0  0  0  0
   10.0790   -6.5054   25.8850 Cl  0  0  0  0  0  0  0  0  0  0  0  0
    7.8072   -5.1001   25.4243 C   0  0  0  0  0  0  0  0  0  0  0  0
    7.3027   -5.9351   25.9068 H   0  0  0  0  0  0  0  0  0  0  0  0
    7.1044   -4.0167   24.8898 C   0  0  0  0  0  0  0  0  0  0  0  0
    6.0209   -3.9842   24.9485 H   0  0  0  0  0  0  0  0  0  0  0  0
    5.5297   -1.4278   21.0061 C   0  0  0  0  0  0  0  0  0  0  0  0
    5.1624   -2.1974   21.6875 H   0  0  0  0  0  0  0  0  0  0  0  0
    4.7278   -0.6980   20.8379 H   0  0  0  0  0  0  0  0  0  0  0  0
    6.1623   -2.0985   19.7595 C   0  0  0  0  0  0  0  0  0  0  0  0
    5.8687   -3.1325   19.5472 H   0  0  0  0  0  0  0  0  0  0  0  0
    6.0206   -1.5166   18.8458 H   0  0  0  0  0  0  0  0  0  0  0  0
    7.5476   -1.8830   20.4124 C   0  0  0  0  0  0  0  0  0  0  0  0
    8.4040   -1.5625   19.7999 H   0  0  0  0  0  0  0  0  0  0  0  0
    7.8554   -2.7858   20.9628 H   0  0  0  0  0  0  0  0  0  0  0  0
  1  2  1  0
  2  3  1  0
  3  4  1  1
  3  5  1  0
  5  6  2  0
  6  7  1  0
  6  8  1  0
  8  9  2  0
  9 10  1  0
  9 11  1  0
 11 12  1  0
 11 13  2  0
 13 14  1  0
  3 15  1  0
 15 16  1  0
 16 17  2  0
 16 18  1  0
 18 19  1  0
 18 20  1  0
 20 21  2  0
 21 22  1  0
 21 23  1  0
 23 24  1  0
 23 25  2  0
 25 26  1  0
 25 27  1  0
 27 28  1  0
 27 29  2  0
 29 30  1  0
 15 31  1  0
 31 32  1  0
 31 33  1  0
 31 34  1  0
 34 35  1  0
 34 36  1  0
 34 37  1  0
 37 38  1  0
 37 39  1  0
 13  5  1  0
 37 15  1  0
 29 20  1  0
M  END
>  <cnnaffinity>  (1) 
-4.60072

>  <filename>  (1) 
O=C(Nc1ccc(Cl)cc1)C1([C@@H](O)c2cccnc2)CCC1

$$$$
