
     RDKit          3D

 33 35  0  0  0  0  0  0  0  0999 V2000
    9.8134   -6.7566   26.4233 H   0  0  0  0  0  0  0  0  0  0  0  0
    9.1621   -6.1240   25.8222 C   0  0  0  0  0  0  0  0  0  0  0  0
    9.7770   -5.2180   25.0543 N   0  0  0  0  0  0  0  0  0  0  0  0
    9.0303   -4.3683   24.3180 C   0  0  0  0  0  0  0  0  0  0  0  0
    9.7252   -3.1722   23.6222 C   0  0  0  0  0  0  0  0  0  0  0  0
   10.6834   -2.5753   24.0822 O   0  0  0  0  0  0  0  0  0  0  0  0
    9.1628   -2.7626   22.4216 N   0  0  0  0  0  0  0  0  0  0  0  0
    8.3398   -3.2195   22.0622 H   0  0  0  0  0  0  0  0  0  0  0  0
    9.5103   -1.5720   21.7666 C   0  0  0  0  0  0  0  0  0  0  0  0
    8.7268   -0.7132   21.0263 C   0  0  0  0  0  0  0  0  0  0  0  0
    7.3105   -0.7672   20.8668 N   0  0  0  0  0  0  0  0  0  0  0  0
    6.8221   -0.6363   21.7483 H   0  0  0  0  0  0  0  0  0  0  0  0
    6.6604   -0.0757   19.8220 C   0  0  0  0  0  0  0  0  0  0  0  0
    7.1513   -0.0140   18.4974 C   0  0  0  0  0  0  0  0  0  0  0  0
    8.0749   -0.5359   18.2389 H   0  0  0  0  0  0  0  0  0  0  0  0
    6.5527    0.6700   17.5105 N   0  0  0  0  0  0  0  0  0  0  0  0
    5.4151    1.3262   17.7934 C   0  0  0  0  0  0  0  0  0  0  0  0
    4.9649    1.8765   16.9695 H   0  0  0  0  0  0  0  0  0  0  0  0
    4.8206    1.2950   19.0587 C   0  0  0  0  0  0  0  0  0  0  0  0
    3.8931    1.8352   19.2209 H   0  0  0  0  0  0  0  0  0  0  0  0
    5.4436    0.5749   20.0815 C   0  0  0  0  0  0  0  0  0  0  0  0
    5.0072    0.5303   21.0786 H   0  0  0  0  0  0  0  0  0  0  0  0
    9.6396    0.2968   20.6386 C   0  0  0  0  0  0  0  0  0  0  0  0
    9.4175    1.1532   20.0289 H   0  0  0  0  0  0  0  0  0  0  0  0
   10.8553    0.1103   21.1222 N   0  0  0  0  0  0  0  0  0  0  0  0
   10.7611   -1.0541   21.8021 N   0  0  0  0  0  0  0  0  0  0  0  0
   11.4256   -1.3465   22.5091 H   0  0  0  0  0  0  0  0  0  0  0  0
    7.6294   -4.5064   24.2327 C   0  0  0  0  0  0  0  0  0  0  0  0
    7.0471   -3.8477   23.5973 H   0  0  0  0  0  0  0  0  0  0  0  0
    6.9878   -5.4487   25.0327 C   0  0  0  0  0  0  0  0  0  0  0  0
    5.9040   -5.5795   24.9910 H   0  0  0  0  0  0  0  0  0  0  0  0
    7.7658   -6.2420   25.8739 C   0  0  0  0  0  0  0  0  0  0  0  0
    7.2822   -6.9185   26.5638 H   0  0  0  0  0  0  0  0  0  0  0  0
  1  2  1  0
  2  3  2  0
  3  4  1  0
  4  5  1  0
  5  6  2  0
  5  7  1  0
  7  8  1  0
  7  9  1  0
  9 10  2  0
 10 11  1  0
 11 12  1  0
 11 13  1  0
 13 14  2  0
 14 15  1  0
 14 16  1  0
 16 17  2  0
 17 18  1  0
 17 19  1  0
 19 20  1  0
 19 21  2  0
 21 22  1  0
 10 23  1  0
 23 24  1  0
 23 25  2  0
 25 26  1  0
 26 27  1  0
  4 28  2  0
 28 29  1  0
 28 30  1  0
 30 31  1  0
 30 32  2  0
 32 33  1  0
 32  2  1  0
 26  9  1  0
 21 13  1  0
M  END
>  <cnnaffinity>  (1) 
-5.50119

>  <filename>  (1) 
O=C(Nc1[nH]ncc1Nc1cccnc1)c1ccccn1

$$$$
