
     RDKit          3D

 32 34  0  0  0  0  0  0  0  0999 V2000
    4.9184    1.8158   16.9658 H   0  0  0  0  0  0  0  0  0  0  0  0
    5.3825    1.3097   17.8128 C   0  0  0  0  0  0  0  0  0  0  0  0
    6.5423    0.6822   17.5558 N   0  0  0  0  0  0  0  0  0  0  0  0
    7.1484    0.0649   18.5767 C   0  0  0  0  0  0  0  0  0  0  0  0
    8.0933   -0.4210   18.3346 H   0  0  0  0  0  0  0  0  0  0  0  0
    6.6525    0.0017   19.8948 C   0  0  0  0  0  0  0  0  0  0  0  0
    7.3751   -0.7246   20.9889 C   0  0  0  0  0  0  0  0  0  0  0  0
    8.7709   -0.6237   21.1992 C   0  0  0  0  0  0  0  0  0  0  0  0
    9.3844    0.0054   20.5652 H   0  0  0  0  0  0  0  0  0  0  0  0
    9.4168   -1.2493   22.1901 N   0  0  0  0  0  0  0  0  0  0  0  0
    8.7446   -2.0224   23.0493 N   0  0  0  0  0  0  0  0  0  0  0  0
    7.4167   -2.1792   22.9134 C   0  0  0  0  0  0  0  0  0  0  0  0
    6.6673   -3.1230   23.8591 C   0  0  0  0  0  0  0  0  0  0  0  0
    5.4828   -3.3591   23.6736 O   0  0  0  0  0  0  0  0  0  0  0  0
    7.3811   -3.6913   24.8852 N   0  0  0  0  0  0  0  0  0  0  0  0
    8.3112   -3.3393   25.0542 H   0  0  0  0  0  0  0  0  0  0  0  0
    6.9286   -4.7518   25.6723 C   0  0  0  0  0  0  0  0  0  0  0  0
    6.0787   -5.7263   25.1408 C   0  0  0  0  0  0  0  0  0  0  0  0
    5.7569   -5.6737   24.1127 H   0  0  0  0  0  0  0  0  0  0  0  0
    5.6492   -6.7450   25.9829 C   0  0  0  0  0  0  0  0  0  0  0  0
    4.9838   -7.5248   25.6130 H   0  0  0  0  0  0  0  0  0  0  0  0
    5.9950   -6.8489   27.2701 N   0  0  0  0  0  0  0  0  0  0  0  0
    6.8327   -5.9238   27.7507 C   0  0  0  0  0  0  0  0  0  0  0  0
    7.1076   -6.0518   28.7963 H   0  0  0  0  0  0  0  0  0  0  0  0
    7.3342   -4.8632   27.0001 C   0  0  0  0  0  0  0  0  0  0  0  0
    7.9905   -4.1333   27.4563 H   0  0  0  0  0  0  0  0  0  0  0  0
    6.6988   -1.5369   21.8869 C   0  0  0  0  0  0  0  0  0  0  0  0
    5.6328   -1.7112   21.7944 H   0  0  0  0  0  0  0  0  0  0  0  0
    5.4320    0.6582   20.1325 C   0  0  0  0  0  0  0  0  0  0  0  0
    5.0162    0.6519   21.1407 H   0  0  0  0  0  0  0  0  0  0  0  0
    4.7951    1.3247   19.0821 C   0  0  0  0  0  0  0  0  0  0  0  0
    3.8622    1.8562   19.2292 H   0  0  0  0  0  0  0  0  0  0  0  0
  1  2  1  0
  2  3  2  0
  3  4  1  0
  4  5  1  0
  4  6  2  0
  6  7  1  0
  7  8  2  0
  8  9  1  0
  8 10  1  0
 10 11  2  0
 11 12  1  0
 12 13  1  0
 13 14  2  0
 13 15  1  0
 15 16  1  0
 15 17  1  0
 17 18  2  0
 18 19  1  0
 18 20  1  0
 20 21  1  0
 20 22  2  0
 22 23  1  0
 23 24  1  0
 23 25  2  0
 25 26  1  0
 12 27  2  0
 27 28  1  0
  6 29  1  0
 29 30  1  0
 29 31  2  0
 31 32  1  0
 31  2  1  0
 27  7  1  0
 25 17  1  0
M  END
>  <cnnaffinity>  (1) 
-5.08291

>  <filename>  (1) 
O=C(Nc1ccncc1)c1cc(-c2cccnc2)cnn1

$$$$
