
     RDKit          3D

 34 35  0  0  0  0  0  0  0  0999 V2000
    5.7437   -2.0230   21.4910 O   0  0  0  0  0  0  0  0  0  0  0  0
    6.8564   -1.5547   21.7096 C   0  0  0  0  0  0  0  0  0  0  0  0
    7.5981   -1.9623   23.0043 C   0  0  0  0  0  0  0  0  0  0  0  0
    8.5161   -0.9638   23.5398 O   0  0  0  0  0  0  0  0  0  0  0  0
    9.3073   -1.3212   24.6095 C   0  0  0  0  0  0  0  0  0  0  0  0
    9.3163   -2.4283   25.1381 O   0  0  0  0  0  0  0  0  0  0  0  0
   10.2279   -0.2516   25.2228 C   0  0  0  0  0  0  0  0  0  0  0  0
   10.8515    0.6313   24.1728 C   0  0  0  0  0  0  0  0  0  0  0  0
   12.2212    0.9576   24.1657 C   0  0  0  0  0  0  0  0  0  0  0  0
   12.7203    1.8607   23.2082 C   0  0  0  0  0  0  0  0  0  0  0  0
   11.8519    2.4604   22.2857 C   0  0  0  0  0  0  0  0  0  0  0  0
   12.4748    3.8459   21.1172 Br  0  0  0  0  0  0  0  0  0  0  0  0
   10.4985    2.0949   22.2661 C   0  0  0  0  0  0  0  0  0  0  0  0
    9.6355    2.5952   21.3544 F   0  0  0  0  0  0  0  0  0  0  0  0
   10.0114    1.2046   23.2161 C   0  0  0  0  0  0  0  0  0  0  0  0
    8.9433    1.0071   23.2172 H   0  0  0  0  0  0  0  0  0  0  0  0
   13.7690    2.1503   23.1956 H   0  0  0  0  0  0  0  0  0  0  0  0
   12.8944    0.5459   24.9128 H   0  0  0  0  0  0  0  0  0  0  0  0
    9.6361    0.3776   25.8900 H   0  0  0  0  0  0  0  0  0  0  0  0
   11.0046   -0.7088   25.8310 H   0  0  0  0  0  0  0  0  0  0  0  0
    8.1390   -2.8916   22.8031 H   0  0  0  0  0  0  0  0  0  0  0  0
    6.8303   -2.1786   23.7527 H   0  0  0  0  0  0  0  0  0  0  0  0
    7.4683   -0.7621   20.7413 N   0  0  0  0  0  0  0  0  0  0  0  0
    6.7856   -0.1016   19.6963 C   0  0  0  0  0  0  0  0  0  0  0  0
    5.4956    0.3861   19.9173 C   0  0  0  0  0  0  0  0  0  0  0  0
    4.8675    1.1030   18.8935 C   0  0  0  0  0  0  0  0  0  0  0  0
    5.5192    1.2938   17.6681 C   0  0  0  0  0  0  0  0  0  0  0  0
    6.7522    0.8057   17.4259 N   0  0  0  0  0  0  0  0  0  0  0  0
    7.3673    0.1378   18.4263 C   0  0  0  0  0  0  0  0  0  0  0  0
    8.3681   -0.2448   18.2518 H   0  0  0  0  0  0  0  0  0  0  0  0
    5.0073    1.8541   16.8918 H   0  0  0  0  0  0  0  0  0  0  0  0
    3.8819    1.5292   19.0418 H   0  0  0  0  0  0  0  0  0  0  0  0
    5.0185    0.2313   20.8835 H   0  0  0  0  0  0  0  0  0  0  0  0
    8.4412   -0.5208   20.9144 H   0  0  0  0  0  0  0  0  0  0  0  0
  1  2  2  0
  2  3  1  0
  3  4  1  0
  4  5  1  0
  5  6  2  0
  5  7  1  0
  7  8  1  0
  8  9  2  0
  9 10  1  0
 10 11  2  0
 11 12  1  0
 11 13  1  0
 13 14  1  0
 13 15  2  0
 15 16  1  0
 10 17  1  0
  9 18  1  0
  7 19  1  0
  7 20  1  0
  3 21  1  0
  3 22  1  0
  2 23  1  0
 23 24  1  0
 24 25  2  0
 25 26  1  0
 26 27  2  0
 27 28  1  0
 28 29  2  0
 29 30  1  0
 27 31  1  0
 26 32  1  0
 25 33  1  0
 23 34  1  0
 15  8  1  0
 29 24  1  0
M  END
>  <cnnaffinity>  (1) 
-5.032

>  <filename>  (1) 
O=C(COC(=O)Cc1ccc(Br)c(F)c1)Nc1cccnc1

$$$$
