
     RDKit          3D

 33 35  0  0  0  0  0  0  0  0999 V2000
    6.6428   -6.1661   25.9348 H   0  0  0  0  0  0  0  0  0  0  0  0
    6.8000   -5.1172   25.6849 C   0  0  0  0  0  0  0  0  0  0  0  0
    7.3802   -4.8647   24.5111 N   0  0  0  0  0  0  0  0  0  0  0  0
    7.5529   -3.5740   24.1875 C   0  0  0  0  0  0  0  0  0  0  0  0
    8.2219   -3.2014   22.8284 C   0  0  0  0  0  0  0  0  0  0  0  0
    8.6180   -4.0438   22.0584 O   0  0  0  0  0  0  0  0  0  0  0  0
    8.3576   -1.7042   22.5006 C   0  0  0  0  0  0  0  0  0  0  0  0
    9.0695   -1.2509   23.1971 H   0  0  0  0  0  0  0  0  0  0  0  0
    7.0349   -0.8781   22.3758 C   0  0  0  0  0  0  0  0  0  0  0  0
    7.0061    0.0488   22.9684 H   0  0  0  0  0  0  0  0  0  0  0  0
    6.1043   -1.4347   22.5488 H   0  0  0  0  0  0  0  0  0  0  0  0
    7.3665   -0.6847   20.9820 N   0  0  0  0  0  0  0  0  0  0  0  0
    6.7139   -0.0447   19.9630 C   0  0  0  0  0  0  0  0  0  0  0  0
    7.2226    0.0080   18.6313 C   0  0  0  0  0  0  0  0  0  0  0  0
    8.1742   -0.4746   18.3979 H   0  0  0  0  0  0  0  0  0  0  0  0
    6.6089    0.6302   17.6164 N   0  0  0  0  0  0  0  0  0  0  0  0
    5.4466    1.2540   17.8810 C   0  0  0  0  0  0  0  0  0  0  0  0
    4.9768    1.7686   17.0477 H   0  0  0  0  0  0  0  0  0  0  0  0
    4.8491    1.2640   19.1479 C   0  0  0  0  0  0  0  0  0  0  0  0
    3.9110    1.7948   19.3044 H   0  0  0  0  0  0  0  0  0  0  0  0
    5.4859    0.6096   20.2031 C   0  0  0  0  0  0  0  0  0  0  0  0
    5.0602    0.6075   21.2056 H   0  0  0  0  0  0  0  0  0  0  0  0
    8.6234   -1.3962   21.0058 C   0  0  0  0  0  0  0  0  0  0  0  0
    8.6387   -2.2763   20.3629 H   0  0  0  0  0  0  0  0  0  0  0  0
    9.4963   -0.7678   20.7869 H   0  0  0  0  0  0  0  0  0  0  0  0
    7.1768   -2.5490   24.9586 N   0  0  0  0  0  0  0  0  0  0  0  0
    6.5462   -2.7962   26.1165 C   0  0  0  0  0  0  0  0  0  0  0  0
    6.0126   -1.5561   26.8994 C   0  0  0  0  0  0  0  0  0  0  0  0
    6.0987   -0.4269   26.1879 F   0  0  0  0  0  0  0  0  0  0  0  0
    6.6847   -1.3580   28.0494 F   0  0  0  0  0  0  0  0  0  0  0  0
    4.7159   -1.7166   27.2432 F   0  0  0  0  0  0  0  0  0  0  0  0
    6.3733   -4.1111   26.5536 C   0  0  0  0  0  0  0  0  0  0  0  0
    5.9090   -4.3673   27.4950 H   0  0  0  0  0  0  0  0  0  0  0  0
  1  2  1  0
  2  3  2  0
  3  4  1  0
  4  5  1  0
  5  6  2  0
  5  7  1  0
  7  8  1  0
  7  9  1  0
  9 10  1  0
  9 11  1  0
  9 12  1  0
 12 13  1  0
 13 14  2  0
 14 15  1  0
 14 16  1  0
 16 17  2  0
 17 18  1  0
 17 19  1  0
 19 20  1  0
 19 21  2  0
 21 22  1  0
 12 23  1  0
 23 24  1  0
 23 25  1  0
  4 26  2  0
 26 27  1  0
 27 28  1  0
 28 29  1  0
 28 30  1  0
 28 31  1  0
 27 32  2  0
 32 33  1  0
 32  2  1  0
 23  7  1  0
 21 13  1  0
M  END
>  <cnnaffinity>  (1) 
-5.52589

>  <filename>  (1) 
O=C(c1nccc(C(F)(F)F)n1)C1CN(c2cccnc2)C1

$$$$
