
     RDKit          3D

 30 32  0  0  0  0  0  0  0  0999 V2000
    4.3795    4.0204   25.1844 H   0  0  0  0  0  0  0  0  0  0  0  0
    5.1061    4.2054   24.3966 C   0  0  0  0  0  0  0  0  0  0  0  0
    5.7573    3.1340   23.9226 N   0  0  0  0  0  0  0  0  0  0  0  0
    6.6418    3.3190   22.9138 C   0  0  0  0  0  0  0  0  0  0  0  0
    7.3986    2.1139   22.3044 C   0  0  0  0  0  0  0  0  0  0  0  0
    8.1472    2.2143   21.3512 O   0  0  0  0  0  0  0  0  0  0  0  0
    7.1213    0.8904   22.8927 N   0  0  0  0  0  0  0  0  0  0  0  0
    6.3959    0.8968   23.6014 H   0  0  0  0  0  0  0  0  0  0  0  0
    7.4174   -0.3392   22.2924 N   0  0  0  0  0  0  0  0  0  0  0  0
    8.1702   -1.3392   22.8714 C   0  0  0  0  0  0  0  0  0  0  0  0
    8.4008   -1.3591   23.9284 H   0  0  0  0  0  0  0  0  0  0  0  0
    8.5080   -2.2343   21.9905 N   0  0  0  0  0  0  0  0  0  0  0  0
    8.0036   -1.8276   20.7822 N   0  0  0  0  0  0  0  0  0  0  0  0
    7.3388   -0.7184   20.9556 C   0  0  0  0  0  0  0  0  0  0  0  0
    6.5987   -0.0025   19.9030 C   0  0  0  0  0  0  0  0  0  0  0  0
    7.1460    0.0374   18.6131 C   0  0  0  0  0  0  0  0  0  0  0  0
    8.0949   -0.4537   18.3973 H   0  0  0  0  0  0  0  0  0  0  0  0
    6.5711    0.6667   17.5836 N   0  0  0  0  0  0  0  0  0  0  0  0
    5.4117    1.3026   17.8139 C   0  0  0  0  0  0  0  0  0  0  0  0
    4.9718    1.8222   16.9648 H   0  0  0  0  0  0  0  0  0  0  0  0
    4.7710    1.3149   19.0557 C   0  0  0  0  0  0  0  0  0  0  0  0
    3.8388    1.8564   19.1838 H   0  0  0  0  0  0  0  0  0  0  0  0
    5.3717    0.6458   20.1209 C   0  0  0  0  0  0  0  0  0  0  0  0
    4.9046    0.6447   21.1058 H   0  0  0  0  0  0  0  0  0  0  0  0
    6.9066    4.5858   22.3619 C   0  0  0  0  0  0  0  0  0  0  0  0
    7.6157    4.6573   21.5389 H   0  0  0  0  0  0  0  0  0  0  0  0
    6.2311    5.6924   22.8827 C   0  0  0  0  0  0  0  0  0  0  0  0
    6.4142    6.6831   22.4709 H   0  0  0  0  0  0  0  0  0  0  0  0
    5.3118    5.5014   23.9159 C   0  0  0  0  0  0  0  0  0  0  0  0
    4.7559    6.3266   24.3510 H   0  0  0  0  0  0  0  0  0  0  0  0
  1  2  1  0
  2  3  2  0
  3  4  1  0
  4  5  1  0
  5  6  2  0
  5  7  1  0
  7  8  1  0
  7  9  1  0
  9 10  1  0
 10 11  1  0
 10 12  2  0
 12 13  1  0
 13 14  2  0
 14 15  1  0
 15 16  2  0
 16 17  1  0
 16 18  1  0
 18 19  2  0
 19 20  1  0
 19 21  1  0
 21 22  1  0
 21 23  2  0
 23 24  1  0
  4 25  2  0
 25 26  1  0
 25 27  1  0
 27 28  1  0
 27 29  2  0
 29 30  1  0
 29  2  1  0
 14  9  1  0
 23 15  1  0
M  END
>  <cnnaffinity>  (1) 
-4.97726

>  <filename>  (1) 
O=C(Nn1cnnc1-c1cccnc1)c1ccccn1

$$$$
