
     RDKit          3D

 37 38  0  0  0  0  0  0  0  0999 V2000
    4.9782    1.9112   16.8866 H   0  0  0  0  0  0  0  0  0  0  0  0
    5.4092    1.3832   17.7374 C   0  0  0  0  0  0  0  0  0  0  0  0
    6.5771    0.7648   17.5086 N   0  0  0  0  0  0  0  0  0  0  0  0
    7.1304    0.1256   18.5441 C   0  0  0  0  0  0  0  0  0  0  0  0
    8.0981   -0.3433   18.3548 H   0  0  0  0  0  0  0  0  0  0  0  0
    6.5558    0.0270   19.8220 C   0  0  0  0  0  0  0  0  0  0  0  0
    7.2450   -0.7397   20.9180 C   0  0  0  0  0  0  0  0  0  0  0  0
    7.2641   -0.1740   21.8548 H   0  0  0  0  0  0  0  0  0  0  0  0
    8.2829   -0.9249   20.6505 H   0  0  0  0  0  0  0  0  0  0  0  0
    6.7084   -2.1139   21.2965 C   0  0  0  0  0  0  0  0  0  0  0  0
    5.3931   -2.0860   21.6415 F   0  0  0  0  0  0  0  0  0  0  0  0
    6.7565   -3.0003   20.2673 F   0  0  0  0  0  0  0  0  0  0  0  0
    7.4174   -2.6142   22.4210 N   0  0  0  0  0  0  0  0  0  0  0  0
    6.8688   -3.2434   22.9794 H   0  0  0  0  0  0  0  0  0  0  0  0
    8.7340   -2.9899   22.2758 C   0  0  0  0  0  0  0  0  0  0  0  0
    9.3582   -2.8046   21.2502 O   0  0  0  0  0  0  0  0  0  0  0  0
    9.3157   -3.6815   23.4828 C   0  0  0  0  0  0  0  0  0  0  0  0
   10.3824   -3.7444   23.2421 H   0  0  0  0  0  0  0  0  0  0  0  0
    9.1547   -2.8776   24.7999 C   0  0  0  0  0  0  0  0  0  0  0  0
    9.6157   -1.8835   24.6883 H   0  0  0  0  0  0  0  0  0  0  0  0
    8.0844   -2.7104   24.9941 H   0  0  0  0  0  0  0  0  0  0  0  0
    9.7858   -3.6359   25.9715 C   0  0  0  0  0  0  0  0  0  0  0  0
    9.6438   -3.0782   26.9065 H   0  0  0  0  0  0  0  0  0  0  0  0
   10.8628   -3.7136   25.7628 H   0  0  0  0  0  0  0  0  0  0  0  0
    9.2726   -5.0752   26.0952 C   0  0  0  0  0  0  0  0  0  0  0  0
    8.1958   -5.0804   26.3350 H   0  0  0  0  0  0  0  0  0  0  0  0
    9.7874   -5.5842   26.9212 H   0  0  0  0  0  0  0  0  0  0  0  0
    9.5227   -5.8177   24.7742 C   0  0  0  0  0  0  0  0  0  0  0  0
   10.6055   -5.7969   24.5649 H   0  0  0  0  0  0  0  0  0  0  0  0
    9.2520   -6.8674   24.8670 H   0  0  0  0  0  0  0  0  0  0  0  0
    8.7748   -5.1275   23.6249 C   0  0  0  0  0  0  0  0  0  0  0  0
    7.6988   -5.0841   23.8692 H   0  0  0  0  0  0  0  0  0  0  0  0
    8.8573   -5.6796   22.6745 H   0  0  0  0  0  0  0  0  0  0  0  0
    5.3312    0.6664   20.0389 C   0  0  0  0  0  0  0  0  0  0  0  0
    4.8575    0.6237   21.0242 H   0  0  0  0  0  0  0  0  0  0  0  0
    4.7540    1.3609   18.9715 C   0  0  0  0  0  0  0  0  0  0  0  0
    3.8203    1.8980   19.0865 H   0  0  0  0  0  0  0  0  0  0  0  0
  1  2  1  0
  2  3  2  0
  3  4  1  0
  4  5  1  0
  4  6  2  0
  6  7  1  0
  7  8  1  0
  7  9  1  0
  7 10  1  0
 10 11  1  0
 10 12  1  0
 10 13  1  0
 13 14  1  0
 13 15  1  0
 15 16  2  0
 15 17  1  0
 17 18  1  0
 17 19  1  0
 19 20  1  0
 19 21  1  0
 19 22  1  0
 22 23  1  0
 22 24  1  0
 22 25  1  0
 25 26  1  0
 25 27  1  0
 25 28  1  0
 28 29  1  0
 28 30  1  0
 28 31  1  0
 31 32  1  0
 31 33  1  0
  6 34  1  0
 34 35  1  0
 34 36  2  0
 36 37  1  0
 36  2  1  0
 31 17  1  0
M  END
>  <cnnaffinity>  (1) 
-5.3779

>  <filename>  (1) 
O=C(NC(F)(F)Cc1cccnc1)C1CCCCC1

$$$$
