
     RDKit          3D

 34 37  0  0  0  0  0  0  0  0999 V2000
    6.5551    5.3698   24.3346 H   0  0  0  0  0  0  0  0  0  0  0  0
    6.2417    4.4825   24.8819 C   0  0  0  0  0  0  0  0  0  0  0  0
    6.4495    3.3137   24.2631 N   0  0  0  0  0  0  0  0  0  0  0  0
    6.1041    2.1748   24.9068 C   0  0  0  0  0  0  0  0  0  0  0  0
    6.3764    0.7932   24.2667 C   0  0  0  0  0  0  0  0  0  0  0  0
    6.1384   -0.2456   24.8586 O   0  0  0  0  0  0  0  0  0  0  0  0
    6.9208    0.8247   22.9964 N   0  0  0  0  0  0  0  0  0  0  0  0
    6.9528    1.7484   22.5816 H   0  0  0  0  0  0  0  0  0  0  0  0
    7.4330   -0.2682   22.3001 C   0  0  0  0  0  0  0  0  0  0  0  0
    7.3863   -0.6550   20.9588 C   0  0  0  0  0  0  0  0  0  0  0  0
    6.6366    0.0004   19.8912 C   0  0  0  0  0  0  0  0  0  0  0  0
    7.1515    0.0324   18.5836 C   0  0  0  0  0  0  0  0  0  0  0  0
    8.1012   -0.4449   18.3546 H   0  0  0  0  0  0  0  0  0  0  0  0
    6.5553    0.6626   17.5675 N   0  0  0  0  0  0  0  0  0  0  0  0
    5.3991    1.2960   17.8178 C   0  0  0  0  0  0  0  0  0  0  0  0
    4.9478    1.8110   16.9701 H   0  0  0  0  0  0  0  0  0  0  0  0
    4.7882    1.3109   19.0776 C   0  0  0  0  0  0  0  0  0  0  0  0
    3.8582    1.8505   19.2182 H   0  0  0  0  0  0  0  0  0  0  0  0
    5.4123    0.6501   20.1324 C   0  0  0  0  0  0  0  0  0  0  0  0
    4.9696    0.6380   21.1304 H   0  0  0  0  0  0  0  0  0  0  0  0
    8.1599   -1.7752   20.7341 N   0  0  0  0  0  0  0  0  0  0  0  0
    8.6177   -2.0723   21.9195 C   0  0  0  0  0  0  0  0  0  0  0  0
    9.7169   -3.2479   22.5642 S   0  0  0  0  0  0  0  0  0  0  0  0
    9.6637   -2.4980   24.1330 C   0  0  0  0  0  0  0  0  0  0  0  0
   10.2876   -2.9253   24.9062 H   0  0  0  0  0  0  0  0  0  0  0  0
    8.8221   -1.4501   24.1656 C   0  0  0  0  0  0  0  0  0  0  0  0
    8.5466   -0.8191   25.0013 H   0  0  0  0  0  0  0  0  0  0  0  0
    8.2263   -1.2150   22.9187 N   0  0  0  0  0  0  0  0  0  0  0  0
    5.5163    2.1931   26.1812 C   0  0  0  0  0  0  0  0  0  0  0  0
    5.2728    1.2338   26.6224 H   0  0  0  0  0  0  0  0  0  0  0  0
    5.2887    3.4144   26.8179 C   0  0  0  0  0  0  0  0  0  0  0  0
    4.8292    3.4365   27.8072 H   0  0  0  0  0  0  0  0  0  0  0  0
    5.6624    4.5864   26.1532 C   0  0  0  0  0  0  0  0  0  0  0  0
    5.5075    5.5671   26.5902 H   0  0  0  0  0  0  0  0  0  0  0  0
  1  2  1  0
  2  3  2  0
  3  4  1  0
  4  5  1  0
  5  6  2  0
  5  7  1  0
  7  8  1  0
  7  9  1  0
  9 10  2  0
 10 11  1  0
 11 12  2  0
 12 13  1  0
 12 14  1  0
 14 15  2  0
 15 16  1  0
 15 17  1  0
 17 18  1  0
 17 19  2  0
 19 20  1  0
 10 21  1  0
 21 22  2  0
 22 23  1  0
 23 24  1  0
 24 25  1  0
 24 26  2  0
 26 27  1  0
 26 28  1  0
  4 29  2  0
 29 30  1  0
 29 31  1  0
 31 32  1  0
 31 33  2  0
 33 34  1  0
 33  2  1  0
 28  9  1  0
 19 11  1  0
 28 22  1  0
M  END
>  <cnnaffinity>  (1) 
-5.45351

>  <filename>  (1) 
O=C(Nc1c(-c2cccnc2)nc2sccn12)c1ccccn1

$$$$
