
     RDKit          3D

 36 38  0  0  0  0  0  0  0  0999 V2000
    7.6113   -4.7656   21.3739 O   0  0  0  0  0  0  0  0  0  0  0  0
    7.2257   -4.2653   22.4205 C   0  0  0  0  0  0  0  0  0  0  0  0
    7.7224   -3.0687   22.8782 N   0  0  0  0  0  0  0  0  0  0  0  0
    8.7654   -2.3622   22.1360 C   0  0  0  0  0  0  0  0  0  0  0  0
    8.2573   -1.4854   21.0103 C   0  0  0  0  0  0  0  0  0  0  0  0
    7.2858   -0.5697   21.0890 C   0  0  0  0  0  0  0  0  0  0  0  0
    6.6285    0.0836   19.9357 C   0  0  0  0  0  0  0  0  0  0  0  0
    5.4018    0.7434   20.1336 C   0  0  0  0  0  0  0  0  0  0  0  0
    4.7738    1.3592   19.0513 C   0  0  0  0  0  0  0  0  0  0  0  0
    5.3933    1.3112   17.7979 C   0  0  0  0  0  0  0  0  0  0  0  0
    6.5546    0.6768   17.5735 N   0  0  0  0  0  0  0  0  0  0  0  0
    7.1418    0.0783   18.6197 C   0  0  0  0  0  0  0  0  0  0  0  0
    8.0850   -0.4186   18.3952 H   0  0  0  0  0  0  0  0  0  0  0  0
    4.9426    1.8055   16.9389 H   0  0  0  0  0  0  0  0  0  0  0  0
    3.8305    1.8799   19.1645 H   0  0  0  0  0  0  0  0  0  0  0  0
    4.9497    0.7645   21.1271 H   0  0  0  0  0  0  0  0  0  0  0  0
    6.8682   -0.2958   22.0614 H   0  0  0  0  0  0  0  0  0  0  0  0
    8.7246   -1.6713   20.0490 H   0  0  0  0  0  0  0  0  0  0  0  0
    9.3232   -1.7735   22.8720 H   0  0  0  0  0  0  0  0  0  0  0  0
    9.4820   -3.0759   21.7099 H   0  0  0  0  0  0  0  0  0  0  0  0
    7.7221   -2.9833   23.8916 H   0  0  0  0  0  0  0  0  0  0  0  0
    6.1402   -4.9118   23.3234 C   0  0  0  0  0  0  0  0  0  0  0  0
    5.0329   -5.4178   22.7775 N   0  0  0  0  0  0  0  0  0  0  0  0
    4.1427   -6.0649   23.5727 C   0  0  0  0  0  0  0  0  0  0  0  0
    4.3226   -6.2369   24.9270 C   0  0  0  0  0  0  0  0  0  0  0  0
    5.4814   -5.6985   25.5588 C   0  0  0  0  0  0  0  0  0  0  0  0
    5.7626   -5.8305   26.9506 C   0  0  0  0  0  0  0  0  0  0  0  0
    6.9307   -5.2927   27.4446 C   0  0  0  0  0  0  0  0  0  0  0  0
    7.8021   -4.5939   26.5668 C   0  0  0  0  0  0  0  0  0  0  0  0
    7.5457   -4.3900   25.2906 N   0  0  0  0  0  0  0  0  0  0  0  0
    6.4251   -4.9806   24.7475 C   0  0  0  0  0  0  0  0  0  0  0  0
    8.7347   -4.1848   26.9533 H   0  0  0  0  0  0  0  0  0  0  0  0
    7.2032   -5.3894   28.4871 H   0  0  0  0  0  0  0  0  0  0  0  0
    5.0577   -6.3602   27.5921 H   0  0  0  0  0  0  0  0  0  0  0  0
    3.5922   -6.7936   25.5037 H   0  0  0  0  0  0  0  0  0  0  0  0
    3.2728   -6.4542   23.0513 H   0  0  0  0  0  0  0  0  0  0  0  0
  1  2  2  0
  2  3  1  0
  3  4  1  0
  4  5  1  0
  5  6  2  3
  6  7  1  0
  7  8  2  0
  8  9  1  0
  9 10  2  0
 10 11  1  0
 11 12  2  0
 12 13  1  0
 10 14  1  0
  9 15  1  0
  8 16  1  0
  6 17  1  0
  5 18  1  0
  4 19  1  0
  4 20  1  0
  3 21  1  0
  2 22  1  0
 22 23  2  0
 23 24  1  0
 24 25  2  0
 25 26  1  0
 26 27  2  0
 27 28  1  0
 28 29  2  0
 29 30  1  0
 30 31  2  0
 29 32  1  0
 28 33  1  0
 27 34  1  0
 25 35  1  0
 24 36  1  0
 12  7  1  0
 31 22  1  0
 31 26  1  0
M  END
>  <cnnaffinity>  (1) 
-5.42246

>  <filename>  (1) 
O=C(NCC=Cc1cccnc1)c1nccc2cccnc12

$$$$
