
     RDKit          3D

 31 33  0  0  0  0  0  0  0  0999 V2000
    4.9295    1.8017   16.9688 H   0  0  0  0  0  0  0  0  0  0  0  0
    5.3927    1.3022   17.8196 C   0  0  0  0  0  0  0  0  0  0  0  0
    6.5554    0.6780   17.5695 N   0  0  0  0  0  0  0  0  0  0  0  0
    7.1616    0.0651   18.5907 C   0  0  0  0  0  0  0  0  0  0  0  0
    8.1032   -0.4187   18.3267 H   0  0  0  0  0  0  0  0  0  0  0  0
    6.6452    0.0227   19.8953 C   0  0  0  0  0  0  0  0  0  0  0  0
    7.3210   -0.6787   20.9908 C   0  0  0  0  0  0  0  0  0  0  0  0
    6.7936   -0.9649   22.1669 N   0  0  0  0  0  0  0  0  0  0  0  0
    7.8012   -1.6038   22.8470 C   0  0  0  0  0  0  0  0  0  0  0  0
    7.6899   -2.1880   24.2873 C   0  0  0  0  0  0  0  0  0  0  0  0
    8.6069   -2.7802   24.8268 O   0  0  0  0  0  0  0  0  0  0  0  0
    6.4754   -2.0102   24.9197 N   0  0  0  0  0  0  0  0  0  0  0  0
    5.8061   -1.3801   24.4978 H   0  0  0  0  0  0  0  0  0  0  0  0
    6.1157   -2.6714   26.1196 C   0  0  0  0  0  0  0  0  0  0  0  0
    5.3192   -2.0226   27.0687 C   0  0  0  0  0  0  0  0  0  0  0  0
    4.9795   -1.0094   26.8754 H   0  0  0  0  0  0  0  0  0  0  0  0
    4.9855   -2.6671   28.2674 C   0  0  0  0  0  0  0  0  0  0  0  0
    4.3838   -2.1775   29.0278 H   0  0  0  0  0  0  0  0  0  0  0  0
    5.4383   -3.9687   28.4968 C   0  0  0  0  0  0  0  0  0  0  0  0
    5.0472   -4.7735   29.9870 Cl  0  0  0  0  0  0  0  0  0  0  0  0
    6.2174   -4.6332   27.5469 C   0  0  0  0  0  0  0  0  0  0  0  0
    6.5720   -5.6403   27.7520 H   0  0  0  0  0  0  0  0  0  0  0  0
    6.5547   -3.9832   26.3597 C   0  0  0  0  0  0  0  0  0  0  0  0
    7.1672   -4.4757   25.6144 H   0  0  0  0  0  0  0  0  0  0  0  0
    8.9176   -1.7134   22.1361 N   0  0  0  0  0  0  0  0  0  0  0  0
    8.5931   -1.1320   20.9743 N   0  0  0  0  0  0  0  0  0  0  0  0
    9.3005   -1.0216   20.2607 H   0  0  0  0  0  0  0  0  0  0  0  0
    5.4233    0.6695   20.1395 C   0  0  0  0  0  0  0  0  0  0  0  0
    4.9992    0.6430   21.1437 H   0  0  0  0  0  0  0  0  0  0  0  0
    4.7931    1.3231   19.0844 C   0  0  0  0  0  0  0  0  0  0  0  0
    3.8600    1.8548   19.2262 H   0  0  0  0  0  0  0  0  0  0  0  0
  1  2  1  0
  2  3  2  0
  3  4  1  0
  4  5  1  0
  4  6  2  0
  6  7  1  0
  7  8  2  0
  8  9  1  0
  9 10  1  0
 10 11  2  0
 10 12  1  0
 12 13  1  0
 12 14  1  0
 14 15  2  0
 15 16  1  0
 15 17  1  0
 17 18  1  0
 17 19  2  0
 19 20  1  0
 19 21  1  0
 21 22  1  0
 21 23  2  0
 23 24  1  0
  9 25  2  0
 25 26  1  0
 26 27  1  0
  6 28  1  0
 28 29  1  0
 28 30  2  0
 30 31  1  0
 30  2  1  0
 26  7  1  0
 23 14  1  0
M  END
>  <cnnaffinity>  (1) 
-4.95655

>  <filename>  (1) 
O=C(Nc1ccc(Cl)cc1)c1n[nH]c(-c2cccnc2)n1

$$$$
