
     RDKit          3D

 33 35  0  0  0  0  0  0  0  0999 V2000
    5.1456    1.6720   16.9069 H   0  0  0  0  0  0  0  0  0  0  0  0
    5.5374    1.2384   17.8234 C   0  0  0  0  0  0  0  0  0  0  0  0
    6.7294    0.6327   17.7198 N   0  0  0  0  0  0  0  0  0  0  0  0
    7.2447    0.1024   18.8257 C   0  0  0  0  0  0  0  0  0  0  0  0
    8.2439   -0.3288   18.7542 H   0  0  0  0  0  0  0  0  0  0  0  0
    6.5690    0.1146   20.0314 C   0  0  0  0  0  0  0  0  0  0  0  0
    7.3926   -0.8038   21.2340 S   0  0  0  0  0  0  0  0  0  0  0  0
    6.7341   -2.0661   21.4895 O   0  0  0  0  0  0  0  0  0  0  0  0
    8.8164   -0.7331   20.9909 O   0  0  0  0  0  0  0  0  0  0  0  0
    6.9817    0.0487   22.5659 N   0  0  0  0  0  0  0  0  0  0  0  0
    7.0212   -0.5833   23.3458 H   0  0  0  0  0  0  0  0  0  0  0  0
    7.4645    1.3430   22.6329 C   0  0  0  0  0  0  0  0  0  0  0  0
    7.9557    1.8712   21.6591 O   0  0  0  0  0  0  0  0  0  0  0  0
    7.1913    1.9764   23.9219 C   0  0  0  0  0  0  0  0  0  0  0  0
    5.9868    1.6809   24.5231 C   0  0  0  0  0  0  0  0  0  0  0  0
    5.3035    0.9513   24.0876 H   0  0  0  0  0  0  0  0  0  0  0  0
    5.5377    2.2728   25.6543 N   0  0  0  0  0  0  0  0  0  0  0  0
    6.3006    3.1942   26.2047 C   0  0  0  0  0  0  0  0  0  0  0  0
    5.9187    3.6776   27.1087 H   0  0  0  0  0  0  0  0  0  0  0  0
    7.5583    3.6220   25.6760 C   0  0  0  0  0  0  0  0  0  0  0  0
    8.3293    4.6674   26.2692 C   0  0  0  0  0  0  0  0  0  0  0  0
    7.9368    5.1702   27.1523 H   0  0  0  0  0  0  0  0  0  0  0  0
    9.5404    5.0284   25.7250 C   0  0  0  0  0  0  0  0  0  0  0  0
   10.1214    5.8281   26.1812 H   0  0  0  0  0  0  0  0  0  0  0  0
   10.0417    4.3655   24.5679 C   0  0  0  0  0  0  0  0  0  0  0  0
   11.0068    4.6606   24.1593 H   0  0  0  0  0  0  0  0  0  0  0  0
    9.3112    3.3544   23.9672 C   0  0  0  0  0  0  0  0  0  0  0  0
    9.6526    2.8637   23.0564 H   0  0  0  0  0  0  0  0  0  0  0  0
    8.0392    2.9773   24.4967 C   0  0  0  0  0  0  0  0  0  0  0  0
    5.3256    0.7452   20.1688 C   0  0  0  0  0  0  0  0  0  0  0  0
    4.7806    0.8244   21.1138 H   0  0  0  0  0  0  0  0  0  0  0  0
    4.8139    1.3272   19.0161 C   0  0  0  0  0  0  0  0  0  0  0  0
    3.8695    1.8572   19.0318 H   0  0  0  0  0  0  0  0  0  0  0  0
  1  2  1  0
  2  3  2  0
  3  4  1  0
  4  5  1  0
  4  6  2  0
  6  7  1  0
  7  8  2  0
  7  9  2  0
  7 10  1  0
 10 11  1  0
 10 12  1  0
 12 13  2  0
 12 14  1  0
 14 15  2  0
 15 16  1  0
 15 17  1  0
 17 18  2  0
 18 19  1  0
 18 20  1  0
 20 21  2  0
 21 22  1  0
 21 23  1  0
 23 24  1  0
 23 25  2  0
 25 26  1  0
 25 27  1  0
 27 28  1  0
 27 29  2  0
  6 30  1  0
 30 31  1  0
 30 32  2  0
 32 33  1  0
 32  2  1  0
 29 14  1  0
 29 20  1  0
M  END
>  <cnnaffinity>  (1) 
-4.93092

>  <filename>  (1) 
O=C(NS(=O)(=O)c1cccnc1)c1cncc2ccccc12

$$$$
