
     RDKit          3D

 28 29  0  0  0  0  0  0  0  0999 V2000
    4.9577    1.8247   16.9345 H   0  0  0  0  0  0  0  0  0  0  0  0
    5.4363    1.3256   17.7736 C   0  0  0  0  0  0  0  0  0  0  0  0
    6.6074    0.7212   17.5091 N   0  0  0  0  0  0  0  0  0  0  0  0
    7.2171    0.0907   18.5215 C   0  0  0  0  0  0  0  0  0  0  0  0
    8.1657   -0.3984   18.3054 H   0  0  0  0  0  0  0  0  0  0  0  0
    6.6893    0.0075   19.8239 C   0  0  0  0  0  0  0  0  0  0  0  0
    7.3980   -0.6826   20.8616 N   0  0  0  0  0  0  0  0  0  0  0  0
    8.2286   -0.2426   21.2311 H   0  0  0  0  0  0  0  0  0  0  0  0
    6.7873   -1.5998   21.6876 C   0  0  0  0  0  0  0  0  0  0  0  0
    5.7471   -2.1602   21.4140 O   0  0  0  0  0  0  0  0  0  0  0  0
    7.6383   -2.0291   22.9403 C   0  0  0  0  0  0  0  0  0  0  0  0
    8.5765   -1.0647   23.2441 F   0  0  0  0  0  0  0  0  0  0  0  0
    6.8289   -2.1239   24.0201 F   0  0  0  0  0  0  0  0  0  0  0  0
    8.3526   -3.3527   22.6859 C   0  0  0  0  0  0  0  0  0  0  0  0
    7.5784   -4.1101   22.5484 H   0  0  0  0  0  0  0  0  0  0  0  0
    8.9288   -3.2592   21.7591 H   0  0  0  0  0  0  0  0  0  0  0  0
    9.2154   -3.7720   23.8206 C   0  0  0  0  0  0  0  0  0  0  0  0
    8.7184   -4.5948   24.7923 N   0  0  0  0  0  0  0  0  0  0  0  0
    9.7004   -4.7930   25.6308 C   0  0  0  0  0  0  0  0  0  0  0  0
    9.6588   -5.4105   26.5175 H   0  0  0  0  0  0  0  0  0  0  0  0
   10.8249   -4.1317   25.2452 N   0  0  0  0  0  0  0  0  0  0  0  0
   11.7091   -4.1444   25.7250 H   0  0  0  0  0  0  0  0  0  0  0  0
   10.5170   -3.4647   24.0815 C   0  0  0  0  0  0  0  0  0  0  0  0
   11.2107   -2.8405   23.5457 H   0  0  0  0  0  0  0  0  0  0  0  0
    5.4711    0.6410   20.0870 C   0  0  0  0  0  0  0  0  0  0  0  0
    5.0514    0.5999   21.0940 H   0  0  0  0  0  0  0  0  0  0  0  0
    4.8342    1.3126   19.0365 C   0  0  0  0  0  0  0  0  0  0  0  0
    3.8935    1.8303   19.1867 H   0  0  0  0  0  0  0  0  0  0  0  0
  1  2  1  0
  2  3  2  0
  3  4  1  0
  4  5  1  0
  4  6  2  0
  6  7  1  0
  7  8  1  0
  7  9  1  0
  9 10  2  0
  9 11  1  0
 11 12  1  0
 11 13  1  0
 11 14  1  0
 14 15  1  0
 14 16  1  0
 14 17  1  0
 17 18  1  0
 18 19  2  0
 19 20  1  0
 19 21  1  0
 21 22  1  0
 21 23  1  0
 23 24  1  0
  6 25  1  0
 25 26  1  0
 25 27  2  0
 27 28  1  0
 27  2  1  0
 23 17  2  0
M  END
>  <cnnaffinity>  (1) 
-4.72023

>  <filename>  (1) 
O=C(Nc1cccnc1)C(F)(F)Cc1c[nH]cn1

$$$$
