
     RDKit          3D

 34 36  0  0  0  0  0  0  0  0999 V2000
    5.3912   -1.3317   21.2787 O   0  0  0  0  0  0  0  0  0  0  0  0
    6.2687   -2.1443   21.0590 C   0  0  0  0  0  0  0  0  0  0  0  0
    7.5516   -1.7220   20.7781 N   0  0  0  0  0  0  0  0  0  0  0  0
    7.8444   -0.3028   20.8118 C   0  0  0  0  0  0  0  0  0  0  0  0
    7.0212    0.2529   19.7034 C   0  0  0  0  0  0  0  0  0  0  0  0
    5.7989    0.8720   19.9635 C   0  0  0  0  0  0  0  0  0  0  0  0
    5.0509    1.3082   18.8752 C   0  0  0  0  0  0  0  0  0  0  0  0
    5.5407    1.1169   17.5795 C   0  0  0  0  0  0  0  0  0  0  0  0
    6.6987    0.4766   17.3348 N   0  0  0  0  0  0  0  0  0  0  0  0
    7.4175    0.0401   18.3820 C   0  0  0  0  0  0  0  0  0  0  0  0
    8.3358   -0.5124   18.1952 H   0  0  0  0  0  0  0  0  0  0  0  0
    4.9639    1.4912   16.7399 H   0  0  0  0  0  0  0  0  0  0  0  0
    4.0936    1.7929   19.0254 H   0  0  0  0  0  0  0  0  0  0  0  0
    5.4341    0.9732   20.9853 H   0  0  0  0  0  0  0  0  0  0  0  0
    7.5770    0.1483   21.7780 H   0  0  0  0  0  0  0  0  0  0  0  0
    8.9093   -0.1241   20.6415 H   0  0  0  0  0  0  0  0  0  0  0  0
    8.0385   -2.2804   20.0852 H   0  0  0  0  0  0  0  0  0  0  0  0
    5.9373   -3.5483   20.9918 C   0  0  0  0  0  0  0  0  0  0  0  0
    5.8055   -4.1543   19.7400 C   0  0  0  0  0  0  0  0  0  0  0  0
    5.8012   -3.0501   18.1737 Br  0  0  0  0  0  0  0  0  0  0  0  0
    5.5928   -5.5350   19.6651 C   0  0  0  0  0  0  0  0  0  0  0  0
    5.4146   -6.2853   20.8326 C   0  0  0  0  0  0  0  0  0  0  0  0
    5.4804   -5.6742   22.0847 C   0  0  0  0  0  0  0  0  0  0  0  0
    5.2913   -6.4348   23.2492 C   0  0  0  0  0  0  0  0  0  0  0  0
    5.4212   -5.8395   24.5040 C   0  0  0  0  0  0  0  0  0  0  0  0
    5.6774   -4.4655   24.5972 C   0  0  0  0  0  0  0  0  0  0  0  0
    5.8424   -3.6934   23.4377 C   0  0  0  0  0  0  0  0  0  0  0  0
    5.7616   -4.2940   22.1702 C   0  0  0  0  0  0  0  0  0  0  0  0
    6.0193   -2.6237   23.5222 H   0  0  0  0  0  0  0  0  0  0  0  0
    5.7544   -3.9918   25.5701 H   0  0  0  0  0  0  0  0  0  0  0  0
    5.3206   -6.4496   25.4002 H   0  0  0  0  0  0  0  0  0  0  0  0
    5.0434   -7.4909   23.1858 H   0  0  0  0  0  0  0  0  0  0  0  0
    5.2338   -7.3531   20.7834 H   0  0  0  0  0  0  0  0  0  0  0  0
    5.5424   -6.0309   18.7014 H   0  0  0  0  0  0  0  0  0  0  0  0
  1  2  2  0
  2  3  1  0
  3  4  1  0
  4  5  1  0
  5  6  2  0
  6  7  1  0
  7  8  2  0
  8  9  1  0
  9 10  2  0
 10 11  1  0
  8 12  1  0
  7 13  1  0
  6 14  1  0
  4 15  1  0
  4 16  1  0
  3 17  1  0
  2 18  1  0
 18 19  2  0
 19 20  1  0
 19 21  1  0
 21 22  2  0
 22 23  1  0
 23 24  2  0
 24 25  1  0
 25 26  2  0
 26 27  1  0
 27 28  2  0
 27 29  1  0
 26 30  1  0
 25 31  1  0
 24 32  1  0
 22 33  1  0
 21 34  1  0
 10  5  1  0
 28 18  1  0
 28 23  1  0
M  END
>  <cnnaffinity>  (1) 
-5.3393

>  <filename>  (1) 
O=C(NCc1cccnc1)c1c(Br)ccc2ccccc12

$$$$
