
     RDKit          3D

 35 37  0  0  0  0  0  0  0  0999 V2000
    9.3859   -2.4353   24.9752 O   0  0  0  0  0  0  0  0  0  0  0  0
    8.4900   -1.7165   25.3837 C   0  0  0  0  0  0  0  0  0  0  0  0
    8.1962   -1.6524   26.8701 C   0  0  0  0  0  0  0  0  0  0  0  0
    7.1977   -2.7201   27.2493 C   0  0  0  0  0  0  0  0  0  0  0  0
    7.6433   -4.0017   27.6144 C   0  0  0  0  0  0  0  0  0  0  0  0
    6.7171   -4.9828   28.0004 C   0  0  0  0  0  0  0  0  0  0  0  0
    5.3444   -4.7031   27.9933 C   0  0  0  0  0  0  0  0  0  0  0  0
    4.0759   -6.0500   28.4925 Br  0  0  0  0  0  0  0  0  0  0  0  0
    4.9070   -3.4278   27.6235 C   0  0  0  0  0  0  0  0  0  0  0  0
    5.8183   -2.4437   27.2573 C   0  0  0  0  0  0  0  0  0  0  0  0
    5.3078   -1.2204   26.9225 O   0  0  0  0  0  0  0  0  0  0  0  0
    4.3391   -1.2579   26.9777 H   0  0  0  0  0  0  0  0  0  0  0  0
    3.8505   -3.1815   27.6237 H   0  0  0  0  0  0  0  0  0  0  0  0
    7.0551   -5.9663   28.3150 H   0  0  0  0  0  0  0  0  0  0  0  0
    8.7091   -4.2152   27.6226 H   0  0  0  0  0  0  0  0  0  0  0  0
    9.1313   -1.7848   27.4176 H   0  0  0  0  0  0  0  0  0  0  0  0
    7.8015   -0.6651   27.1151 H   0  0  0  0  0  0  0  0  0  0  0  0
    7.7265   -1.0206   24.4835 N   0  0  0  0  0  0  0  0  0  0  0  0
    7.8634   -1.1772   23.1319 C   0  0  0  0  0  0  0  0  0  0  0  0
    7.0645   -0.4525   22.4120 N   0  0  0  0  0  0  0  0  0  0  0  0
    7.3588   -0.6449   21.0753 C   0  0  0  0  0  0  0  0  0  0  0  0
    6.6453    0.0271   20.0123 C   0  0  0  0  0  0  0  0  0  0  0  0
    5.4282    0.6866   20.2273 C   0  0  0  0  0  0  0  0  0  0  0  0
    4.8354    1.2976   19.1282 C   0  0  0  0  0  0  0  0  0  0  0  0
    5.4606    1.2441   17.8806 C   0  0  0  0  0  0  0  0  0  0  0  0
    6.6179    0.5924   17.6758 N   0  0  0  0  0  0  0  0  0  0  0  0
    7.1940   -0.0043   18.7270 C   0  0  0  0  0  0  0  0  0  0  0  0
    8.1337   -0.5264   18.5601 H   0  0  0  0  0  0  0  0  0  0  0  0
    4.9948    1.7543   17.0467 H   0  0  0  0  0  0  0  0  0  0  0  0
    3.8986    1.8308   19.2262 H   0  0  0  0  0  0  0  0  0  0  0  0
    4.9606    0.7234   21.2139 H   0  0  0  0  0  0  0  0  0  0  0  0
    8.3843   -1.5128   20.8120 C   0  0  0  0  0  0  0  0  0  0  0  0
    9.0165   -2.1993   22.2773 S   0  0  0  0  0  0  0  0  0  0  0  0
    8.7435   -1.7338   19.8177 H   0  0  0  0  0  0  0  0  0  0  0  0
    6.9822   -0.4157   24.8017 H   0  0  0  0  0  0  0  0  0  0  0  0
  1  2  2  0
  2  3  1  0
  3  4  1  0
  4  5  2  0
  5  6  1  0
  6  7  2  0
  7  8  1  0
  7  9  1  0
  9 10  2  0
 10 11  1  0
 11 12  1  0
  9 13  1  0
  6 14  1  0
  5 15  1  0
  3 16  1  0
  3 17  1  0
  2 18  1  0
 18 19  1  0
 19 20  2  0
 20 21  1  0
 21 22  1  0
 22 23  2  0
 23 24  1  0
 24 25  2  0
 25 26  1  0
 26 27  2  0
 27 28  1  0
 25 29  1  0
 24 30  1  0
 23 31  1  0
 21 32  2  0
 32 33  1  0
 32 34  1  0
 18 35  1  0
 10  4  1  0
 33 19  1  0
 27 22  1  0
M  END
>  <cnnaffinity>  (1) 
-5.14063

>  <filename>  (1) 
O=C(Cc1ccc(Br)cc1O)Nc1nc(-c2cccnc2)cs1

$$$$
