
     RDKit          3D

 37 38  0  0  0  0  0  0  0  0999 V2000
    9.3391    0.6635   20.7353 O   0  0  0  0  0  0  0  0  0  0  0  0
    8.7739   -0.2250   21.3417 C   0  0  0  0  0  0  0  0  0  0  0  0
    9.4259   -1.0046   22.4851 C   0  0  0  0  0  0  0  0  0  0  0  0
   10.9235   -0.8709   22.4466 C   0  0  0  0  0  0  0  0  0  0  0  0
   11.6196   -1.6916   21.5533 C   0  0  0  0  0  0  0  0  0  0  0  0
   13.0077   -1.6007   21.4227 C   0  0  0  0  0  0  0  0  0  0  0  0
   13.6862   -0.5881   22.1108 C   0  0  0  0  0  0  0  0  0  0  0  0
   12.9945    0.2961   22.9434 C   0  0  0  0  0  0  0  0  0  0  0  0
   11.6142    0.1278   23.1519 C   0  0  0  0  0  0  0  0  0  0  0  0
   10.8854    0.9368   24.2073 C   0  0  0  0  0  0  0  0  0  0  0  0
   11.6554    1.8816   24.7759 F   0  0  0  0  0  0  0  0  0  0  0  0
   10.4671    0.1259   25.2052 F   0  0  0  0  0  0  0  0  0  0  0  0
    9.7830    1.5494   23.7230 F   0  0  0  0  0  0  0  0  0  0  0  0
   13.5264    1.1021   23.4466 H   0  0  0  0  0  0  0  0  0  0  0  0
   14.7535   -0.4656   21.9866 H   0  0  0  0  0  0  0  0  0  0  0  0
   13.5361   -2.2830   20.7611 H   0  0  0  0  0  0  0  0  0  0  0  0
   11.0308   -2.3639   20.9396 H   0  0  0  0  0  0  0  0  0  0  0  0
    8.9818   -0.6964   23.4346 H   0  0  0  0  0  0  0  0  0  0  0  0
    9.1796   -2.0615   22.3402 H   0  0  0  0  0  0  0  0  0  0  0  0
    7.4719   -0.6341   20.9991 N   0  0  0  0  0  0  0  0  0  0  0  0
    6.7087   -1.6783   21.6881 C   0  0  0  0  0  0  0  0  0  0  0  0
    6.6725   -3.0052   20.9459 C   0  0  0  0  0  0  0  0  0  0  0  0
    5.9764   -2.8914   19.7844 F   0  0  0  0  0  0  0  0  0  0  0  0
    6.0194   -3.9123   21.7291 F   0  0  0  0  0  0  0  0  0  0  0  0
    7.6734   -3.3979   20.7260 H   0  0  0  0  0  0  0  0  0  0  0  0
    7.0834   -1.8612   22.6997 H   0  0  0  0  0  0  0  0  0  0  0  0
    5.6682   -1.3675   21.7970 H   0  0  0  0  0  0  0  0  0  0  0  0
    6.7786    0.0100   19.9083 C   0  0  0  0  0  0  0  0  0  0  0  0
    5.5606    0.6568   20.1601 C   0  0  0  0  0  0  0  0  0  0  0  0
    4.8820    1.2776   19.1054 C   0  0  0  0  0  0  0  0  0  0  0  0
    5.4400    1.2161   17.8244 C   0  0  0  0  0  0  0  0  0  0  0  0
    6.5969    0.5917   17.5526 N   0  0  0  0  0  0  0  0  0  0  0  0
    7.2470    0.0142   18.5747 C   0  0  0  0  0  0  0  0  0  0  0  0
    8.1905   -0.4701   18.3275 H   0  0  0  0  0  0  0  0  0  0  0  0
    4.9390    1.6846   16.9785 H   0  0  0  0  0  0  0  0  0  0  0  0
    3.9395    1.7913   19.2658 H   0  0  0  0  0  0  0  0  0  0  0  0
    5.1746    0.6785   21.1811 H   0  0  0  0  0  0  0  0  0  0  0  0
  1  2  2  0
  2  3  1  0
  3  4  1  0
  4  5  2  0
  5  6  1  0
  6  7  2  0
  7  8  1  0
  8  9  2  0
  9 10  1  0
 10 11  1  0
 10 12  1  0
 10 13  1  0
  8 14  1  0
  7 15  1  0
  6 16  1  0
  5 17  1  0
  3 18  1  0
  3 19  1  0
  2 20  1  0
 20 21  1  0
 21 22  1  0
 22 23  1  0
 22 24  1  0
 22 25  1  0
 21 26  1  0
 21 27  1  0
 20 28  1  0
 28 29  2  0
 29 30  1  0
 30 31  2  0
 31 32  1  0
 32 33  2  0
 33 34  1  0
 31 35  1  0
 30 36  1  0
 29 37  1  0
  9  4  1  0
 33 28  1  0
M  END
>  <cnnaffinity>  (1) 
-5.35254

>  <filename>  (1) 
O=C(Cc1ccccc1C(F)(F)F)N(CC(F)F)c1cccnc1

$$$$
