
     RDKit          3D

 33 35  0  0  0  0  0  0  0  0999 V2000
    4.9337    1.7848   17.0018 H   0  0  0  0  0  0  0  0  0  0  0  0
    5.4025    1.2894   17.8508 C   0  0  0  0  0  0  0  0  0  0  0  0
    6.5585    0.6590   17.5948 N   0  0  0  0  0  0  0  0  0  0  0  0
    7.1588    0.0262   18.6082 C   0  0  0  0  0  0  0  0  0  0  0  0
    8.1217   -0.4263   18.3848 H   0  0  0  0  0  0  0  0  0  0  0  0
    6.6251   -0.0472   19.9104 C   0  0  0  0  0  0  0  0  0  0  0  0
    7.3206   -0.7446   20.9526 N   0  0  0  0  0  0  0  0  0  0  0  0
    6.5601   -1.6340   21.7053 N   0  0  0  0  0  0  0  0  0  0  0  0
    7.1745   -2.3130   22.6291 C   0  0  0  0  0  0  0  0  0  0  0  0
    6.3963   -3.2270   23.3491 N   0  0  0  0  0  0  0  0  0  0  0  0
    5.4176   -3.0005   23.3851 H   0  0  0  0  0  0  0  0  0  0  0  0
    6.8765   -4.4166   23.8387 C   0  0  0  0  0  0  0  0  0  0  0  0
    8.0139   -4.7839   23.6015 O   0  0  0  0  0  0  0  0  0  0  0  0
    5.9399   -5.2664   24.7353 C   0  0  0  0  0  0  0  0  0  0  0  0
    6.4903   -6.1215   25.7206 C   0  0  0  0  0  0  0  0  0  0  0  0
    7.5616   -6.2081   25.8564 H   0  0  0  0  0  0  0  0  0  0  0  0
    5.6552   -6.9211   26.5077 C   0  0  0  0  0  0  0  0  0  0  0  0
    6.0672   -7.5828   27.2646 H   0  0  0  0  0  0  0  0  0  0  0  0
    4.3222   -6.9417   26.3872 N   0  0  0  0  0  0  0  0  0  0  0  0
    3.7878   -6.1401   25.4632 C   0  0  0  0  0  0  0  0  0  0  0  0
    2.7036   -6.1654   25.3879 H   0  0  0  0  0  0  0  0  0  0  0  0
    4.5356   -5.3008   24.6237 C   0  0  0  0  0  0  0  0  0  0  0  0
    3.9923   -4.7289   23.8809 H   0  0  0  0  0  0  0  0  0  0  0  0
    8.5489   -2.1035   22.9898 C   0  0  0  0  0  0  0  0  0  0  0  0
    8.9463   -2.6818   23.8125 H   0  0  0  0  0  0  0  0  0  0  0  0
    9.2713   -1.1789   22.3101 C   0  0  0  0  0  0  0  0  0  0  0  0
   10.3124   -0.9568   22.5067 H   0  0  0  0  0  0  0  0  0  0  0  0
    8.6914   -0.4099   21.2153 C   0  0  0  0  0  0  0  0  0  0  0  0
    9.3041    0.4273   20.5726 O   0  0  0  0  0  0  0  0  0  0  0  0
    5.4256    0.6230   20.1719 C   0  0  0  0  0  0  0  0  0  0  0  0
    5.0139    0.5996   21.1791 H   0  0  0  0  0  0  0  0  0  0  0  0
    4.8105    1.3095   19.1187 C   0  0  0  0  0  0  0  0  0  0  0  0
    3.8816    1.8471   19.2605 H   0  0  0  0  0  0  0  0  0  0  0  0
  1  2  1  0
  2  3  2  0
  3  4  1  0
  4  5  1  0
  4  6  2  0
  6  7  1  0
  7  8  1  0
  8  9  2  0
  9 10  1  0
 10 11  1  0
 10 12  1  0
 12 13  2  0
 12 14  1  0
 14 15  2  0
 15 16  1  0
 15 17  1  0
 17 18  1  0
 17 19  2  0
 19 20  1  0
 20 21  1  0
 20 22  2  0
 22 23  1  0
  9 24  1  0
 24 25  1  0
 24 26  2  0
 26 27  1  0
 26 28  1  0
 28 29  2  0
  6 30  1  0
 30 31  1  0
 30 32  2  0
 32 33  1  0
 32  2  1  0
 28  7  1  0
 22 14  1  0
M  END
>  <cnnaffinity>  (1) 
-5.29936

>  <filename>  (1) 
O=C(Nc1ccc(=O)n(-c2cccnc2)n1)c1ccncc1

$$$$
