
     RDKit          3D

 35 38  0  0  0  0  0  0  0  0999 V2000
    4.9889    1.7832   16.8648 H   0  0  0  0  0  0  0  0  0  0  0  0
    5.4665    1.3260   17.7289 C   0  0  0  0  0  0  0  0  0  0  0  0
    6.6389    0.7128   17.5100 N   0  0  0  0  0  0  0  0  0  0  0  0
    7.2436    0.1240   18.5460 C   0  0  0  0  0  0  0  0  0  0  0  0
    8.1879   -0.3753   18.3309 H   0  0  0  0  0  0  0  0  0  0  0  0
    6.7174    0.1108   19.8502 C   0  0  0  0  0  0  0  0  0  0  0  0
    7.3876   -0.6429   20.9295 C   0  0  0  0  0  0  0  0  0  0  0  0
    8.6124   -1.1730   20.7818 N   0  0  0  0  0  0  0  0  0  0  0  0
    8.7619   -1.8922   21.9176 N   0  0  0  0  0  0  0  0  0  0  0  0
    9.7187   -2.7750   22.4027 C   0  0  0  0  0  0  0  0  0  0  0  0
   10.6839   -2.8544   21.9415 H   0  0  0  0  0  0  0  0  0  0  0  0
    9.1899   -3.3513   23.4965 C   0  0  0  0  0  0  0  0  0  0  0  0
    9.5880   -4.1163   24.1468 H   0  0  0  0  0  0  0  0  0  0  0  0
    7.9234   -2.7909   23.7465 N   0  0  0  0  0  0  0  0  0  0  0  0
    7.0420   -3.2479   24.7619 C   0  0  0  0  0  0  0  0  0  0  0  0
    7.1466   -4.3590   25.2315 O   0  0  0  0  0  0  0  0  0  0  0  0
    6.1357   -2.3109   25.1735 N   0  0  0  0  0  0  0  0  0  0  0  0
    6.0935   -1.4616   24.6400 H   0  0  0  0  0  0  0  0  0  0  0  0
    5.1553   -2.4949   26.1432 C   0  0  0  0  0  0  0  0  0  0  0  0
    3.9874   -1.7416   26.0362 C   0  0  0  0  0  0  0  0  0  0  0  0
    3.8538   -1.0200   25.2385 H   0  0  0  0  0  0  0  0  0  0  0  0
    2.9886   -1.9750   26.9730 C   0  0  0  0  0  0  0  0  0  0  0  0
    2.0464   -1.4314   26.9109 H   0  0  0  0  0  0  0  0  0  0  0  0
    3.1032   -2.8445   27.9831 N   0  0  0  0  0  0  0  0  0  0  0  0
    4.2535   -3.5280   28.0833 C   0  0  0  0  0  0  0  0  0  0  0  0
    4.3291   -4.2242   28.9195 H   0  0  0  0  0  0  0  0  0  0  0  0
    5.3143   -3.3993   27.1958 C   0  0  0  0  0  0  0  0  0  0  0  0
    6.2177   -3.9846   27.2992 H   0  0  0  0  0  0  0  0  0  0  0  0
    7.6956   -1.8538   22.7318 C   0  0  0  0  0  0  0  0  0  0  0  0
    6.7926   -0.9766   22.1723 C   0  0  0  0  0  0  0  0  0  0  0  0
    5.9633   -0.4755   22.6218 H   0  0  0  0  0  0  0  0  0  0  0  0
    5.4901    0.7647   20.0597 C   0  0  0  0  0  0  0  0  0  0  0  0
    5.0424    0.8016   21.0523 H   0  0  0  0  0  0  0  0  0  0  0  0
    4.8546    1.3713   18.9823 C   0  0  0  0  0  0  0  0  0  0  0  0
    3.9061    1.8766   19.1054 H   0  0  0  0  0  0  0  0  0  0  0  0
  1  2  1  0
  2  3  2  0
  3  4  1  0
  4  5  1  0
  4  6  2  0
  6  7  1  0
  7  8  2  0
  8  9  1  0
  9 10  1  0
 10 11  1  0
 10 12  2  0
 12 13  1  0
 12 14  1  0
 14 15  1  0
 15 16  2  0
 15 17  1  0
 17 18  1  0
 17 19  1  0
 19 20  2  0
 20 21  1  0
 20 22  1  0
 22 23  1  0
 22 24  2  0
 24 25  1  0
 25 26  1  0
 25 27  2  0
 27 28  1  0
 14 29  1  0
 29 30  2  0
 30 31  1  0
  6 32  1  0
 32 33  1  0
 32 34  2  0
 34 35  1  0
 34  2  1  0
 30  7  1  0
 29  9  1  0
 27 19  1  0
M  END
>  <cnnaffinity>  (1) 
-5.65408

>  <filename>  (1) 
O=C(Nc1ccncc1)n1ccn2nc(-c3cccnc3)cc12

$$$$
