
     RDKit          3D

 46 49  0  0  0  0  0  0  0  0999 V2000
    4.9329    1.7920   16.9950 H   0  0  0  0  0  0  0  0  0  0  0  0
    5.4087    1.2910   17.8354 C   0  0  0  0  0  0  0  0  0  0  0  0
    6.5729    0.6730   17.5798 N   0  0  0  0  0  0  0  0  0  0  0  0
    7.1852    0.0529   18.5993 C   0  0  0  0  0  0  0  0  0  0  0  0
    8.1303   -0.4223   18.3415 H   0  0  0  0  0  0  0  0  0  0  0  0
    6.6915   -0.0024   19.9364 C   0  0  0  0  0  0  0  0  0  0  0  0
    7.3260   -0.6811   20.9718 N   0  0  0  0  0  0  0  0  0  0  0  0
    7.2208   -0.3232   22.4039 C   0  0  0  0  0  0  0  0  0  0  0  0
    6.3070   -0.7341   22.8595 H   0  0  0  0  0  0  0  0  0  0  0  0
    7.2360    0.7625   22.5665 H   0  0  0  0  0  0  0  0  0  0  0  0
    8.4856   -1.0270   22.9812 C   0  0  2  0  0  0  0  0  0  0  0  0
    8.4728   -1.1368   24.0687 H   0  0  0  0  0  0  0  0  0  0  0  0
    9.7112   -0.3423   22.4943 N   0  0  0  0  0  0  0  0  0  0  0  0
   10.2705    0.7129   23.1904 C   0  0  0  0  0  0  0  0  0  0  0  0
    9.8703    1.0576   24.2929 O   0  0  0  0  0  0  0  0  0  0  0  0
   11.3190    1.3324   22.5663 N   0  0  0  0  0  0  0  0  0  0  0  0
   11.6300    0.9285   21.7017 H   0  0  0  0  0  0  0  0  0  0  0  0
   11.9718    2.5060   23.1354 C   0  0  0  0  0  0  0  0  0  0  0  0
   12.9232    2.6656   22.6100 H   0  0  0  0  0  0  0  0  0  0  0  0
   12.1873    2.3179   24.1961 H   0  0  0  0  0  0  0  0  0  0  0  0
   11.1043    3.7760   23.0081 C   0  0  0  0  0  0  0  0  0  0  0  0
   10.1397    3.5833   23.4944 H   0  0  0  0  0  0  0  0  0  0  0  0
   10.9023    3.9100   21.9462 H   0  0  0  0  0  0  0  0  0  0  0  0
   11.7460    5.0240   23.5825 C   0  0  0  0  0  0  0  0  0  0  0  0
   12.6089    5.8271   22.8185 C   0  0  0  0  0  0  0  0  0  0  0  0
   12.7463    5.6050   21.7604 H   0  0  0  0  0  0  0  0  0  0  0  0
   13.2372    6.9475   23.3817 C   0  0  0  0  0  0  0  0  0  0  0  0
   13.8705    7.5816   22.7628 H   0  0  0  0  0  0  0  0  0  0  0  0
   13.0370    7.2613   24.7324 C   0  0  0  0  0  0  0  0  0  0  0  0
   13.5232    8.1334   25.1665 H   0  0  0  0  0  0  0  0  0  0  0  0
   12.1874    6.4635   25.5058 C   0  0  0  0  0  0  0  0  0  0  0  0
   12.0416    6.6765   26.5623 H   0  0  0  0  0  0  0  0  0  0  0  0
   11.5131    5.3880   24.9173 C   0  0  0  0  0  0  0  0  0  0  0  0
   10.7395    4.8595   25.4670 H   0  0  0  0  0  0  0  0  0  0  0  0
    9.7914   -0.6065   21.0402 C   0  0  0  0  0  0  0  0  0  0  0  0
    9.7290    0.2907   20.4116 H   0  0  0  0  0  0  0  0  0  0  0  0
   10.6904   -1.1761   20.7738 H   0  0  0  0  0  0  0  0  0  0  0  0
    8.5437   -1.4778   20.8266 C   0  0  1  0  0  0  0  0  0  0  0  0
    8.5751   -1.9807   19.8777 H   0  0  0  0  0  0  0  0  0  0  0  0
    8.5109   -2.2980   22.1183 C   0  0  0  0  0  0  0  0  0  0  0  0
    9.3857   -2.9362   22.2840 H   0  0  0  0  0  0  0  0  0  0  0  0
    7.6023   -2.9008   22.2082 H   0  0  0  0  0  0  0  0  0  0  0  0
    5.4601    0.6491   20.1626 C   0  0  0  0  0  0  0  0  0  0  0  0
    5.0274    0.6331   21.1615 H   0  0  0  0  0  0  0  0  0  0  0  0
    4.8219    1.3020   19.1054 C   0  0  0  0  0  0  0  0  0  0  0  0
    3.8843    1.8305   19.2580 H   0  0  0  0  0  0  0  0  0  0  0  0
  1  2  1  0
  2  3  2  0
  3  4  1  0
  4  5  1  0
  4  6  2  0
  6  7  1  0
  7  8  1  0
  8  9  1  0
  8 10  1  0
  8 11  1  0
 11 12  1  1
 11 13  1  0
 13 14  1  0
 14 15  2  0
 14 16  1  0
 16 17  1  0
 16 18  1  0
 18 19  1  0
 18 20  1  0
 18 21  1  0
 21 22  1  0
 21 23  1  0
 21 24  1  0
 24 25  2  0
 25 26  1  0
 25 27  1  0
 27 28  1  0
 27 29  2  0
 29 30  1  0
 29 31  1  0
 31 32  1  0
 31 33  2  0
 33 34  1  0
 13 35  1  0
 35 36  1  0
 35 37  1  0
 35 38  1  0
 38 39  1  6
 38 40  1  0
 40 41  1  0
 40 42  1  0
  6 43  1  0
 43 44  1  0
 43 45  2  0
 45 46  1  0
 45  2  1  0
 38  7  1  0
 40 11  1  0
 33 24  1  0
M  END
>  <cnnaffinity>  (1) 
-5.38926

>  <filename>  (1) 
O=C(NCCc1ccccc1)N1C[C@H]2C[C@@H]1CN2c1cccnc1

$$$$
