
     RDKit          3D

 30 32  0  0  0  0  0  0  0  0999 V2000
    4.9791    1.8055   16.9620 H   0  0  0  0  0  0  0  0  0  0  0  0
    5.4467    1.3131   17.8100 C   0  0  0  0  0  0  0  0  0  0  0  0
    6.6097    0.6892   17.5604 N   0  0  0  0  0  0  0  0  0  0  0  0
    7.2043    0.0736   18.5864 C   0  0  0  0  0  0  0  0  0  0  0  0
    8.1454   -0.4362   18.3713 H   0  0  0  0  0  0  0  0  0  0  0  0
    6.6681    0.0221   19.8842 C   0  0  0  0  0  0  0  0  0  0  0  0
    7.3348   -0.7540   20.9327 C   0  0  0  0  0  0  0  0  0  0  0  0
    6.6599   -1.5759   21.8050 C   0  0  0  0  0  0  0  0  0  0  0  0
    5.5890   -1.6944   21.7162 H   0  0  0  0  0  0  0  0  0  0  0  0
    7.3569   -2.2641   22.8065 C   0  0  0  0  0  0  0  0  0  0  0  0
    6.8048   -2.8724   23.5241 H   0  0  0  0  0  0  0  0  0  0  0  0
    8.7369   -2.1135   22.9170 C   0  0  0  0  0  0  0  0  0  0  0  0
    9.5752   -2.7452   23.9249 C   0  0  0  0  0  0  0  0  0  0  0  0
   10.6642   -3.2120   23.6556 O   0  0  0  0  0  0  0  0  0  0  0  0
    9.0073   -2.8284   25.2918 C   0  0  0  0  0  0  0  0  0  0  0  0
    9.4497   -4.1538   26.2965 S   0  0  0  0  0  0  0  0  0  0  0  0
    8.2978   -3.6936   27.4754 C   0  0  0  0  0  0  0  0  0  0  0  0
    8.1616   -4.3066   28.3529 H   0  0  0  0  0  0  0  0  0  0  0  0
    7.6406   -2.5406   27.1507 C   0  0  0  0  0  0  0  0  0  0  0  0
    6.8759   -2.0762   27.7678 H   0  0  0  0  0  0  0  0  0  0  0  0
    8.0623   -2.0308   25.8966 C   0  0  0  0  0  0  0  0  0  0  0  0
    7.6354   -1.1419   25.4419 H   0  0  0  0  0  0  0  0  0  0  0  0
    9.4672   -1.2331   22.0356 C   0  0  0  0  0  0  0  0  0  0  0  0
   10.6270   -0.8878   22.1150 O   0  0  0  0  0  0  0  0  0  0  0  0
    8.7012   -0.6845   21.0195 N   0  0  0  0  0  0  0  0  0  0  0  0
    9.2508    0.0164   20.5528 H   0  0  0  0  0  0  0  0  0  0  0  0
    5.4459    0.6735   20.1285 C   0  0  0  0  0  0  0  0  0  0  0  0
    5.0160    0.6897   21.1350 H   0  0  0  0  0  0  0  0  0  0  0  0
    4.8322    1.3345   19.0673 C   0  0  0  0  0  0  0  0  0  0  0  0
    3.8884    1.8501   19.1989 H   0  0  0  0  0  0  0  0  0  0  0  0
  1  2  1  0
  2  3  2  0
  3  4  1  0
  4  5  1  0
  4  6  2  0
  6  7  1  0
  7  8  2  0
  8  9  1  0
  8 10  1  0
 10 11  1  0
 10 12  2  0
 12 13  1  0
 13 14  2  0
 13 15  1  0
 15 16  1  0
 16 17  1  0
 17 18  1  0
 17 19  2  0
 19 20  1  0
 19 21  1  0
 21 22  1  0
 12 23  1  0
 23 24  2  0
 23 25  1  0
 25 26  1  0
  6 27  1  0
 27 28  1  0
 27 29  2  0
 29 30  1  0
 29  2  1  0
 25  7  1  0
 21 15  2  0
M  END
>  <cnnaffinity>  (1) 
-5.38963

>  <filename>  (1) 
O=C(c1cccs1)c1ccc(-c2cccnc2)[nH]c1=O

$$$$
