
     RDKit          3D

 37 39  0  0  0  0  0  0  0  0999 V2000
    4.8823    1.8541   16.9782 H   0  0  0  0  0  0  0  0  0  0  0  0
    5.3707    1.3182   17.7891 C   0  0  0  0  0  0  0  0  0  0  0  0
    6.5199    0.6983   17.4755 N   0  0  0  0  0  0  0  0  0  0  0  0
    7.1650    0.0491   18.4544 C   0  0  0  0  0  0  0  0  0  0  0  0
    8.1038   -0.4335   18.1962 H   0  0  0  0  0  0  0  0  0  0  0  0
    6.6891   -0.0321   19.7837 C   0  0  0  0  0  0  0  0  0  0  0  0
    7.3794   -0.7213   20.8161 N   0  0  0  0  0  0  0  0  0  0  0  0
    6.8069   -1.0331   21.5829 H   0  0  0  0  0  0  0  0  0  0  0  0
    8.7498   -0.7241   21.0013 C   0  0  0  0  0  0  0  0  0  0  0  0
    9.5047   -0.1847   20.2139 O   0  0  0  0  0  0  0  0  0  0  0  0
    9.2721   -1.4739   22.2599 C   0  0  0  0  0  0  0  0  0  0  0  0
    8.5802   -2.2888   22.5024 H   0  0  0  0  0  0  0  0  0  0  0  0
   10.2050   -1.9545   21.9429 H   0  0  0  0  0  0  0  0  0  0  0  0
    9.5536   -0.7060   23.4816 N   0  0  0  0  0  0  0  0  0  0  0  0
    8.3154   -0.2825   24.1717 C   0  0  0  0  0  0  0  0  0  0  0  0
    7.5867    0.1449   23.4522 H   0  0  0  0  0  0  0  0  0  0  0  0
    7.8459   -1.1757   24.5960 H   0  0  0  0  0  0  0  0  0  0  0  0
    8.5160    0.6893   25.3291 C   0  0  0  0  0  0  0  0  0  0  0  0
    7.4258    0.4383   26.4359 C   0  0  0  0  0  0  0  0  0  0  0  0
    6.5782   -0.1747   26.2208 H   0  0  0  0  0  0  0  0  0  0  0  0
    7.5173    1.5527   27.0983 C   0  0  0  0  0  0  0  0  0  0  0  0
    6.9572    1.2028   28.5148 H   0  0  0  0  0  0  0  0  0  0  0  0
    7.3874    1.5326   27.5471 C   0  0  0  0  0  0  0  0  0  0  0  0
    8.5566    1.8277   27.7058 H   0  0  0  0  0  0  0  0  0  0  0  0
    9.0512    2.0451   25.5414 C   0  0  0  0  0  0  0  0  0  0  0  0
   10.4257    0.8201   26.7338 H   0  0  0  0  0  0  0  0  0  0  0  0
   10.0602    1.1054   25.7108 C   0  0  0  0  0  0  0  0  0  0  0  0
   11.1633    0.7824   24.6278 C   0  0  0  0  0  0  0  0  0  0  0  0
   11.8306    1.6442   24.4853 H   0  0  0  0  0  0  0  0  0  0  0  0
   11.7699   -0.0380   25.0204 H   0  0  0  0  0  0  0  0  0  0  0  0
   10.5375    0.3780   23.2890 C   0  0  0  0  0  0  0  0  0  0  0  0
   11.3138    0.0190   22.6017 H   0  0  0  0  0  0  0  0  0  0  0  0
   10.0888    1.2679   22.8163 H   0  0  0  0  0  0  0  0  0  0  0  0
    5.4729    0.5928   20.0867 C   0  0  0  0  0  0  0  0  0  0  0  0
    5.0793    0.5535   21.1021 H   0  0  0  0  0  0  0  0  0  0  0  0
    4.8102    1.2906   19.0701 C   0  0  0  0  0  0  0  0  0  0  0  0
    3.8826    1.8184   19.2615 H   0  0  0  0  0  0  0  0  0  0  0  0
  1  2  1  0
  2  3  2  0
  3  4  1  0
  4  5  1  0
  4  6  2  0
  6  7  1  0
  7  8  1  0
  7  9  1  0
  9 10  2  0
  9 11  1  0
 11 12  1  0
 11 13  1  0
 11 14  1  0
 14 15  1  0
 15 16  1  0
 15 17  1  0
 15 18  1  0
 18 19  2  0
 19 20  1  0
 19 21  1  0
 21 22  1  0
 21 23  2  0
 23 24  1  0
 23 25  1  0
 25 26  1  0
 25 27  2  0
 27 28  1  0
 28 29  1  0
 28 30  1  0
 28 31  1  0
 31 32  1  0
 31 33  1  0
  6 34  1  0
 34 35  1  0
 34 36  2  0
 36 37  1  0
 36  2  1  0
 31 14  1  0
 27 18  1  0
M  END
>  <cnnaffinity>  (1) 
-4.76267

>  <filename>  (1) 
O=C(CN1CCc2ccccc2C1)Nc1cccnc1

$$$$
