
     RDKit          3D

 37 40  0  0  0  0  0  0  0  0999 V2000
    7.0318   -3.9769   24.8836 O   0  0  0  0  0  0  0  0  0  0  0  0
    6.5143   -2.9200   24.5907 C   0  0  0  0  0  0  0  0  0  0  0  0
    7.3368   -1.6659   24.4799 C   0  0  0  0  0  0  0  0  0  0  0  0
    7.7259   -1.4917   23.0527 C   0  0  0  0  0  0  0  0  0  0  0  0
    8.8224   -2.0165   22.4496 C   0  0  0  0  0  0  0  0  0  0  0  0
    8.8551   -1.5622   20.7917 S   0  0  0  0  0  0  0  0  0  0  0  0
    7.3434   -0.7128   21.0209 C   0  0  0  0  0  0  0  0  0  0  0  0
    6.6454   -0.0024   19.9379 C   0  0  0  0  0  0  0  0  0  0  0  0
    5.4232    0.6562   20.1721 C   0  0  0  0  0  0  0  0  0  0  0  0
    4.8023    1.3067   19.1090 C   0  0  0  0  0  0  0  0  0  0  0  0
    5.4204    1.2788   17.8538 C   0  0  0  0  0  0  0  0  0  0  0  0
    6.5830    0.6529   17.6128 N   0  0  0  0  0  0  0  0  0  0  0  0
    7.1784    0.0364   18.6382 C   0  0  0  0  0  0  0  0  0  0  0  0
    8.1287   -0.4479   18.4087 H   0  0  0  0  0  0  0  0  0  0  0  0
    4.9633    1.7810   17.0049 H   0  0  0  0  0  0  0  0  0  0  0  0
    3.8669    1.8425   19.2413 H   0  0  0  0  0  0  0  0  0  0  0  0
    4.9852    0.6538   21.1710 H   0  0  0  0  0  0  0  0  0  0  0  0
    6.8883   -0.7840   22.2399 N   0  0  0  0  0  0  0  0  0  0  0  0
    9.5923   -2.6200   22.9054 H   0  0  0  0  0  0  0  0  0  0  0  0
    8.2058   -1.8197   25.1202 H   0  0  0  0  0  0  0  0  0  0  0  0
    6.7683   -0.7998   24.8116 H   0  0  0  0  0  0  0  0  0  0  0  0
    5.1882   -2.7831   24.3042 N   0  0  0  0  0  0  0  0  0  0  0  0
    4.2879   -3.8404   24.0873 C   0  0  0  0  0  0  0  0  0  0  0  0
    2.8956   -3.7327   24.3431 C   0  0  0  0  0  0  0  0  0  0  0  0
    2.1182   -2.6824   24.8231 N   0  0  0  0  0  0  0  0  0  0  0  0
    0.9092   -3.1602   24.8618 C   0  0  0  0  0  0  0  0  0  0  0  0
    0.8112   -4.4525   24.4262 N   0  0  0  0  0  0  0  0  0  0  0  0
    2.0826   -4.8600   24.0934 C   0  0  0  0  0  0  0  0  0  0  0  0
    2.5956   -6.0961   23.6709 C   0  0  0  0  0  0  0  0  0  0  0  0
    3.9793   -6.1700   23.5221 C   0  0  0  0  0  0  0  0  0  0  0  0
    4.7799   -7.6987   23.3448 Cl  0  0  0  0  0  0  0  0  0  0  0  0
    4.8067   -5.0481   23.6356 C   0  0  0  0  0  0  0  0  0  0  0  0
    5.8600   -5.1140   23.4078 H   0  0  0  0  0  0  0  0  0  0  0  0
    1.9586   -6.9480   23.4697 H   0  0  0  0  0  0  0  0  0  0  0  0
   -0.0255   -5.0098   24.4113 H   0  0  0  0  0  0  0  0  0  0  0  0
    0.0386   -2.6128   25.1974 H   0  0  0  0  0  0  0  0  0  0  0  0
    4.8492   -1.8458   24.1597 H   0  0  0  0  0  0  0  0  0  0  0  0
  1  2  2  0
  2  3  1  0
  3  4  1  0
  4  5  2  0
  5  6  1  0
  6  7  1  0
  7  8  1  0
  8  9  2  0
  9 10  1  0
 10 11  2  0
 11 12  1  0
 12 13  2  0
 13 14  1  0
 11 15  1  0
 10 16  1  0
  9 17  1  0
  7 18  2  0
  5 19  1  0
  3 20  1  0
  3 21  1  0
  2 22  1  0
 22 23  1  0
 23 24  2  0
 24 25  1  0
 25 26  2  0
 26 27  1  0
 27 28  1  0
 28 29  2  0
 29 30  1  0
 30 31  1  0
 30 32  2  0
 32 33  1  0
 29 34  1  0
 27 35  1  0
 26 36  1  0
 22 37  1  0
 18  4  1  0
 32 23  1  0
 13  8  1  0
 28 24  1  0
M  END
>  <cnnaffinity>  (1) 
-5.86753

>  <filename>  (1) 
O=C(Cc1csc(-c2cccnc2)n1)Nc1cc(Cl)cc2[nH]cnc12

$$$$
