
     RDKit          3D

 28 29  0  0  0  0  0  0  0  0999 V2000
    5.5935   -1.1088   21.8238 H   0  0  0  0  0  0  0  0  0  0  0  0
    6.6293   -1.3975   21.7990 C   0  0  0  0  0  0  0  0  0  0  0  0
    7.0719   -2.3209   22.8170 C   0  0  0  0  0  0  0  0  0  0  0  0
    6.2243   -2.8086   23.5483 O   0  0  0  0  0  0  0  0  0  0  0  0
    8.4039   -2.6531   22.9000 N   0  0  0  0  0  0  0  0  0  0  0  0
    9.0412   -2.1474   22.2950 H   0  0  0  0  0  0  0  0  0  0  0  0
    8.9669   -3.4934   23.8310 C   0  0  0  0  0  0  0  0  0  0  0  0
   10.3367   -3.6041   23.8939 C   0  0  0  0  0  0  0  0  0  0  0  0
   10.9673   -3.0532   23.2110 H   0  0  0  0  0  0  0  0  0  0  0  0
   10.9128   -4.4428   24.8425 C   0  0  0  0  0  0  0  0  0  0  0  0
   11.9936   -4.5312   24.8705 H   0  0  0  0  0  0  0  0  0  0  0  0
   10.1672   -5.1475   25.7053 N   0  0  0  0  0  0  0  0  0  0  0  0
    8.8303   -5.0417   25.6425 C   0  0  0  0  0  0  0  0  0  0  0  0
    8.2049   -5.6001   26.3329 H   0  0  0  0  0  0  0  0  0  0  0  0
    8.2009   -4.2212   24.7183 C   0  0  0  0  0  0  0  0  0  0  0  0
    7.1259   -4.1555   24.7116 H   0  0  0  0  0  0  0  0  0  0  0  0
    7.3927   -0.9163   20.7652 C   0  0  0  0  0  0  0  0  0  0  0  0
    9.2338   -1.4280   20.5827 Br  0  0  0  0  0  0  0  0  0  0  0  0
    6.7464   -0.0731   19.7625 C   0  0  0  0  0  0  0  0  0  0  0  0
    7.3369    0.1076   18.5025 C   0  0  0  0  0  0  0  0  0  0  0  0
    8.3050   -0.3414   18.2970 H   0  0  0  0  0  0  0  0  0  0  0  0
    6.7498    0.7976   17.5093 N   0  0  0  0  0  0  0  0  0  0  0  0
    5.5520    1.3578   17.7477 C   0  0  0  0  0  0  0  0  0  0  0  0
    5.0633    1.9230   16.9633 H   0  0  0  0  0  0  0  0  0  0  0  0
    4.9057    1.2306   18.9769 C   0  0  0  0  0  0  0  0  0  0  0  0
    3.9503    1.7072   19.1312 H   0  0  0  0  0  0  0  0  0  0  0  0
    5.5001    0.5134   20.0030 C   0  0  0  0  0  0  0  0  0  0  0  0
    5.0096    0.4091   20.9703 H   0  0  0  0  0  0  0  0  0  0  0  0
  1  2  1  0
  2  3  1  0
  3  4  2  0
  3  5  1  0
  5  6  1  0
  5  7  1  0
  7  8  2  0
  8  9  1  0
  8 10  1  0
 10 11  1  0
 10 12  2  0
 12 13  1  0
 13 14  1  0
 13 15  2  0
 15 16  1  0
  2 17  2  3
 17 18  1  0
 17 19  1  0
 19 20  2  0
 20 21  1  0
 20 22  1  0
 22 23  2  0
 23 24  1  0
 23 25  1  0
 25 26  1  0
 25 27  2  0
 27 28  1  0
 15  7  1  0
 27 19  1  0
M  END
>  <cnnaffinity>  (1) 
-4.56966

>  <filename>  (1) 
O=C(C=C(Br)c1cccnc1)Nc1ccncc1

$$$$
