
     RDKit          3D

 31 33  0  0  0  0  0  0  0  0999 V2000
    4.9639    1.7852   16.9325 H   0  0  0  0  0  0  0  0  0  0  0  0
    5.4049    1.3152   17.8151 C   0  0  0  0  0  0  0  0  0  0  0  0
    6.5742    0.6827   17.6352 N   0  0  0  0  0  0  0  0  0  0  0  0
    7.1294    0.0890   18.6980 C   0  0  0  0  0  0  0  0  0  0  0  0
    8.0823   -0.4046   18.5134 H   0  0  0  0  0  0  0  0  0  0  0  0
    6.5717    0.0781   19.9876 C   0  0  0  0  0  0  0  0  0  0  0  0
    7.2453   -0.6685   21.0480 C   0  0  0  0  0  0  0  0  0  0  0  0
    7.7416   -1.9088   21.0694 C   0  0  0  0  0  0  0  0  0  0  0  0
    7.7383   -2.7102   20.3667 H   0  0  0  0  0  0  0  0  0  0  0  0
    8.2544   -2.2131   22.3017 O   0  0  0  0  0  0  0  0  0  0  0  0
    8.0705   -1.1491   23.1131 C   0  0  0  0  0  0  0  0  0  0  0  0
    8.4125   -1.0877   24.2679 O   0  0  0  0  0  0  0  0  0  0  0  0
    7.4169   -0.1973   22.3633 N   0  0  0  0  0  0  0  0  0  0  0  0
    7.3586    1.1220   22.8050 C   0  0  0  0  0  0  0  0  0  0  0  0
    7.5875    2.0603   22.0841 O   0  0  0  0  0  0  0  0  0  0  0  0
    6.9583    1.1831   24.1064 N   0  0  0  0  0  0  0  0  0  0  0  0
    7.0355    0.3047   24.5946 H   0  0  0  0  0  0  0  0  0  0  0  0
    7.0404    2.3237   24.8883 C   0  0  0  0  0  0  0  0  0  0  0  0
    7.9375    3.3479   24.5920 C   0  0  0  0  0  0  0  0  0  0  0  0
    8.6090    3.2688   23.7497 H   0  0  0  0  0  0  0  0  0  0  0  0
    7.8964    4.4828   25.3910 C   0  0  0  0  0  0  0  0  0  0  0  0
    8.5674    5.3144   25.1778 H   0  0  0  0  0  0  0  0  0  0  0  0
    7.0534    4.6473   26.4217 N   0  0  0  0  0  0  0  0  0  0  0  0
    6.2112    3.6396   26.6909 C   0  0  0  0  0  0  0  0  0  0  0  0
    5.5157    3.7967   27.5175 H   0  0  0  0  0  0  0  0  0  0  0  0
    6.1790    2.4446   25.9758 C   0  0  0  0  0  0  0  0  0  0  0  0
    5.4849    1.6458   26.2143 H   0  0  0  0  0  0  0  0  0  0  0  0
    5.3445    0.7456   20.1559 C   0  0  0  0  0  0  0  0  0  0  0  0
    4.8715    0.7822   21.1356 H   0  0  0  0  0  0  0  0  0  0  0  0
    4.7550    1.3635   19.0511 C   0  0  0  0  0  0  0  0  0  0  0  0
    3.8123    1.8903   19.1331 H   0  0  0  0  0  0  0  0  0  0  0  0
  1  2  1  0
  2  3  2  0
  3  4  1  0
  4  5  1  0
  4  6  2  0
  6  7  1  0
  7  8  2  0
  8  9  1  0
  8 10  1  0
 10 11  1  0
 11 12  2  0
 11 13  1  0
 13 14  1  0
 14 15  2  0
 14 16  1  0
 16 17  1  0
 16 18  1  0
 18 19  2  0
 19 20  1  0
 19 21  1  0
 21 22  1  0
 21 23  2  0
 23 24  1  0
 24 25  1  0
 24 26  2  0
 26 27  1  0
  6 28  1  0
 28 29  1  0
 28 30  2  0
 30 31  1  0
 30  2  1  0
 13  7  1  0
 26 18  1  0
M  END
>  <cnnaffinity>  (1) 
-4.93075

>  <filename>  (1) 
O=C(Nc1ccncc1)n1c(-c2cccnc2)coc1=O

$$$$
