
     RDKit          3D

 37 39  0  0  0  0  0  0  0  0999 V2000
    5.0552    1.7102   16.9645 H   0  0  0  0  0  0  0  0  0  0  0  0
    5.4948    1.2928   17.8690 C   0  0  0  0  0  0  0  0  0  0  0  0
    6.7140    0.7566   17.7372 N   0  0  0  0  0  0  0  0  0  0  0  0
    7.2726    0.2269   18.8337 C   0  0  0  0  0  0  0  0  0  0  0  0
    8.2703   -0.1812   18.6953 H   0  0  0  0  0  0  0  0  0  0  0  0
    6.6521    0.1583   20.0908 C   0  0  0  0  0  0  0  0  0  0  0  0
    7.3144   -0.4934   21.2980 C   0  0  2  0  0  0  0  0  0  0  0  0
    6.6047   -1.2411   21.6804 H   0  0  0  0  0  0  0  0  0  0  0  0
    7.5953    0.5293   22.3521 N   0  0  0  0  0  0  0  0  0  0  0  0
    7.6227    0.1237   23.7083 C   0  0  0  0  0  0  0  0  0  0  0  0
    8.5576    0.3104   24.4611 O   0  0  0  0  0  0  0  0  0  0  0  0
    6.4464   -0.4649   24.0889 N   0  0  0  0  0  0  0  0  0  0  0  0
    5.6987   -0.3916   23.4262 H   0  0  0  0  0  0  0  0  0  0  0  0
    6.1401   -1.0929   25.2886 C   0  0  0  0  0  0  0  0  0  0  0  0
    4.7968   -1.1849   25.6639 C   0  0  0  0  0  0  0  0  0  0  0  0
    4.0272   -0.6479   25.1262 H   0  0  0  0  0  0  0  0  0  0  0  0
    4.4724   -1.9828   26.7551 C   0  0  0  0  0  0  0  0  0  0  0  0
    3.4297   -2.1041   27.0522 H   0  0  0  0  0  0  0  0  0  0  0  0
    5.3687   -2.6717   27.4713 N   0  0  0  0  0  0  0  0  0  0  0  0
    6.6551   -2.5165   27.1250 C   0  0  0  0  0  0  0  0  0  0  0  0
    7.3751   -3.0885   27.7067 H   0  0  0  0  0  0  0  0  0  0  0  0
    7.1049   -1.7172   26.0768 C   0  0  0  0  0  0  0  0  0  0  0  0
    8.1543   -1.5864   25.8576 H   0  0  0  0  0  0  0  0  0  0  0  0
    8.7106    1.4138   21.9314 C   0  0  0  0  0  0  0  0  0  0  0  0
    8.9166    2.1329   22.7311 H   0  0  0  0  0  0  0  0  0  0  0  0
    8.3904    1.9631   21.0310 H   0  0  0  0  0  0  0  0  0  0  0  0
    9.9666    0.5867   21.6233 C   0  0  0  0  0  0  0  0  0  0  0  0
   10.3035    0.1207   22.5640 H   0  0  0  0  0  0  0  0  0  0  0  0
   10.7673    1.2226   21.2283 H   0  0  0  0  0  0  0  0  0  0  0  0
    9.6999   -0.3906   20.6230 O   0  0  0  0  0  0  0  0  0  0  0  0
    8.6288   -1.2570   20.9741 C   0  0  0  0  0  0  0  0  0  0  0  0
    8.4792   -1.9164   20.1171 H   0  0  0  0  0  0  0  0  0  0  0  0
    8.9012   -1.8680   21.8486 H   0  0  0  0  0  0  0  0  0  0  0  0
    5.3826    0.7430   20.2109 C   0  0  0  0  0  0  0  0  0  0  0  0
    4.8647    0.7645   21.1727 H   0  0  0  0  0  0  0  0  0  0  0  0
    4.7943    1.3151   19.0805 C   0  0  0  0  0  0  0  0  0  0  0  0
    3.8201    1.7899   19.1313 H   0  0  0  0  0  0  0  0  0  0  0  0
  1  2  1  0
  2  3  2  0
  3  4  1  0
  4  5  1  0
  4  6  2  0
  6  7  1  0
  7  8  1  1
  7  9  1  0
  9 10  1  0
 10 11  2  0
 10 12  1  0
 12 13  1  0
 12 14  1  0
 14 15  2  0
 15 16  1  0
 15 17  1  0
 17 18  1  0
 17 19  2  0
 19 20  1  0
 20 21  1  0
 20 22  2  0
 22 23  1  0
  9 24  1  0
 24 25  1  0
 24 26  1  0
 24 27  1  0
 27 28  1  0
 27 29  1  0
 27 30  1  0
 30 31  1  0
 31 32  1  0
 31 33  1  0
  6 34  1  0
 34 35  1  0
 34 36  2  0
 36 37  1  0
 36  2  1  0
 31  7  1  0
 22 14  1  0
M  END
>  <cnnaffinity>  (1) 
-4.29566

>  <filename>  (1) 
O=C(Nc1ccncc1)N1CCOC[C@@H]1c1cccnc1

$$$$
