
     RDKit          3D

 42 45  0  0  0  0  0  0  0  0999 V2000
   12.1602   -1.4039   20.9153 O   0  0  0  0  0  0  0  0  0  0  0  0
   11.3795   -1.3783   21.8416 C   0  0  0  0  0  0  0  0  0  0  0  0
   10.2535   -2.3772   21.9817 C   0  0  0  0  0  0  0  0  0  0  0  0
    8.9400   -1.6979   22.0699 C   0  0  0  0  0  0  0  0  0  0  0  0
    8.1868   -1.4556   23.1716 C   0  0  0  0  0  0  0  0  0  0  0  0
    6.8032   -0.5170   22.7447 S   0  0  0  0  0  0  0  0  0  0  0  0
    7.3327   -0.5594   21.0831 C   0  0  0  0  0  0  0  0  0  0  0  0
    6.6205    0.1066   19.9867 C   0  0  0  0  0  0  0  0  0  0  0  0
    5.3862    0.7569   20.1380 C   0  0  0  0  0  0  0  0  0  0  0  0
    4.8137    1.3475   19.0120 C   0  0  0  0  0  0  0  0  0  0  0  0
    5.4876    1.2793   17.7877 C   0  0  0  0  0  0  0  0  0  0  0  0
    6.6648    0.6537   17.6317 N   0  0  0  0  0  0  0  0  0  0  0  0
    7.2065    0.0845   18.7099 C   0  0  0  0  0  0  0  0  0  0  0  0
    8.1541   -0.4238   18.5509 H   0  0  0  0  0  0  0  0  0  0  0  0
    5.0577    1.7295   16.8948 H   0  0  0  0  0  0  0  0  0  0  0  0
    3.8594    1.8586   19.0729 H   0  0  0  0  0  0  0  0  0  0  0  0
    4.8897    0.7981   21.1091 H   0  0  0  0  0  0  0  0  0  0  0  0
    8.4447   -1.2104   20.8943 N   0  0  0  0  0  0  0  0  0  0  0  0
    8.3465   -1.8136   24.1737 H   0  0  0  0  0  0  0  0  0  0  0  0
   10.2218   -2.8997   21.0355 H   0  0  0  0  0  0  0  0  0  0  0  0
   10.4332   -3.0619   22.8124 H   0  0  0  0  0  0  0  0  0  0  0  0
   11.4601   -0.4258   22.8281 N   0  0  0  0  0  0  0  0  0  0  0  0
   12.0164    0.8970   22.5311 C   0  0  0  0  0  0  0  0  0  0  0  0
   13.0917    1.2540   23.5611 C   0  0  0  0  0  0  0  0  0  0  0  0
   13.6245    2.9691   23.3133 S   0  0  0  0  0  0  0  0  0  0  0  0
   12.0438    3.6766   23.8391 C   0  0  0  0  0  0  0  0  0  0  0  0
   10.8746    3.1890   23.0098 C   0  0  0  0  0  0  0  0  0  0  0  0
    9.7140    3.9787   22.9353 C   0  0  0  0  0  0  0  0  0  0  0  0
    8.6397    3.6038   22.1285 C   0  0  0  0  0  0  0  0  0  0  0  0
    8.7244    2.4312   21.3704 C   0  0  0  0  0  0  0  0  0  0  0  0
    9.8617    1.6340   21.4700 C   0  0  0  0  0  0  0  0  0  0  0  0
   10.9077    1.9428   22.3519 C   0  0  0  0  0  0  0  0  0  0  0  0
    9.9308    0.7326   20.8713 H   0  0  0  0  0  0  0  0  0  0  0  0
    7.9073    2.1302   20.7200 H   0  0  0  0  0  0  0  0  0  0  0  0
    7.7598    4.2379   22.0559 H   0  0  0  0  0  0  0  0  0  0  0  0
    9.6538    4.8914   23.5241 H   0  0  0  0  0  0  0  0  0  0  0  0
   11.8800    3.4015   24.8844 H   0  0  0  0  0  0  0  0  0  0  0  0
   12.1489    4.7653   23.7897 H   0  0  0  0  0  0  0  0  0  0  0  0
   13.9594    0.6021   23.4144 H   0  0  0  0  0  0  0  0  0  0  0  0
   12.7175    1.1068   24.5822 H   0  0  0  0  0  0  0  0  0  0  0  0
   12.5317    0.8251   21.5714 H   0  0  0  0  0  0  0  0  0  0  0  0
   10.6724   -0.4121   23.4547 H   0  0  0  0  0  0  0  0  0  0  0  0
  1  2  2  0
  2  3  1  0
  3  4  1  0
  4  5  2  0
  5  6  1  0
  6  7  1  0
  7  8  1  0
  8  9  2  0
  9 10  1  0
 10 11  2  0
 11 12  1  0
 12 13  2  0
 13 14  1  0
 11 15  1  0
 10 16  1  0
  9 17  1  0
  7 18  2  0
  5 19  1  0
  3 20  1  0
  3 21  1  0
  2 22  1  0
 22 23  1  0
 23 24  1  0
 24 25  1  0
 25 26  1  0
 26 27  1  0
 27 28  2  0
 28 29  1  0
 29 30  2  0
 30 31  1  0
 31 32  2  0
 31 33  1  0
 30 34  1  0
 29 35  1  0
 28 36  1  0
 26 37  1  0
 26 38  1  0
 24 39  1  0
 24 40  1  0
 23 41  1  0
 22 42  1  0
 18  4  1  0
 32 23  1  0
 13  8  1  0
 32 27  1  0
M  END
>  <cnnaffinity>  (1) 
-6.0204

>  <filename>  (1) 
O=C(Cc1csc(-c2cccnc2)n1)NC1CSCc2ccccc21

$$$$
