
     RDKit          3D

 34 36  0  0  0  0  0  0  0  0999 V2000
    8.6493   -3.5124   24.5574 O   0  0  0  0  0  0  0  0  0  0  0  0
    7.5786   -2.9592   24.7594 C   0  0  0  0  0  0  0  0  0  0  0  0
    6.8278   -3.1958   26.0661 C   0  0  0  0  0  0  0  0  0  0  0  0
    6.7925   -1.9699   26.9676 C   0  0  0  0  0  0  0  0  0  0  0  0
    5.6615   -1.7159   27.7635 C   0  0  0  0  0  0  0  0  0  0  0  0
    5.6130   -0.5849   28.5980 C   0  0  0  0  0  0  0  0  0  0  0  0
    6.6866    0.3034   28.6447 C   0  0  0  0  0  0  0  0  0  0  0  0
    6.6494    1.7078   29.6818 Cl  0  0  0  0  0  0  0  0  0  0  0  0
    7.7971    0.0669   27.8412 C   0  0  0  0  0  0  0  0  0  0  0  0
    7.8672   -1.0576   27.0182 C   0  0  0  0  0  0  0  0  0  0  0  0
    9.4112   -1.2313   25.9094 Br  0  0  0  0  0  0  0  0  0  0  0  0
    8.6136    0.7779   27.8523 H   0  0  0  0  0  0  0  0  0  0  0  0
    4.7381   -0.3717   29.2022 H   0  0  0  0  0  0  0  0  0  0  0  0
    4.8156   -2.3973   27.7422 H   0  0  0  0  0  0  0  0  0  0  0  0
    7.3017   -4.0302   26.5903 H   0  0  0  0  0  0  0  0  0  0  0  0
    5.8075   -3.4963   25.8176 H   0  0  0  0  0  0  0  0  0  0  0  0
    7.0186   -2.1880   23.7784 N   0  0  0  0  0  0  0  0  0  0  0  0
    7.6236   -1.8200   22.6011 C   0  0  0  0  0  0  0  0  0  0  0  0
    6.8269   -1.1259   21.8476 N   0  0  0  0  0  0  0  0  0  0  0  0
    7.4526   -0.7480   20.6711 C   0  0  0  0  0  0  0  0  0  0  0  0
    6.7391    0.0263   19.6560 C   0  0  0  0  0  0  0  0  0  0  0  0
    5.4986    0.6181   19.9270 C   0  0  0  0  0  0  0  0  0  0  0  0
    4.8599    1.3132   18.9034 C   0  0  0  0  0  0  0  0  0  0  0  0
    5.4581    1.4048   17.6452 C   0  0  0  0  0  0  0  0  0  0  0  0
    6.6513    0.8399   17.3841 N   0  0  0  0  0  0  0  0  0  0  0  0
    7.2769    0.1775   18.3732 C   0  0  0  0  0  0  0  0  0  0  0  0
    8.2410   -0.2619   18.1392 H   0  0  0  0  0  0  0  0  0  0  0  0
    4.9414    1.9471   16.8573 H   0  0  0  0  0  0  0  0  0  0  0  0
    3.9020    1.7910   19.0709 H   0  0  0  0  0  0  0  0  0  0  0  0
    5.0428    0.5457   20.9137 H   0  0  0  0  0  0  0  0  0  0  0  0
    8.7540   -1.1709   20.5529 C   0  0  0  0  0  0  0  0  0  0  0  0
    9.2418   -2.0966   21.9613 S   0  0  0  0  0  0  0  0  0  0  0  0
    9.3890   -0.9519   19.7027 H   0  0  0  0  0  0  0  0  0  0  0  0
    6.0929   -1.8053   23.9326 H   0  0  0  0  0  0  0  0  0  0  0  0
  1  2  2  0
  2  3  1  0
  3  4  1  0
  4  5  2  0
  5  6  1  0
  6  7  2  0
  7  8  1  0
  7  9  1  0
  9 10  2  0
 10 11  1  0
  9 12  1  0
  6 13  1  0
  5 14  1  0
  3 15  1  0
  3 16  1  0
  2 17  1  0
 17 18  1  0
 18 19  2  0
 19 20  1  0
 20 21  1  0
 21 22  2  0
 22 23  1  0
 23 24  2  0
 24 25  1  0
 25 26  2  0
 26 27  1  0
 24 28  1  0
 23 29  1  0
 22 30  1  0
 20 31  2  0
 31 32  1  0
 31 33  1  0
 17 34  1  0
 10  4  1  0
 32 18  1  0
 26 21  1  0
M  END
>  <cnnaffinity>  (1) 
-5.53938

>  <filename>  (1) 
O=C(Cc1ccc(Cl)cc1Br)Nc1nc(-c2cccnc2)cs1

$$$$
