
     RDKit          3D

 39 42  0  0  0  0  0  0  0  0999 V2000
    7.0845   -4.0177   24.8476 O   0  0  0  0  0  0  0  0  0  0  0  0
    6.5576   -2.9755   24.4979 C   0  0  0  0  0  0  0  0  0  0  0  0
    7.3748   -1.7146   24.4673 C   0  0  0  0  0  0  0  0  0  0  0  0
    7.6945   -1.5200   23.0392 C   0  0  0  0  0  0  0  0  0  0  0  0
    8.8252   -2.0116   22.4548 C   0  0  0  0  0  0  0  0  0  0  0  0
    8.8961   -1.5353   20.7712 S   0  0  0  0  0  0  0  0  0  0  0  0
    7.3479   -0.7176   20.9949 C   0  0  0  0  0  0  0  0  0  0  0  0
    6.6378   -0.0002   19.9407 C   0  0  0  0  0  0  0  0  0  0  0  0
    5.4252    0.6560   20.1785 C   0  0  0  0  0  0  0  0  0  0  0  0
    4.8220    1.2963   19.1042 C   0  0  0  0  0  0  0  0  0  0  0  0
    5.4204    1.2803   17.8445 C   0  0  0  0  0  0  0  0  0  0  0  0
    6.5840    0.6468   17.6187 N   0  0  0  0  0  0  0  0  0  0  0  0
    7.1786    0.0307   18.6531 C   0  0  0  0  0  0  0  0  0  0  0  0
    8.1291   -0.4627   18.4673 H   0  0  0  0  0  0  0  0  0  0  0  0
    4.9291    1.8040   17.0285 H   0  0  0  0  0  0  0  0  0  0  0  0
    3.8889    1.8264   19.2273 H   0  0  0  0  0  0  0  0  0  0  0  0
    4.9595    0.6755   21.1628 H   0  0  0  0  0  0  0  0  0  0  0  0
    6.8499   -0.8204   22.2067 N   0  0  0  0  0  0  0  0  0  0  0  0
    9.5724   -2.5956   22.9860 H   0  0  0  0  0  0  0  0  0  0  0  0
    8.2795   -1.8480   25.0615 H   0  0  0  0  0  0  0  0  0  0  0  0
    6.8298   -0.8500   24.8514 H   0  0  0  0  0  0  0  0  0  0  0  0
    5.2225   -2.9159   24.1528 N   0  0  0  0  0  0  0  0  0  0  0  0
    4.3421   -4.0166   24.0351 C   0  0  0  0  0  0  0  0  0  0  0  0
    4.8760   -5.1963   23.5098 C   0  0  0  0  0  0  0  0  0  0  0  0
    4.0712   -6.3202   23.2788 C   0  0  0  0  0  0  0  0  0  0  0  0
    2.7145   -6.2884   23.6032 C   0  0  0  0  0  0  0  0  0  0  0  0
    2.1493   -5.1312   24.1501 C   0  0  0  0  0  0  0  0  0  0  0  0
    0.7900   -5.1035   24.4736 C   0  0  0  0  0  0  0  0  0  0  0  0
    0.2598   -3.9316   25.0084 C   0  0  0  0  0  0  0  0  0  0  0  0
   -1.5891   -3.8214   25.4828 Br  0  0  0  0  0  0  0  0  0  0  0  0
    1.1018   -2.8313   25.1956 C   0  0  0  0  0  0  0  0  0  0  0  0
    2.4056   -2.8505   24.8801 N   0  0  0  0  0  0  0  0  0  0  0  0
    2.9536   -3.9770   24.3681 C   0  0  0  0  0  0  0  0  0  0  0  0
    0.6855   -1.9222   25.6166 H   0  0  0  0  0  0  0  0  0  0  0  0
    0.1578   -5.9765   24.3130 H   0  0  0  0  0  0  0  0  0  0  0  0
    2.0962   -7.1661   23.4333 H   0  0  0  0  0  0  0  0  0  0  0  0
    4.4922   -7.2214   22.8387 H   0  0  0  0  0  0  0  0  0  0  0  0
    5.9300   -5.2098   23.2532 H   0  0  0  0  0  0  0  0  0  0  0  0
    4.8388   -1.9805   24.0764 H   0  0  0  0  0  0  0  0  0  0  0  0
  1  2  2  0
  2  3  1  0
  3  4  1  0
  4  5  2  0
  5  6  1  0
  6  7  1  0
  7  8  1  0
  8  9  2  0
  9 10  1  0
 10 11  2  0
 11 12  1  0
 12 13  2  0
 13 14  1  0
 11 15  1  0
 10 16  1  0
  9 17  1  0
  7 18  2  0
  5 19  1  0
  3 20  1  0
  3 21  1  0
  2 22  1  0
 22 23  1  0
 23 24  2  0
 24 25  1  0
 25 26  2  0
 26 27  1  0
 27 28  2  0
 28 29  1  0
 29 30  1  0
 29 31  2  0
 31 32  1  0
 32 33  2  0
 31 34  1  0
 28 35  1  0
 26 36  1  0
 25 37  1  0
 24 38  1  0
 22 39  1  0
 18  4  1  0
 33 23  1  0
 13  8  1  0
 33 27  1  0
M  END
>  <cnnaffinity>  (1) 
-6.0323

>  <filename>  (1) 
O=C(Cc1csc(-c2cccnc2)n1)Nc1cccc2cc(Br)cnc12

$$$$
