
     RDKit          3D

 37 39  0  0  0  0  0  0  0  0999 V2000
    6.5700    0.5229   21.8450 O   0  0  0  0  0  0  0  0  0  0  0  0
    6.5527   -0.0167   20.7683 C   0  0  0  0  0  0  0  0  0  0  0  0
    7.2676   -1.1753   20.5249 N   0  0  0  0  0  0  0  0  0  0  0  0
    8.1114   -1.8067   21.7717 S   0  0  0  0  0  0  0  0  0  0  0  0
    7.3352   -1.8195   22.9899 O   0  0  0  0  0  0  0  0  0  0  0  0
    8.5840   -3.0622   21.2077 O   0  0  0  0  0  0  0  0  0  0  0  0
    9.4590   -0.6749   21.9727 C   0  0  0  0  0  0  0  0  0  0  0  0
    9.8603    0.2305   20.9833 C   0  0  0  0  0  0  0  0  0  0  0  0
   10.9668    1.0469   21.1972 C   0  0  0  0  0  0  0  0  0  0  0  0
   11.6646    1.0013   22.4005 C   0  0  0  0  0  0  0  0  0  0  0  0
   11.2259    0.1656   23.4114 C   0  0  0  0  0  0  0  0  0  0  0  0
   10.2061   -0.8400   23.1965 C   0  0  0  0  0  0  0  0  0  0  0  0
   10.1943   -2.0910   24.0332 C   0  0  0  0  0  0  0  0  0  0  0  0
   10.0818   -1.9662   24.0662 C   0  0  0  0  0  0  0  0  0  0  0  0
   10.9561   -0.0024   25.6864 C   0  0  0  0  0  0  0  0  0  0  0  0
   11.8094    0.3175   24.7257 N   0  0  0  0  0  0  0  0  0  0  0  0
   12.5225    1.0483   24.7625 H   0  0  0  0  0  0  0  0  0  0  0  0
   11.1396   -0.5713   26.5660 H   0  0  0  0  0  0  0  0  0  0  0  0
    9.9110    0.2466   25.5180 H   0  0  0  0  0  0  0  0  0  0  0  0
   11.5281   -2.6730   22.6892 H   0  0  0  0  0  0  0  0  0  0  0  0
   11.6586   -3.0113   23.3227 H   0  0  0  0  0  0  0  0  0  0  0  0
    9.5304   -1.8938   25.1113 H   0  0  0  0  0  0  0  0  0  0  0  0
    9.2832   -2.9323   23.8371 H   0  0  0  0  0  0  0  0  0  0  0  0
   12.5316    1.6446   22.5567 H   0  0  0  0  0  0  0  0  0  0  0  0
   11.2810    1.7593   20.4398 H   0  0  0  0  0  0  0  0  0  0  0  0
    9.3324    0.3328   20.0323 H   0  0  0  0  0  0  0  0  0  0  0  0
    6.8805   -1.9553   20.0273 H   0  0  0  0  0  0  0  0  0  0  0  0
    5.9482    0.5221   19.5370 C   0  0  0  0  0  0  0  0  0  0  0  0
    4.8577    1.4061   19.5296 C   0  0  0  0  0  0  0  0  0  0  0  0
    4.5216    2.0030   18.3183 C   0  0  0  0  0  0  0  0  0  0  0  0
    5.2792    1.7115   17.1780 C   0  0  0  0  0  0  0  0  0  0  0  0
    6.2998    0.8445   17.1710 N   0  0  0  0  0  0  0  0  0  0  0  0
    6.6094    0.2668   18.3302 C   0  0  0  0  0  0  0  0  0  0  0  0
    7.4430   -0.4330   18.3026 H   0  0  0  0  0  0  0  0  0  0  0  0
    5.0583    2.1923   16.2277 H   0  0  0  0  0  0  0  0  0  0  0  0
    3.7101    2.7172   18.2398 H   0  0  0  0  0  0  0  0  0  0  0  0
    4.3034    1.6342   20.4416 H   0  0  0  0  0  0  0  0  0  0  0  0
  1  2  2  0
  2  3  1  0
  3  4  1  0
  4  5  2  0
  4  6  2  0
  4  7  1  0
  7  8  2  0
  8  9  1  0
  9 10  2  0
 10 11  1  0
 11 12  2  0
 12 13  1  0
 13 14  1  0
 14 15  1  0
 15 16  1  0
 16 17  1  0
 15 18  1  0
 15 19  1  0
 14 20  1  0
 14 21  1  0
 13 22  1  0
 13 23  1  0
 10 24  1  0
  9 25  1  0
  8 26  1  0
  3 27  1  0
  2 28  1  0
 28 29  2  0
 29 30  1  0
 30 31  2  0
 31 32  1  0
 32 33  2  0
 33 34  1  0
 31 35  1  0
 30 36  1  0
 29 37  1  0
 12  7  1  0
 33 28  1  0
 16 11  1  0
M  END
>  <cnnaffinity>  (1) 
-5.23979

>  <filename>  (1) 
O=C(NS(=O)(=O)c1cccc2c1CCCN2)c1cccnc1

$$$$
