
     RDKit          3D

 29 31  0  0  0  0  0  0  0  0999 V2000
    4.9579    1.8172   16.9596 H   0  0  0  0  0  0  0  0  0  0  0  0
    5.4278    1.3175   17.8043 C   0  0  0  0  0  0  0  0  0  0  0  0
    6.6168    0.7349   17.5616 N   0  0  0  0  0  0  0  0  0  0  0  0
    7.2063    0.1105   18.5821 C   0  0  0  0  0  0  0  0  0  0  0  0
    8.1879   -0.3292   18.4235 H   0  0  0  0  0  0  0  0  0  0  0  0
    6.6237   -0.0169   19.8540 C   0  0  0  0  0  0  0  0  0  0  0  0
    7.3396   -0.7427   20.8550 N   0  0  0  0  0  0  0  0  0  0  0  0
    8.6615   -0.4239   20.9113 N   0  0  0  0  0  0  0  0  0  0  0  0
    9.3733   -0.9392   21.8747 C   0  0  0  0  0  0  0  0  0  0  0  0
   10.8175   -0.4640   21.9522 C   0  0  0  0  0  0  0  0  0  0  0  0
   11.5431   -0.4030   20.9791 O   0  0  0  0  0  0  0  0  0  0  0  0
   11.3065   -0.0940   23.3054 C   0  0  0  0  0  0  0  0  0  0  0  0
   12.9804    0.2994   23.4819 S   0  0  0  0  0  0  0  0  0  0  0  0
   12.8124    0.3856   25.1838 C   0  0  0  0  0  0  0  0  0  0  0  0
   13.6866    0.5393   25.7926 H   0  0  0  0  0  0  0  0  0  0  0  0
   11.5329    0.1554   25.6008 C   0  0  0  0  0  0  0  0  0  0  0  0
   11.1902    0.1668   26.6378 H   0  0  0  0  0  0  0  0  0  0  0  0
   10.6540   -0.0796   24.5169 C   0  0  0  0  0  0  0  0  0  0  0  0
    9.5886   -0.2403   24.6674 H   0  0  0  0  0  0  0  0  0  0  0  0
    8.8488   -1.9286   22.7763 C   0  0  0  0  0  0  0  0  0  0  0  0
    9.5044   -2.3829   23.5164 H   0  0  0  0  0  0  0  0  0  0  0  0
    7.5502   -2.3203   22.6553 C   0  0  0  0  0  0  0  0  0  0  0  0
    7.0752   -3.0337   23.3133 H   0  0  0  0  0  0  0  0  0  0  0  0
    6.6799   -1.7714   21.6284 C   0  0  0  0  0  0  0  0  0  0  0  0
    5.5368   -2.1272   21.4125 O   0  0  0  0  0  0  0  0  0  0  0  0
    5.4101    0.6171   20.1183 C   0  0  0  0  0  0  0  0  0  0  0  0
    4.9712    0.5825   21.1148 H   0  0  0  0  0  0  0  0  0  0  0  0
    4.8071    1.3057   19.0586 C   0  0  0  0  0  0  0  0  0  0  0  0
    3.8716    1.8372   19.1984 H   0  0  0  0  0  0  0  0  0  0  0  0
  1  2  1  0
  2  3  2  0
  3  4  1  0
  4  5  1  0
  4  6  2  0
  6  7  1  0
  7  8  1  0
  8  9  2  0
  9 10  1  0
 10 11  2  0
 10 12  1  0
 12 13  1  0
 13 14  1  0
 14 15  1  0
 14 16  2  0
 16 17  1  0
 16 18  1  0
 18 19  1  0
  9 20  1  0
 20 21  1  0
 20 22  2  0
 22 23  1  0
 22 24  1  0
 24 25  2  0
  6 26  1  0
 26 27  1  0
 26 28  2  0
 28 29  1  0
 28  2  1  0
 24  7  1  0
 18 12  2  0
M  END
>  <cnnaffinity>  (1) 
-5.1117

>  <filename>  (1) 
O=C(c1ccc(=O)n(-c2cccnc2)n1)c1cccs1

$$$$
