
     RDKit          3D

 36 37  0  0  0  0  0  0  0  0999 V2000
    8.1209    1.0516   24.2524 O   0  0  0  0  0  0  0  0  0  0  0  0
    7.5938    1.4752   23.2508 C   0  0  0  0  0  0  0  0  0  0  0  0
    8.3737    1.4680   21.9514 C   0  0  0  0  0  0  0  0  0  0  0  0
    8.6665    0.0488   21.4162 C   0  0  0  0  0  0  0  0  0  0  0  0
    7.3979   -0.7277   21.0054 C   0  0  0  0  0  0  0  0  0  0  0  0
    6.6309   -0.0396   19.8914 C   0  0  0  0  0  0  0  0  0  0  0  0
    5.4215    0.6298   20.1270 C   0  0  0  0  0  0  0  0  0  0  0  0
    4.7887    1.3157   19.0833 C   0  0  0  0  0  0  0  0  0  0  0  0
    5.3916    1.3091   17.8240 C   0  0  0  0  0  0  0  0  0  0  0  0
    6.5518    0.6846   17.5663 N   0  0  0  0  0  0  0  0  0  0  0  0
    7.1495    0.0490   18.5854 C   0  0  0  0  0  0  0  0  0  0  0  0
    8.1083   -0.4133   18.3446 H   0  0  0  0  0  0  0  0  0  0  0  0
    4.9299    1.8253   16.9834 H   0  0  0  0  0  0  0  0  0  0  0  0
    3.8662    1.8687   19.2450 H   0  0  0  0  0  0  0  0  0  0  0  0
    4.9883    0.6312   21.1301 H   0  0  0  0  0  0  0  0  0  0  0  0
    7.6792   -1.7464   20.7015 H   0  0  0  0  0  0  0  0  0  0  0  0
    6.7488   -0.8482   21.8875 H   0  0  0  0  0  0  0  0  0  0  0  0
    9.3407    0.1218   20.5506 H   0  0  0  0  0  0  0  0  0  0  0  0
    9.2072   -0.5135   22.1878 H   0  0  0  0  0  0  0  0  0  0  0  0
    9.3155    1.9554   22.2189 H   0  0  0  0  0  0  0  0  0  0  0  0
    7.8697    2.0719   21.1949 H   0  0  0  0  0  0  0  0  0  0  0  0
    6.3173    1.9957   23.2008 N   0  0  0  0  0  0  0  0  0  0  0  0
    5.3758    1.7822   24.1804 C   0  0  0  0  0  0  0  0  0  0  0  0
    5.6030    0.7837   25.0104 N   0  0  0  0  0  0  0  0  0  0  0  0
    4.7119    0.5060   25.9561 C   0  0  0  0  0  0  0  0  0  0  0  0
    3.5208    1.2157   26.1097 C   0  0  0  0  0  0  0  0  0  0  0  0
    3.2618    2.2665   25.2374 C   0  0  0  0  0  0  0  0  0  0  0  0
    4.2105    2.5618   24.2577 C   0  0  0  0  0  0  0  0  0  0  0  0
    4.0036    3.6620   23.2799 C   0  0  0  0  0  0  0  0  0  0  0  0
    3.8524    3.1843   22.0205 F   0  0  0  0  0  0  0  0  0  0  0  0
    5.0386    4.5246   23.2336 F   0  0  0  0  0  0  0  0  0  0  0  0
    2.9090    4.3941   23.5445 F   0  0  0  0  0  0  0  0  0  0  0  0
    2.3488    2.8641   25.3029 H   0  0  0  0  0  0  0  0  0  0  0  0
    2.8320    0.9460   26.8987 H   0  0  0  0  0  0  0  0  0  0  0  0
    4.9709   -0.3138   26.6285 H   0  0  0  0  0  0  0  0  0  0  0  0
    6.0812    2.5867   22.4333 H   0  0  0  0  0  0  0  0  0  0  0  0
  1  2  2  0
  2  3  1  0
  3  4  1  0
  4  5  1  0
  5  6  1  0
  6  7  2  0
  7  8  1  0
  8  9  2  0
  9 10  1  0
 10 11  2  0
 11 12  1  0
  9 13  1  0
  8 14  1  0
  7 15  1  0
  5 16  1  0
  5 17  1  0
  4 18  1  0
  4 19  1  0
  3 20  1  0
  3 21  1  0
  2 22  1  0
 22 23  1  0
 23 24  2  0
 24 25  1  0
 25 26  2  0
 26 27  1  0
 27 28  2  0
 28 29  1  0
 29 30  1  0
 29 31  1  0
 29 32  1  0
 27 33  1  0
 26 34  1  0
 25 35  1  0
 22 36  1  0
 11  6  1  0
 28 23  1  0
M  END
>  <cnnaffinity>  (1) 
-4.88686

>  <filename>  (1) 
O=C(CCCc1cccnc1)Nc1ncccc1C(F)(F)F

$$$$
