
     RDKit          3D

 28 30  0  0  0  0  0  0  0  0999 V2000
    9.9663   -2.4344   21.7942 H   0  0  0  0  0  0  0  0  0  0  0  0
    9.0221   -1.9016   21.8390 C   0  0  0  0  0  0  0  0  0  0  0  0
    8.5394   -1.3320   20.7033 N   0  0  0  0  0  0  0  0  0  0  0  0
    7.4254   -0.6904   20.9217 C   0  0  0  0  0  0  0  0  0  0  0  0
    6.6622    0.0026   19.8876 C   0  0  0  0  0  0  0  0  0  0  0  0
    7.1869    0.0339   18.5858 C   0  0  0  0  0  0  0  0  0  0  0  0
    8.1307   -0.4669   18.3854 H   0  0  0  0  0  0  0  0  0  0  0  0
    6.5941    0.6552   17.5651 N   0  0  0  0  0  0  0  0  0  0  0  0
    5.4371    1.2873   17.8102 C   0  0  0  0  0  0  0  0  0  0  0  0
    4.9829    1.7982   16.9622 H   0  0  0  0  0  0  0  0  0  0  0  0
    4.8251    1.3026   19.0685 C   0  0  0  0  0  0  0  0  0  0  0  0
    3.8934    1.8349   19.2019 H   0  0  0  0  0  0  0  0  0  0  0  0
    5.4415    0.6510   20.1332 C   0  0  0  0  0  0  0  0  0  0  0  0
    4.9948    0.6619   21.1300 H   0  0  0  0  0  0  0  0  0  0  0  0
    6.9048   -0.7161   22.5782 S   0  0  0  0  0  0  0  0  0  0  0  0
    8.2636   -1.7330   22.9657 C   0  0  0  0  0  0  0  0  0  0  0  0
    8.5941   -2.2809   24.2969 C   0  0  0  0  0  0  0  0  0  0  0  0
    9.7320   -2.6371   24.5420 O   0  0  0  0  0  0  0  0  0  0  0  0
    7.4772   -2.3332   25.3413 C   0  0  0  0  0  0  0  0  0  0  0  0
    6.1860   -2.8139   25.0450 C   0  0  0  0  0  0  0  0  0  0  0  0
    5.9259   -3.2266   24.0758 H   0  0  0  0  0  0  0  0  0  0  0  0
    5.1946   -2.7585   26.0281 C   0  0  0  0  0  0  0  0  0  0  0  0
    4.2212   -3.2077   25.8322 H   0  0  0  0  0  0  0  0  0  0  0  0
    5.3681   -2.1613   27.2146 N   0  0  0  0  0  0  0  0  0  0  0  0
    6.5915   -1.6953   27.4928 C   0  0  0  0  0  0  0  0  0  0  0  0
    6.7199   -1.1973   28.4514 H   0  0  0  0  0  0  0  0  0  0  0  0
    7.6847   -1.8368   26.6365 C   0  0  0  0  0  0  0  0  0  0  0  0
    8.6668   -1.5398   26.9805 H   0  0  0  0  0  0  0  0  0  0  0  0
  1  2  1  0
  2  3  1  0
  3  4  2  0
  4  5  1  0
  5  6  2  0
  6  7  1  0
  6  8  1  0
  8  9  2  0
  9 10  1  0
  9 11  1  0
 11 12  1  0
 11 13  2  0
 13 14  1  0
  4 15  1  0
 15 16  1  0
 16 17  1  0
 17 18  2  0
 17 19  1  0
 19 20  2  0
 20 21  1  0
 20 22  1  0
 22 23  1  0
 22 24  2  0
 24 25  1  0
 25 26  1  0
 25 27  2  0
 27 28  1  0
 16  2  2  0
 27 19  1  0
 13  5  1  0
M  END
>  <cnnaffinity>  (1) 
-4.85321

>  <filename>  (1) 
O=C(c1ccncc1)c1cnc(-c2cccnc2)s1

$$$$
