
     RDKit          3D

 31 33  0  0  0  0  0  0  0  0999 V2000
    5.1660    1.7797   16.9872 H   0  0  0  0  0  0  0  0  0  0  0  0
    5.6143    1.2719   17.8415 C   0  0  0  0  0  0  0  0  0  0  0  0
    6.8101    0.6924   17.6435 N   0  0  0  0  0  0  0  0  0  0  0  0
    7.3864    0.0712   18.6826 C   0  0  0  0  0  0  0  0  0  0  0  0
    8.3486   -0.4006   18.4906 H   0  0  0  0  0  0  0  0  0  0  0  0
    6.7976   -0.0201   19.9670 C   0  0  0  0  0  0  0  0  0  0  0  0
    7.3804   -0.7583   21.0406 N   0  0  0  0  0  0  0  0  0  0  0  0
    8.2079   -0.4800   21.5477 H   0  0  0  0  0  0  0  0  0  0  0  0
    6.7158   -1.7475   21.7032 C   0  0  0  0  0  0  0  0  0  0  0  0
    5.5941   -2.1411   21.5096 O   0  0  0  0  0  0  0  0  0  0  0  0
    7.5910   -2.2618   22.6019 O   0  0  0  0  0  0  0  0  0  0  0  0
    7.0952   -3.1788   23.4893 C   0  0  0  0  0  0  0  0  0  0  0  0
    7.4351   -2.9575   24.7125 N   0  0  0  0  0  0  0  0  0  0  0  0
    7.0916   -3.9190   25.6283 C   0  0  0  0  0  0  0  0  0  0  0  0
    7.5149   -3.7143   26.9666 C   0  0  0  0  0  0  0  0  0  0  0  0
    8.0604   -2.7925   27.1341 H   0  0  0  0  0  0  0  0  0  0  0  0
    7.2357   -4.6501   27.9391 C   0  0  0  0  0  0  0  0  0  0  0  0
    7.6010   -4.5102   28.9527 H   0  0  0  0  0  0  0  0  0  0  0  0
    6.4996   -5.8242   27.6184 C   0  0  0  0  0  0  0  0  0  0  0  0
    6.2894   -6.5456   28.4017 H   0  0  0  0  0  0  0  0  0  0  0  0
    6.0657   -6.0561   26.3307 C   0  0  0  0  0  0  0  0  0  0  0  0
    5.5072   -6.9592   26.0857 H   0  0  0  0  0  0  0  0  0  0  0  0
    6.3656   -5.1131   25.3012 C   0  0  0  0  0  0  0  0  0  0  0  0
    6.0019   -5.2782   23.9289 C   0  0  0  0  0  0  0  0  0  0  0  0
    5.4232   -6.1492   23.6091 H   0  0  0  0  0  0  0  0  0  0  0  0
    6.3591   -4.3159   23.0232 C   0  0  0  0  0  0  0  0  0  0  0  0
    6.0947   -4.3609   21.9791 H   0  0  0  0  0  0  0  0  0  0  0  0
    5.5563    0.5979   20.1556 C   0  0  0  0  0  0  0  0  0  0  0  0
    5.0806    0.5358   21.1340 H   0  0  0  0  0  0  0  0  0  0  0  0
    4.9628    1.2658   19.0796 C   0  0  0  0  0  0  0  0  0  0  0  0
    4.0060    1.7643   19.1888 H   0  0  0  0  0  0  0  0  0  0  0  0
  1  2  1  0
  2  3  2  0
  3  4  1  0
  4  5  1  0
  4  6  2  0
  6  7  1  0
  7  8  1  0
  7  9  1  0
  9 10  2  0
  9 11  1  0
 11 12  1  0
 12 13  2  0
 13 14  1  0
 14 15  2  0
 15 16  1  0
 15 17  1  0
 17 18  1  0
 17 19  2  0
 19 20  1  0
 19 21  1  0
 21 22  1  0
 21 23  2  0
 23 24  1  0
 24 25  1  0
 24 26  2  0
 26 27  1  0
  6 28  1  0
 28 29  1  0
 28 30  2  0
 30 31  1  0
 30  2  1  0
 26 12  1  0
 23 14  1  0
M  END
>  <cnnaffinity>  (1) 
-4.90563

>  <filename>  (1) 
O=C(Nc1cccnc1)Oc1ccc2ccccc2n1

$$$$
