
     RDKit          3D

 36 37  0  0  0  0  0  0  0  0999 V2000
    5.7211   -2.2572   21.5649 O   0  0  0  0  0  0  0  0  0  0  0  0
    6.7822   -1.7106   21.7682 C   0  0  0  0  0  0  0  0  0  0  0  0
    7.6130   -1.9623   22.8534 N   0  0  0  0  0  0  0  0  0  0  0  0
    7.0865   -2.6614   24.0231 C   0  0  0  0  0  0  0  0  0  0  0  0
    6.3679   -1.7368   25.0232 C   0  0  0  0  0  0  0  0  0  0  0  0
    5.5887   -2.6136   26.4235 S   0  0  0  0  0  0  0  0  0  0  0  0
    4.0253   -3.1663   25.6552 C   0  0  0  0  0  0  0  0  0  0  0  0
    3.2371   -4.0531   26.5909 C   0  0  0  0  0  0  0  0  0  0  0  0
    2.3009   -3.5246   27.4952 C   0  0  0  0  0  0  0  0  0  0  0  0
    1.6073   -4.3955   28.3355 C   0  0  0  0  0  0  0  0  0  0  0  0
    1.7592   -5.7243   28.3177 N   0  0  0  0  0  0  0  0  0  0  0  0
    2.6381   -6.2072   27.4560 C   0  0  0  0  0  0  0  0  0  0  0  0
    2.7929   -7.9307   27.3983 Cl  0  0  0  0  0  0  0  0  0  0  0  0
    3.4096   -5.4388   26.5830 C   0  0  0  0  0  0  0  0  0  0  0  0
    4.1039   -5.9500   25.9282 H   0  0  0  0  0  0  0  0  0  0  0  0
    0.8786   -4.0297   29.0564 H   0  0  0  0  0  0  0  0  0  0  0  0
    2.0922   -2.4638   27.5459 H   0  0  0  0  0  0  0  0  0  0  0  0
    3.4385   -2.2870   25.3761 H   0  0  0  0  0  0  0  0  0  0  0  0
    4.2486   -3.7134   24.7345 H   0  0  0  0  0  0  0  0  0  0  0  0
    7.0994   -1.0665   25.4907 H   0  0  0  0  0  0  0  0  0  0  0  0
    5.6359   -1.0900   24.5225 H   0  0  0  0  0  0  0  0  0  0  0  0
    7.9112   -3.1687   24.5415 H   0  0  0  0  0  0  0  0  0  0  0  0
    6.4007   -3.4397   23.6794 H   0  0  0  0  0  0  0  0  0  0  0  0
    8.1717   -1.1514   23.0656 H   0  0  0  0  0  0  0  0  0  0  0  0
    7.3717   -0.7668   20.9449 N   0  0  0  0  0  0  0  0  0  0  0  0
    6.7267   -0.0566   19.8986 C   0  0  0  0  0  0  0  0  0  0  0  0
    5.4945    0.5734   20.1333 C   0  0  0  0  0  0  0  0  0  0  0  0
    4.8741    1.2585   19.0801 C   0  0  0  0  0  0  0  0  0  0  0  0
    5.4934    1.2707   17.8266 C   0  0  0  0  0  0  0  0  0  0  0  0
    6.6747    0.6793   17.5877 N   0  0  0  0  0  0  0  0  0  0  0  0
    7.2794    0.0473   18.6023 C   0  0  0  0  0  0  0  0  0  0  0  0
    8.2378   -0.4200   18.3704 H   0  0  0  0  0  0  0  0  0  0  0  0
    5.0373    1.7955   16.9879 H   0  0  0  0  0  0  0  0  0  0  0  0
    3.9347    1.7840   19.2194 H   0  0  0  0  0  0  0  0  0  0  0  0
    5.0593    0.5220   21.1296 H   0  0  0  0  0  0  0  0  0  0  0  0
    8.3626   -0.6572   21.0965 H   0  0  0  0  0  0  0  0  0  0  0  0
  1  2  2  0
  2  3  1  0
  3  4  1  0
  4  5  1  0
  5  6  1  0
  6  7  1  0
  7  8  1  0
  8  9  2  0
  9 10  1  0
 10 11  2  0
 11 12  1  0
 12 13  1  0
 12 14  2  0
 14 15  1  0
 10 16  1  0
  9 17  1  0
  7 18  1  0
  7 19  1  0
  5 20  1  0
  5 21  1  0
  4 22  1  0
  4 23  1  0
  3 24  1  0
  2 25  1  0
 25 26  1  0
 26 27  2  0
 27 28  1  0
 28 29  2  0
 29 30  1  0
 30 31  2  0
 31 32  1  0
 29 33  1  0
 28 34  1  0
 27 35  1  0
 25 36  1  0
 14  8  1  0
 31 26  1  0
M  END
>  <cnnaffinity>  (1) 
-4.21255

>  <filename>  (1) 
O=C(NCCSCc1ccnc(Cl)c1)Nc1cccnc1

$$$$
