
     RDKit          3D

 41 43  0  0  0  0  0  0  0  0999 V2000
    4.9198    1.8275   16.9680 H   0  0  0  0  0  0  0  0  0  0  0  0
    5.3910    1.3165   17.8049 C   0  0  0  0  0  0  0  0  0  0  0  0
    6.5479    0.6890   17.5391 N   0  0  0  0  0  0  0  0  0  0  0  0
    7.1608    0.0661   18.5555 C   0  0  0  0  0  0  0  0  0  0  0  0
    8.0962   -0.4312   18.2974 H   0  0  0  0  0  0  0  0  0  0  0  0
    6.6666    0.0083   19.8751 C   0  0  0  0  0  0  0  0  0  0  0  0
    7.4069   -0.7105   20.9655 C   0  0  0  0  0  0  0  0  0  0  0  0
    6.7061   -1.5860   21.8691 C   0  0  0  0  0  0  0  0  0  0  0  0
    5.6419   -1.7727   21.7374 H   0  0  0  0  0  0  0  0  0  0  0  0
    7.3355   -2.2498   22.8951 C   0  0  0  0  0  0  0  0  0  0  0  0
    6.5912   -3.1150   23.7475 N   0  0  0  0  0  0  0  0  0  0  0  0
    6.8953   -3.2763   24.6964 H   0  0  0  0  0  0  0  0  0  0  0  0
    5.5198   -3.9036   23.3740 C   0  0  0  0  0  0  0  0  0  0  0  0
    5.1902   -4.0699   22.2147 O   0  0  0  0  0  0  0  0  0  0  0  0
    4.7891   -4.5656   24.5514 C   0  0  0  0  0  0  0  0  0  0  0  0
    5.0639   -4.0048   25.4553 H   0  0  0  0  0  0  0  0  0  0  0  0
    5.2250   -6.0565   24.7121 C   0  0  0  0  0  0  0  0  0  0  0  0
    6.1389   -6.1222   25.3107 H   0  0  0  0  0  0  0  0  0  0  0  0
    5.4711   -6.4725   23.7248 H   0  0  0  0  0  0  0  0  0  0  0  0
    4.1045   -6.8969   25.3418 C   0  0  0  0  0  0  0  0  0  0  0  0
    3.8460   -6.4745   26.3218 H   0  0  0  0  0  0  0  0  0  0  0  0
    4.4420   -7.9128   25.5419 H   0  0  0  0  0  0  0  0  0  0  0  0
    2.8356   -6.9276   24.4566 C   0  0  0  0  0  0  0  0  0  0  0  0
    1.9636   -7.0726   25.1067 H   0  0  0  0  0  0  0  0  0  0  0  0
    2.8573   -7.7983   23.7911 H   0  0  0  0  0  0  0  0  0  0  0  0
    2.6665   -5.6398   23.6140 C   0  0  0  0  0  0  0  0  0  0  0  0
    3.1988   -5.7468   22.6593 H   0  0  0  0  0  0  0  0  0  0  0  0
    1.6097   -5.4754   23.3774 H   0  0  0  0  0  0  0  0  0  0  0  0
    3.2501   -4.4328   24.3660 C   0  0  0  0  0  0  0  0  0  0  0  0
    2.7742   -4.3718   25.3517 H   0  0  0  0  0  0  0  0  0  0  0  0
    3.0165   -3.4819   23.8916 H   0  0  0  0  0  0  0  0  0  0  0  0
    8.8039   -2.0475   23.0957 C   0  0  0  0  0  0  0  0  0  0  0  0
    9.5395   -2.5207   23.9516 O   0  0  0  0  0  0  0  0  0  0  0  0
    9.3987   -1.2138   22.1478 N   0  0  0  0  0  0  0  0  0  0  0  0
   10.3888   -1.1737   22.3572 H   0  0  0  0  0  0  0  0  0  0  0  0
    8.7605   -0.5517   21.1264 C   0  0  0  0  0  0  0  0  0  0  0  0
    9.3592    0.0991   20.4846 H   0  0  0  0  0  0  0  0  0  0  0  0
    5.4407    0.6597   20.1147 C   0  0  0  0  0  0  0  0  0  0  0  0
    5.0155    0.6546   21.1190 H   0  0  0  0  0  0  0  0  0  0  0  0
    4.7965    1.3273   19.0699 C   0  0  0  0  0  0  0  0  0  0  0  0
    3.8574    1.8538   19.2181 H   0  0  0  0  0  0  0  0  0  0  0  0
  1  2  1  0
  2  3  2  0
  3  4  1  0
  4  5  1  0
  4  6  2  0
  6  7  1  0
  7  8  1  0
  8  9  1  0
  8 10  2  0
 10 11  1  0
 11 12  1  0
 11 13  1  0
 13 14  2  0
 13 15  1  0
 15 16  1  0
 15 17  1  0
 17 18  1  0
 17 19  1  0
 17 20  1  0
 20 21  1  0
 20 22  1  0
 20 23  1  0
 23 24  1  0
 23 25  1  0
 23 26  1  0
 26 27  1  0
 26 28  1  0
 26 29  1  0
 29 30  1  0
 29 31  1  0
 10 32  1  0
 32 33  2  0
 32 34  1  0
 34 35  1  0
 34 36  1  0
 36 37  1  0
  6 38  1  0
 38 39  1  0
 38 40  2  0
 40 41  1  0
 40  2  1  0
 36  7  2  0
 29 15  1  0
M  END
>  <cnnaffinity>  (1) 
-5.43483

>  <filename>  (1) 
O=C(Nc1cc(-c2cccnc2)c[nH]c1=O)C1CCCCC1

$$$$
