
     RDKit          3D

 35 37  0  0  0  0  0  0  0  0999 V2000
    6.1874   -0.6358   24.7405 O   0  0  0  0  0  0  0  0  0  0  0  0
    7.1928   -1.2244   25.1032 C   0  0  0  0  0  0  0  0  0  0  0  0
    7.4444   -1.5689   26.5549 C   0  0  0  0  0  0  0  0  0  0  0  0
    6.7776   -3.1809   27.1152 S   0  0  0  0  0  0  0  0  0  0  0  0
    7.9420   -4.2244   26.2723 C   0  0  0  0  0  0  0  0  0  0  0  0
    9.1989   -4.4313   26.8635 C   0  0  0  0  0  0  0  0  0  0  0  0
   10.1974   -5.1362   26.2018 C   0  0  0  0  0  0  0  0  0  0  0  0
    9.9262   -5.7046   24.9616 C   0  0  0  0  0  0  0  0  0  0  0  0
    8.6862   -5.5325   24.3511 C   0  0  0  0  0  0  0  0  0  0  0  0
    7.6983   -4.7810   24.9986 C   0  0  0  0  0  0  0  0  0  0  0  0
    6.2255   -4.4821   24.1373 Cl  0  0  0  0  0  0  0  0  0  0  0  0
    8.4740   -5.9581   23.3751 H   0  0  0  0  0  0  0  0  0  0  0  0
   10.6866   -6.2866   24.4792 H   0  0  0  0  0  0  0  0  0  0  0  0
   11.1851   -5.2070   26.6364 H   0  0  0  0  0  0  0  0  0  0  0  0
    9.3952   -4.0317   27.8495 H   0  0  0  0  0  0  0  0  0  0  0  0
    8.5151   -1.5387   26.7730 H   0  0  0  0  0  0  0  0  0  0  0  0
    6.9394   -0.8152   27.1582 H   0  0  0  0  0  0  0  0  0  0  0  0
    8.1906   -1.5586   24.2438 N   0  0  0  0  0  0  0  0  0  0  0  0
    8.1014   -1.3802   22.8831 C   0  0  0  0  0  0  0  0  0  0  0  0
    8.8370   -1.9739   21.9947 N   0  0  0  0  0  0  0  0  0  0  0  0
    8.3737   -1.5377   20.7635 N   0  0  0  0  0  0  0  0  0  0  0  0
    7.3862   -0.7138   20.9813 C   0  0  0  0  0  0  0  0  0  0  0  0
    6.6327   -0.0088   19.9456 C   0  0  0  0  0  0  0  0  0  0  0  0
    5.4168    0.6505   20.1724 C   0  0  0  0  0  0  0  0  0  0  0  0
    4.8161    1.3007   19.0939 C   0  0  0  0  0  0  0  0  0  0  0  0
    5.4489    1.2771   17.8444 C   0  0  0  0  0  0  0  0  0  0  0  0
    6.6083    0.6401   17.6160 N   0  0  0  0  0  0  0  0  0  0  0  0
    7.1751    0.0150   18.6496 C   0  0  0  0  0  0  0  0  0  0  0  0
    8.1144   -0.4998   18.4584 H   0  0  0  0  0  0  0  0  0  0  0  0
    5.0053    1.7864   16.9893 H   0  0  0  0  0  0  0  0  0  0  0  0
    3.8805    1.8362   19.2099 H   0  0  0  0  0  0  0  0  0  0  0  0
    4.9473    0.6639   21.1613 H   0  0  0  0  0  0  0  0  0  0  0  0
    7.1925   -0.5601   22.3256 N   0  0  0  0  0  0  0  0  0  0  0  0
    6.3919   -0.3234   22.9052 H   0  0  0  0  0  0  0  0  0  0  0  0
    8.9035   -2.2056   24.5278 H   0  0  0  0  0  0  0  0  0  0  0  0
  1  2  2  0
  2  3  1  0
  3  4  1  0
  4  5  1  0
  5  6  2  0
  6  7  1  0
  7  8  2  0
  8  9  1  0
  9 10  2  0
 10 11  1  0
  9 12  1  0
  8 13  1  0
  7 14  1  0
  6 15  1  0
  3 16  1  0
  3 17  1  0
  2 18  1  0
 18 19  1  0
 19 20  2  0
 20 21  1  0
 21 22  2  0
 22 23  1  0
 23 24  2  0
 24 25  1  0
 25 26  2  0
 26 27  1  0
 27 28  2  0
 28 29  1  0
 26 30  1  0
 25 31  1  0
 24 32  1  0
 22 33  1  0
 33 34  1  0
 18 35  1  0
 10  5  1  0
 33 19  1  0
 28 23  1  0
M  END
>  <cnnaffinity>  (1) 
-5.62268

>  <filename>  (1) 
O=C(CSc1ccccc1Cl)Nc1nnc(-c2cccnc2)[nH]1

$$$$
