
     RDKit          3D

 34 35  0  0  0  0  0  0  0  0999 V2000
    5.0616    1.6492   16.9487 H   0  0  0  0  0  0  0  0  0  0  0  0
    5.4914    1.2365   17.8607 C   0  0  0  0  0  0  0  0  0  0  0  0
    6.6825    0.6351   17.7322 N   0  0  0  0  0  0  0  0  0  0  0  0
    7.2608    0.1627   18.8324 C   0  0  0  0  0  0  0  0  0  0  0  0
    8.2395   -0.2963   18.6990 H   0  0  0  0  0  0  0  0  0  0  0  0
    6.6546    0.2433   20.0773 C   0  0  0  0  0  0  0  0  0  0  0  0
    7.5279   -0.6067   21.2953 S   0  0  0  0  0  0  0  0  0  0  0  0
    6.8928   -1.8480   21.6832 O   0  0  0  0  0  0  0  0  0  0  0  0
    8.9274   -0.5876   20.9411 O   0  0  0  0  0  0  0  0  0  0  0  0
    7.1714    0.3343   22.5860 N   0  0  0  0  0  0  0  0  0  0  0  0
    7.2530   -0.3038   23.3567 H   0  0  0  0  0  0  0  0  0  0  0  0
    7.9671    1.4377   22.7067 C   0  0  0  0  0  0  0  0  0  0  0  0
    8.5887    1.9657   21.8246 O   0  0  0  0  0  0  0  0  0  0  0  0
    7.8882    1.8428   23.9963 N   0  0  0  0  0  0  0  0  0  0  0  0
    6.9993    1.6665   24.4223 H   0  0  0  0  0  0  0  0  0  0  0  0
    8.2527    3.1103   24.4057 C   0  0  0  0  0  0  0  0  0  0  0  0
    7.5373    3.6441   25.2238 O   0  0  0  0  0  0  0  0  0  0  0  0
    9.4031    3.5557   23.8681 N   0  0  0  0  0  0  0  0  0  0  0  0
    9.6263    3.1019   22.9942 H   0  0  0  0  0  0  0  0  0  0  0  0
   10.1192    4.6800   24.2948 C   0  0  0  0  0  0  0  0  0  0  0  0
    9.8925    5.2766   25.5440 C   0  0  0  0  0  0  0  0  0  0  0  0
    9.1059    4.8828   26.1718 H   0  0  0  0  0  0  0  0  0  0  0  0
   10.6711    6.3671   25.9387 C   0  0  0  0  0  0  0  0  0  0  0  0
   10.5249    6.8224   26.9134 H   0  0  0  0  0  0  0  0  0  0  0  0
   11.6606    6.8571   25.0806 C   0  0  0  0  0  0  0  0  0  0  0  0
   12.6604    8.1945   25.5747 Cl  0  0  0  0  0  0  0  0  0  0  0  0
   11.8895    6.2651   23.8349 C   0  0  0  0  0  0  0  0  0  0  0  0
   12.6631    6.6667   23.1890 H   0  0  0  0  0  0  0  0  0  0  0  0
   11.1132    5.1700   23.4455 C   0  0  0  0  0  0  0  0  0  0  0  0
   11.2556    4.6898   22.4803 H   0  0  0  0  0  0  0  0  0  0  0  0
    5.3969    0.8381   20.2342 C   0  0  0  0  0  0  0  0  0  0  0  0
    4.8807    0.9218   21.1941 H   0  0  0  0  0  0  0  0  0  0  0  0
    4.8150    1.3504   19.0791 C   0  0  0  0  0  0  0  0  0  0  0  0
    3.8560    1.8549   19.1047 H   0  0  0  0  0  0  0  0  0  0  0  0
  1  2  1  0
  2  3  2  0
  3  4  1  0
  4  5  1  0
  4  6  2  0
  6  7  1  0
  7  8  2  0
  7  9  2  0
  7 10  1  0
 10 11  1  0
 10 12  1  0
 12 13  2  0
 12 14  1  0
 14 15  1  0
 14 16  1  0
 16 17  2  0
 16 18  1  0
 18 19  1  0
 18 20  1  0
 20 21  2  0
 21 22  1  0
 21 23  1  0
 23 24  1  0
 23 25  2  0
 25 26  1  0
 25 27  1  0
 27 28  1  0
 27 29  2  0
 29 30  1  0
  6 31  1  0
 31 32  1  0
 31 33  2  0
 33 34  1  0
 33  2  1  0
 29 20  1  0
M  END
>  <cnnaffinity>  (1) 
-5.19278

>  <filename>  (1) 
O=C(NC(=O)NS(=O)(=O)c1cccnc1)Nc1ccc(Cl)cc1

$$$$
