
     RDKit          3D

 30 31  0  0  0  0  0  0  0  0999 V2000
    4.9406    1.7723   17.0022 H   0  0  0  0  0  0  0  0  0  0  0  0
    5.4108    1.2812   17.8540 C   0  0  0  0  0  0  0  0  0  0  0  0
    6.5734    0.6566   17.6202 N   0  0  0  0  0  0  0  0  0  0  0  0
    7.1662    0.0377   18.6469 C   0  0  0  0  0  0  0  0  0  0  0  0
    8.1192   -0.4262   18.4101 H   0  0  0  0  0  0  0  0  0  0  0  0
    6.6183   -0.0313   19.9381 C   0  0  0  0  0  0  0  0  0  0  0  0
    7.4393   -0.7071   20.9850 C   0  0  0  0  0  0  0  0  0  0  0  0
    8.6270   -0.9130   20.8541 O   0  0  0  0  0  0  0  0  0  0  0  0
    6.7613   -1.0939   22.1339 N   0  0  0  0  0  0  0  0  0  0  0  0
    5.8103   -1.4066   22.0450 H   0  0  0  0  0  0  0  0  0  0  0  0
    7.3277   -1.4601   23.3348 C   0  0  0  0  0  0  0  0  0  0  0  0
    6.7070   -2.7064   24.1813 S   0  0  0  0  0  0  0  0  0  0  0  0
    8.4327   -0.5903   23.8892 C   0  0  0  0  0  0  0  0  0  0  0  0
    8.9388   -0.0587   23.0786 H   0  0  0  0  0  0  0  0  0  0  0  0
    9.1477   -1.2622   24.3662 H   0  0  0  0  0  0  0  0  0  0  0  0
    7.8608    0.3541   24.9364 C   0  0  0  0  0  0  0  0  0  0  0  0
    7.7960   -0.0342   26.2831 C   0  0  0  0  0  0  0  0  0  0  0  0
    8.1977   -1.0035   26.5693 H   0  0  0  0  0  0  0  0  0  0  0  0
    7.2302    0.7928   27.2586 C   0  0  0  0  0  0  0  0  0  0  0  0
    7.2074    0.4762   28.2991 H   0  0  0  0  0  0  0  0  0  0  0  0
    6.6993    2.0341   26.8920 C   0  0  0  0  0  0  0  0  0  0  0  0
    6.2604    2.6882   27.6402 H   0  0  0  0  0  0  0  0  0  0  0  0
    6.7288    2.4411   25.5585 C   0  0  0  0  0  0  0  0  0  0  0  0
    6.3237    3.3982   25.2427 H   0  0  0  0  0  0  0  0  0  0  0  0
    7.3028    1.5975   24.5996 C   0  0  0  0  0  0  0  0  0  0  0  0
    7.3042    2.1418   22.9496 Cl  0  0  0  0  0  0  0  0  0  0  0  0
    5.4080    0.6391   20.1779 C   0  0  0  0  0  0  0  0  0  0  0  0
    4.9762    0.6671   21.1816 H   0  0  0  0  0  0  0  0  0  0  0  0
    4.8022    1.3066   19.1143 C   0  0  0  0  0  0  0  0  0  0  0  0
    3.8714    1.8479   19.2543 H   0  0  0  0  0  0  0  0  0  0  0  0
  1  2  1  0
  2  3  2  0
  3  4  1  0
  4  5  1  0
  4  6  2  0
  6  7  1  0
  7  8  2  0
  7  9  1  0
  9 10  1  0
  9 11  1  0
 11 12  2  0
 11 13  1  0
 13 14  1  0
 13 15  1  0
 13 16  1  0
 16 17  2  0
 17 18  1  0
 17 19  1  0
 19 20  1  0
 19 21  2  0
 21 22  1  0
 21 23  1  0
 23 24  1  0
 23 25  2  0
 25 26  1  0
  6 27  1  0
 27 28  1  0
 27 29  2  0
 29 30  1  0
 29  2  1  0
 25 16  1  0
M  END
>  <cnnaffinity>  (1) 
-5.27649

>  <filename>  (1) 
O=C(NC(=S)Cc1ccccc1Cl)c1cccnc1

$$$$
