
     RDKit          3D

 30 32  0  0  0  0  0  0  0  0999 V2000
    4.9387    1.8118   16.9665 H   0  0  0  0  0  0  0  0  0  0  0  0
    5.3950    1.3038   17.8146 C   0  0  0  0  0  0  0  0  0  0  0  0
    6.5586    0.6712   17.5726 N   0  0  0  0  0  0  0  0  0  0  0  0
    7.1691    0.0657   18.5954 C   0  0  0  0  0  0  0  0  0  0  0  0
    8.1082   -0.4462   18.3865 H   0  0  0  0  0  0  0  0  0  0  0  0
    6.6363    0.0607   19.8948 C   0  0  0  0  0  0  0  0  0  0  0  0
    7.3049   -0.5754   20.9770 N   0  0  0  0  0  0  0  0  0  0  0  0
    7.9277   -1.7747   20.8627 N   0  0  0  0  0  0  0  0  0  0  0  0
    8.3428   -2.0870   22.0315 N   0  0  0  0  0  0  0  0  0  0  0  0
    8.0238   -1.1376   22.9509 N   0  0  0  0  0  0  0  0  0  0  0  0
    7.4032   -0.2147   22.2813 C   0  0  0  0  0  0  0  0  0  0  0  0
    6.8964    0.9274   22.7950 O   0  0  0  0  0  0  0  0  0  0  0  0
    7.3586    2.1000   22.2063 C   0  0  0  0  0  0  0  0  0  0  0  0
    8.1813    2.1384   21.3349 O   0  0  0  0  0  0  0  0  0  0  0  0
    6.6703    3.0991   22.7998 N   0  0  0  0  0  0  0  0  0  0  0  0
    5.9358    2.7221   23.3630 H   0  0  0  0  0  0  0  0  0  0  0  0
    6.7751    4.4512   22.5001 C   0  0  0  0  0  0  0  0  0  0  0  0
    5.6609    5.2879   22.5013 C   0  0  0  0  0  0  0  0  0  0  0  0
    4.6681    4.9150   22.7333 H   0  0  0  0  0  0  0  0  0  0  0  0
    5.8630    6.6223   22.1487 C   0  0  0  0  0  0  0  0  0  0  0  0
    5.0124    7.3036   22.1137 H   0  0  0  0  0  0  0  0  0  0  0  0
    7.0591    7.1528   21.8560 N   0  0  0  0  0  0  0  0  0  0  0  0
    8.1116    6.3214   21.8728 C   0  0  0  0  0  0  0  0  0  0  0  0
    9.0799    6.7576   21.6268 H   0  0  0  0  0  0  0  0  0  0  0  0
    8.0307    4.9726   22.1895 C   0  0  0  0  0  0  0  0  0  0  0  0
    8.8933    4.3204   22.1847 H   0  0  0  0  0  0  0  0  0  0  0  0
    5.4091    0.6800   20.1368 C   0  0  0  0  0  0  0  0  0  0  0  0
    4.9664    0.6426   21.1309 H   0  0  0  0  0  0  0  0  0  0  0  0
    4.7783    1.3230   19.0698 C   0  0  0  0  0  0  0  0  0  0  0  0
    3.8387    1.8520   19.2086 H   0  0  0  0  0  0  0  0  0  0  0  0
  1  2  1  0
  2  3  2  0
  3  4  1  0
  4  5  1  0
  4  6  2  0
  6  7  1  0
  7  8  1  0
  8  9  2  0
  9 10  1  0
 10 11  2  0
 11 12  1  0
 12 13  1  0
 13 14  2  0
 13 15  1  0
 15 16  1  0
 15 17  1  0
 17 18  2  0
 18 19  1  0
 18 20  1  0
 20 21  1  0
 20 22  2  0
 22 23  1  0
 23 24  1  0
 23 25  2  0
 25 26  1  0
  6 27  1  0
 27 28  1  0
 27 29  2  0
 29 30  1  0
 29  2  1  0
 11  7  1  0
 25 17  1  0
M  END
>  <cnnaffinity>  (1) 
-4.94579

>  <filename>  (1) 
O=C(Nc1ccncc1)Oc1nnnn1-c1cccnc1

$$$$
