
     RDKit          3D

 28 29  0  0  0  0  0  0  0  0999 V2000
    8.1683   -1.5704   20.7949 O   0  0  0  0  0  0  0  0  0  0  0  0
    7.4080   -0.6576   21.0447 C   0  0  0  0  0  0  0  0  0  0  0  0
    7.2429   -0.0863   22.2902 N   0  0  0  0  0  0  0  0  0  0  0  0
    7.5944   -0.7889   23.4314 O   0  0  0  0  0  0  0  0  0  0  0  0
    8.7803   -0.2430   24.0363 C   0  0  0  0  0  0  0  0  0  0  0  0
    9.9890   -0.5072   23.1913 C   0  0  0  0  0  0  0  0  0  0  0  0
   10.4347    0.4233   22.2410 C   0  0  0  0  0  0  0  0  0  0  0  0
   11.4040    0.1907   21.3560 N   0  0  0  0  0  0  0  0  0  0  0  0
   11.9932   -1.0100   21.3731 C   0  0  0  0  0  0  0  0  0  0  0  0
   11.6854   -1.9963   22.3043 C   0  0  0  0  0  0  0  0  0  0  0  0
   10.6629   -1.7311   23.2107 C   0  0  0  0  0  0  0  0  0  0  0  0
   10.2605   -2.9473   24.3844 Cl  0  0  0  0  0  0  0  0  0  0  0  0
   12.2277   -2.9296   22.3439 H   0  0  0  0  0  0  0  0  0  0  0  0
   12.7394   -1.1998   20.6043 H   0  0  0  0  0  0  0  0  0  0  0  0
    9.9648    1.4053   22.1764 H   0  0  0  0  0  0  0  0  0  0  0  0
    8.6397    0.8264   24.2356 H   0  0  0  0  0  0  0  0  0  0  0  0
    8.8527   -0.7661   24.9925 H   0  0  0  0  0  0  0  0  0  0  0  0
    6.4167    0.4630   22.4327 H   0  0  0  0  0  0  0  0  0  0  0  0
    6.6221    0.0390   19.9816 C   0  0  0  0  0  0  0  0  0  0  0  0
    5.3779    0.6747   20.1485 C   0  0  0  0  0  0  0  0  0  0  0  0
    4.8188    1.3247   19.0517 C   0  0  0  0  0  0  0  0  0  0  0  0
    5.4890    1.2790   17.8253 C   0  0  0  0  0  0  0  0  0  0  0  0
    6.6374    0.6123   17.6396 N   0  0  0  0  0  0  0  0  0  0  0  0
    7.1804    0.0039   18.6976 C   0  0  0  0  0  0  0  0  0  0  0  0
    8.1067   -0.5411   18.5146 H   0  0  0  0  0  0  0  0  0  0  0  0
    5.0920    1.7928   16.9515 H   0  0  0  0  0  0  0  0  0  0  0  0
    3.8813    1.8643   19.1298 H   0  0  0  0  0  0  0  0  0  0  0  0
    4.8128    0.6319   21.0856 H   0  0  0  0  0  0  0  0  0  0  0  0
  1  2  2  0
  2  3  1  0
  3  4  1  0
  4  5  1  0
  5  6  1  0
  6  7  2  0
  7  8  1  0
  8  9  2  0
  9 10  1  0
 10 11  2  0
 11 12  1  0
 10 13  1  0
  9 14  1  0
  7 15  1  0
  5 16  1  0
  5 17  1  0
  3 18  1  0
  2 19  1  0
 19 20  2  0
 20 21  1  0
 21 22  2  0
 22 23  1  0
 23 24  2  0
 24 25  1  0
 22 26  1  0
 21 27  1  0
 20 28  1  0
 11  6  1  0
 24 19  1  0
M  END
>  <cnnaffinity>  (1) 
-4.95922

>  <filename>  (1) 
O=C(NOCc1cnccc1Cl)c1cccnc1

$$$$
