
     RDKit          3D

 28 29  0  0  0  0  0  0  0  0999 V2000
    8.3949   -1.0891   20.5225 H   0  0  0  0  0  0  0  0  0  0  0  0
    7.5441   -0.5076   20.8613 C   0  0  0  0  0  0  0  0  0  0  0  0
    7.4532   -0.3673   22.1852 C   0  0  0  0  0  0  0  0  0  0  0  0
    6.4697    0.3123   22.7990 F   0  0  0  0  0  0  0  0  0  0  0  0
    8.2849   -0.8871   23.1583 N   0  0  0  0  0  0  0  0  0  0  0  0
    7.9639   -0.7434   24.0947 H   0  0  0  0  0  0  0  0  0  0  0  0
    9.4016   -1.6719   22.9659 C   0  0  0  0  0  0  0  0  0  0  0  0
   10.0402   -1.6614   21.9336 O   0  0  0  0  0  0  0  0  0  0  0  0
    9.7639   -2.6252   24.1175 C   0  0  0  0  0  0  0  0  0  0  0  0
    9.1025   -2.7063   25.3599 C   0  0  0  0  0  0  0  0  0  0  0  0
    8.3691   -1.9750   25.6977 H   0  0  0  0  0  0  0  0  0  0  0  0
    9.3867   -3.7746   26.2187 C   0  0  0  0  0  0  0  0  0  0  0  0
    8.8298   -3.8939   27.1458 H   0  0  0  0  0  0  0  0  0  0  0  0
   10.3107   -4.7111   25.9675 N   0  0  0  0  0  0  0  0  0  0  0  0
   11.0215   -4.5848   24.8389 C   0  0  0  0  0  0  0  0  0  0  0  0
   11.7961   -5.3370   24.6734 H   0  0  0  0  0  0  0  0  0  0  0  0
   10.7992   -3.5668   23.9050 C   0  0  0  0  0  0  0  0  0  0  0  0
   11.4272   -3.4882   23.0220 H   0  0  0  0  0  0  0  0  0  0  0  0
    6.6766    0.0878   19.8197 C   0  0  0  0  0  0  0  0  0  0  0  0
    7.1056    0.0322   18.4675 C   0  0  0  0  0  0  0  0  0  0  0  0
    8.0038   -0.5289   18.2117 H   0  0  0  0  0  0  0  0  0  0  0  0
    6.4902    0.6291   17.4437 N   0  0  0  0  0  0  0  0  0  0  0  0
    5.3689    1.3150   17.7293 C   0  0  0  0  0  0  0  0  0  0  0  0
    4.8992    1.8225   16.8886 H   0  0  0  0  0  0  0  0  0  0  0  0
    4.8125    1.3860   19.0108 C   0  0  0  0  0  0  0  0  0  0  0  0
    3.8961    1.9502   19.1560 H   0  0  0  0  0  0  0  0  0  0  0  0
    5.4636    0.7582   20.0779 C   0  0  0  0  0  0  0  0  0  0  0  0
    5.0413    0.7926   21.0798 H   0  0  0  0  0  0  0  0  0  0  0  0
  1  2  1  0
  2  3  2  3
  3  4  1  0
  3  5  1  0
  5  6  1  0
  5  7  1  0
  7  8  2  0
  7  9  1  0
  9 10  2  0
 10 11  1  0
 10 12  1  0
 12 13  1  0
 12 14  2  0
 14 15  1  0
 15 16  1  0
 15 17  2  0
 17 18  1  0
  2 19  1  0
 19 20  2  0
 20 21  1  0
 20 22  1  0
 22 23  2  0
 23 24  1  0
 23 25  1  0
 25 26  1  0
 25 27  2  0
 27 28  1  0
 17  9  1  0
 27 19  1  0
M  END
>  <cnnaffinity>  (1) 
-4.80503

>  <filename>  (1) 
O=C(NC(F)=Cc1cccnc1)c1ccncc1

$$$$
