
     RDKit          3D

 30 32  0  0  0  0  0  0  0  0999 V2000
    9.7734   -0.0226   21.2398 O   0  0  0  0  0  0  0  0  0  0  0  0
    8.6354    0.2522   21.5624 C   0  0  0  0  0  0  0  0  0  0  0  0
    8.2996    1.3215   22.3697 N   0  0  0  0  0  0  0  0  0  0  0  0
    9.1602    2.3785   22.7799 C   0  0  0  0  0  0  0  0  0  0  0  0
    8.7947    3.2563   23.8549 C   0  0  0  0  0  0  0  0  0  0  0  0
    9.4971    4.3089   24.2531 N   0  0  0  0  0  0  0  0  0  0  0  0
   10.6572    4.5475   23.5821 C   0  0  0  0  0  0  0  0  0  0  0  0
   11.5566    5.6466   23.8030 C   0  0  0  0  0  0  0  0  0  0  0  0
   12.6636    5.5843   23.0220 C   0  0  0  0  0  0  0  0  0  0  0  0
   12.6446    4.2488   21.9169 S   0  0  0  0  0  0  0  0  0  0  0  0
   11.1264    3.6982   22.5549 C   0  0  0  0  0  0  0  0  0  0  0  0
   10.3669    2.6057   22.1249 C   0  0  0  0  0  0  0  0  0  0  0  0
   10.6828    1.9445   21.3247 H   0  0  0  0  0  0  0  0  0  0  0  0
   13.5475    6.2096   23.0522 H   0  0  0  0  0  0  0  0  0  0  0  0
   11.3186    6.4397   24.4963 H   0  0  0  0  0  0  0  0  0  0  0  0
    7.8584    3.0917   24.3831 H   0  0  0  0  0  0  0  0  0  0  0  0
    7.3337    1.3649   22.6575 H   0  0  0  0  0  0  0  0  0  0  0  0
    7.3999   -0.5960   21.0110 C   0  0  0  0  0  0  0  0  0  0  0  0
    7.8665   -1.7989   20.5890 F   0  0  0  0  0  0  0  0  0  0  0  0
    6.5508   -0.8495   22.0650 F   0  0  0  0  0  0  0  0  0  0  0  0
    6.5982    0.0435   19.8901 C   0  0  0  0  0  0  0  0  0  0  0  0
    5.3774    0.7037   20.1042 C   0  0  0  0  0  0  0  0  0  0  0  0
    4.7906    1.3569   19.0206 C   0  0  0  0  0  0  0  0  0  0  0  0
    5.4255    1.2995   17.7763 C   0  0  0  0  0  0  0  0  0  0  0  0
    6.5530    0.6098   17.5466 N   0  0  0  0  0  0  0  0  0  0  0  0
    7.1055   -0.0213   18.5837 C   0  0  0  0  0  0  0  0  0  0  0  0
    7.9878   -0.6242   18.3759 H   0  0  0  0  0  0  0  0  0  0  0  0
    5.0057    1.8123   16.9156 H   0  0  0  0  0  0  0  0  0  0  0  0
    3.8574    1.9014   19.1239 H   0  0  0  0  0  0  0  0  0  0  0  0
    4.8832    0.6651   21.0769 H   0  0  0  0  0  0  0  0  0  0  0  0
  1  2  2  0
  2  3  1  0
  3  4  1  0
  4  5  2  0
  5  6  1  0
  6  7  2  0
  7  8  1  0
  8  9  2  0
  9 10  1  0
 10 11  1  0
 11 12  2  0
 12 13  1  0
  9 14  1  0
  8 15  1  0
  5 16  1  0
  3 17  1  0
  2 18  1  0
 18 19  1  0
 18 20  1  0
 18 21  1  0
 21 22  2  0
 22 23  1  0
 23 24  2  0
 24 25  1  0
 25 26  2  0
 26 27  1  0
 24 28  1  0
 23 29  1  0
 22 30  1  0
 12  4  1  0
 26 21  1  0
 11  7  1  0
M  END
>  <cnnaffinity>  (1) 
-5.52476

>  <filename>  (1) 
O=C(Nc1cnc2ccsc2c1)C(F)(F)c1cccnc1

$$$$
