
     RDKit          3D

 28 29  0  0  0  0  0  0  0  0999 V2000
    8.1962    0.5483   25.8378 H   0  0  0  0  0  0  0  0  0  0  0  0
    8.5841    0.0458   26.5783 O   0  0  0  0  0  0  0  0  0  0  0  0
    8.8130   -1.1984   26.1145 C   0  0  0  0  0  0  0  0  0  0  0  0
    9.3076   -2.1457   26.9851 C   0  0  0  0  0  0  0  0  0  0  0  0
    9.5895   -1.7640   27.9523 H   0  0  0  0  0  0  0  0  0  0  0  0
    9.4861   -3.4624   26.5383 C   0  0  0  0  0  0  0  0  0  0  0  0
    9.9773   -4.6813   27.6692 Cl  0  0  0  0  0  0  0  0  0  0  0  0
    9.2572   -3.8180   25.2020 C   0  0  0  0  0  0  0  0  0  0  0  0
    9.4397   -4.8422   24.9012 H   0  0  0  0  0  0  0  0  0  0  0  0
    8.7963   -2.8525   24.2936 C   0  0  0  0  0  0  0  0  0  0  0  0
    8.5821   -3.0534   23.2435 H   0  0  0  0  0  0  0  0  0  0  0  0
    8.5891   -1.5642   24.7801 C   0  0  0  0  0  0  0  0  0  0  0  0
    8.0498   -0.4920   24.0486 O   0  0  0  0  0  0  0  0  0  0  0  0
    8.3078   -0.6921   22.5869 O   0  0  0  0  0  0  0  0  0  0  0  0
    7.1981    0.1836   21.9302 C   0  0  0  0  0  0  0  0  0  0  0  0
    6.6839    1.1009   22.4738 O   0  0  0  0  0  0  0  0  0  0  0  0
    7.0576   -0.4098   20.7095 N   0  0  0  0  0  0  0  0  0  0  0  0
    7.8399   -1.0434   20.6886 H   0  0  0  0  0  0  0  0  0  0  0  0
    6.4531    0.1647   19.5577 C   0  0  0  0  0  0  0  0  0  0  0  0
    7.0070    0.0501   18.2564 C   0  0  0  0  0  0  0  0  0  0  0  0
    7.9224   -0.5193   18.0945 H   0  0  0  0  0  0  0  0  0  0  0  0
    6.4768    0.6191   17.1645 N   0  0  0  0  0  0  0  0  0  0  0  0
    5.3458    1.3246   17.3209 C   0  0  0  0  0  0  0  0  0  0  0  0
    4.9490    1.8024   16.4300 H   0  0  0  0  0  0  0  0  0  0  0  0
    4.6887    1.4609   18.5478 C   0  0  0  0  0  0  0  0  0  0  0  0
    3.7658    2.0301   18.5944 H   0  0  0  0  0  0  0  0  0  0  0  0
    5.2568    0.8807   19.6913 C   0  0  0  0  0  0  0  0  0  0  0  0
    4.8134    0.9783   20.6836 H   0  0  0  0  0  0  0  0  0  0  0  0
  1  2  1  0
  2  3  1  0
  3  4  2  0
  4  5  1  0
  4  6  1  0
  6  7  1  0
  6  8  2  0
  8  9  1  0
  8 10  1  0
 10 11  1  0
 10 12  2  0
 12 13  1  0
 13 14  1  0
 14 15  1  0
 15 16  2  0
 15 17  1  0
 17 18  1  0
 17 19  1  0
 19 20  2  0
 20 21  1  0
 20 22  1  0
 22 23  2  0
 23 24  1  0
 23 25  1  0
 25 26  1  0
 25 27  2  0
 27 28  1  0
 12  3  1  0
 27 19  1  0
M  END
>  <cnnaffinity>  (1) 
-4.29514

>  <filename>  (1) 
O=C(Nc1cccnc1)OOc1ccc(Cl)cc1O

$$$$
