
     RDKit          3D

 36 39  0  0  0  0  0  0  0  0999 V2000
    5.0412    1.7380   16.7288 H   0  0  0  0  0  0  0  0  0  0  0  0
    5.4620    1.2764   17.6199 C   0  0  0  0  0  0  0  0  0  0  0  0
    6.6040    0.5865   17.4591 N   0  0  0  0  0  0  0  0  0  0  0  0
    7.1402    0.0119   18.5431 C   0  0  0  0  0  0  0  0  0  0  0  0
    8.0783   -0.5150   18.3657 H   0  0  0  0  0  0  0  0  0  0  0  0
    6.5729    0.0795   19.8430 C   0  0  0  0  0  0  0  0  0  0  0  0
    7.1688   -0.5916   20.9387 N   0  0  0  0  0  0  0  0  0  0  0  0
    7.9446   -1.2041   20.7549 H   0  0  0  0  0  0  0  0  0  0  0  0
    6.9565   -0.4481   22.2899 C   0  0  0  0  0  0  0  0  0  0  0  0
    6.2408    0.4073   22.7823 O   0  0  0  0  0  0  0  0  0  0  0  0
    7.7010   -1.5264   23.1342 C   0  0  0  0  0  0  0  0  0  0  0  0
    9.1810   -1.4988   23.0015 C   0  0  0  0  0  0  0  0  0  0  0  0
   10.0195   -2.2007   22.1835 C   0  0  0  0  0  0  0  0  0  0  0  0
    9.8301   -3.0676   21.5706 H   0  0  0  0  0  0  0  0  0  0  0  0
   11.2996   -1.6890   22.2604 N   0  0  0  0  0  0  0  0  0  0  0  0
   12.0815   -2.0015   21.7146 H   0  0  0  0  0  0  0  0  0  0  0  0
   11.3044   -0.6010   23.1030 C   0  0  0  0  0  0  0  0  0  0  0  0
   12.3396    0.2625   23.5070 C   0  0  0  0  0  0  0  0  0  0  0  0
   13.3333    0.1902   23.0696 H   0  0  0  0  0  0  0  0  0  0  0  0
   12.0293    1.2284   24.4587 C   0  0  0  0  0  0  0  0  0  0  0  0
   12.8058    1.9009   24.8064 H   0  0  0  0  0  0  0  0  0  0  0  0
   10.7196    1.3503   24.9900 C   0  0  0  0  0  0  0  0  0  0  0  0
   10.5242    2.0819   25.7640 H   0  0  0  0  0  0  0  0  0  0  0  0
    9.6968    0.5214   24.5572 C   0  0  0  0  0  0  0  0  0  0  0  0
    8.6774    0.6343   24.9195 H   0  0  0  0  0  0  0  0  0  0  0  0
    9.9898   -0.4677   23.6006 C   0  0  0  0  0  0  0  0  0  0  0  0
    7.1192   -1.7790   24.5120 C   0  0  0  0  0  0  0  0  0  0  0  0
    7.8171   -2.0237   25.3138 H   0  0  0  0  0  0  0  0  0  0  0  0
    6.2798   -1.1357   24.7743 H   0  0  0  0  0  0  0  0  0  0  0  0
    6.9196   -2.8045   23.4411 C   0  0  0  0  0  0  0  0  0  0  0  0
    7.4726   -3.7440   23.5135 H   0  0  0  0  0  0  0  0  0  0  0  0
    5.9385   -2.8907   22.9780 H   0  0  0  0  0  0  0  0  0  0  0  0
    5.3844    0.8089   19.9912 C   0  0  0  0  0  0  0  0  0  0  0  0
    4.9437    0.9102   20.9783 H   0  0  0  0  0  0  0  0  0  0  0  0
    4.8246    1.4079   18.8558 C   0  0  0  0  0  0  0  0  0  0  0  0
    3.9145    1.9945   18.9280 H   0  0  0  0  0  0  0  0  0  0  0  0
  1  2  1  0
  2  3  2  0
  3  4  1  0
  4  5  1  0
  4  6  2  0
  6  7  1  0
  7  8  1  0
  7  9  1  0
  9 10  2  0
  9 11  1  0
 11 12  1  0
 12 13  2  0
 13 14  1  0
 13 15  1  0
 15 16  1  0
 15 17  1  0
 17 18  2  0
 18 19  1  0
 18 20  1  0
 20 21  1  0
 20 22  2  0
 22 23  1  0
 22 24  1  0
 24 25  1  0
 24 26  2  0
 11 27  1  0
 27 28  1  0
 27 29  1  0
 27 30  1  0
 30 31  1  0
 30 32  1  0
  6 33  1  0
 33 34  1  0
 33 35  2  0
 35 36  1  0
 35  2  1  0
 30 11  1  0
 26 12  1  0
 26 17  1  0
M  END
>  <cnnaffinity>  (1) 
-5.10356

>  <filename>  (1) 
O=C(Nc1cccnc1)C1(c2c[nH]c3ccccc23)CC1

$$$$
