
     RDKit          3D

 33 35  0  0  0  0  0  0  0  0999 V2000
    6.0552   -2.8575   24.6607 O   0  0  0  0  0  0  0  0  0  0  0  0
    7.2026   -2.8193   25.0501 C   0  0  0  0  0  0  0  0  0  0  0  0
    7.5799   -3.1097   26.4873 C   0  0  0  0  0  0  0  0  0  0  0  0
    7.2661   -1.9040   27.3444 C   0  0  0  0  0  0  0  0  0  0  0  0
    6.0103   -1.8058   27.9563 C   0  0  0  0  0  0  0  0  0  0  0  0
    5.6866   -0.6836   28.7214 C   0  0  0  0  0  0  0  0  0  0  0  0
    6.5093    0.3664   28.8434 N   0  0  0  0  0  0  0  0  0  0  0  0
    7.6857    0.3145   28.2065 C   0  0  0  0  0  0  0  0  0  0  0  0
    8.1105   -0.7972   27.4668 C   0  0  0  0  0  0  0  0  0  0  0  0
    9.6865   -0.7707   26.7261 Cl  0  0  0  0  0  0  0  0  0  0  0  0
    8.3283    1.1903   28.2697 H   0  0  0  0  0  0  0  0  0  0  0  0
    4.7238   -0.6125   29.2321 H   0  0  0  0  0  0  0  0  0  0  0  0
    5.2950   -2.6092   27.8473 H   0  0  0  0  0  0  0  0  0  0  0  0
    8.6186   -3.4247   26.5647 H   0  0  0  0  0  0  0  0  0  0  0  0
    6.9754   -3.9610   26.7992 H   0  0  0  0  0  0  0  0  0  0  0  0
    8.2330   -2.4689   24.2175 N   0  0  0  0  0  0  0  0  0  0  0  0
    8.0705   -1.9076   22.9753 C   0  0  0  0  0  0  0  0  0  0  0  0
    9.1221   -1.6998   22.2477 N   0  0  0  0  0  0  0  0  0  0  0  0
    8.7459   -1.0621   21.0883 C   0  0  0  0  0  0  0  0  0  0  0  0
    7.4176   -0.7671   20.9483 C   0  0  0  0  0  0  0  0  0  0  0  0
    6.7092   -0.0269   19.8933 C   0  0  0  0  0  0  0  0  0  0  0  0
    5.4960    0.6492   20.1346 C   0  0  0  0  0  0  0  0  0  0  0  0
    4.8595    1.3039   19.0818 C   0  0  0  0  0  0  0  0  0  0  0  0
    5.4518    1.2859   17.8159 C   0  0  0  0  0  0  0  0  0  0  0  0
    6.6044    0.6514   17.5565 N   0  0  0  0  0  0  0  0  0  0  0  0
    7.2027    0.0215   18.5739 C   0  0  0  0  0  0  0  0  0  0  0  0
    8.1283   -0.4987   18.3353 H   0  0  0  0  0  0  0  0  0  0  0  0
    4.9879    1.8003   16.9763 H   0  0  0  0  0  0  0  0  0  0  0  0
    3.9283    1.8346   19.2324 H   0  0  0  0  0  0  0  0  0  0  0  0
    5.0655    0.6531   21.1347 H   0  0  0  0  0  0  0  0  0  0  0  0
    6.5598   -1.3957   22.3278 S   0  0  0  0  0  0  0  0  0  0  0  0
    9.5032   -0.8048   20.3535 H   0  0  0  0  0  0  0  0  0  0  0  0
    9.2026   -2.5615   24.4701 H   0  0  0  0  0  0  0  0  0  0  0  0
  1  2  2  0
  2  3  1  0
  3  4  1  0
  4  5  2  0
  5  6  1  0
  6  7  2  0
  7  8  1  0
  8  9  2  0
  9 10  1  0
  8 11  1  0
  6 12  1  0
  5 13  1  0
  3 14  1  0
  3 15  1  0
  2 16  1  0
 16 17  1  0
 17 18  2  0
 18 19  1  0
 19 20  2  0
 20 21  1  0
 21 22  2  0
 22 23  1  0
 23 24  2  0
 24 25  1  0
 25 26  2  0
 26 27  1  0
 24 28  1  0
 23 29  1  0
 22 30  1  0
 20 31  1  0
 19 32  1  0
 16 33  1  0
  9  4  1  0
 31 17  1  0
 26 21  1  0
M  END
>  <cnnaffinity>  (1) 
-5.2305

>  <filename>  (1) 
O=C(Cc1ccncc1Cl)Nc1ncc(-c2cccnc2)s1

$$$$
