
     RDKit          3D

 40 43  0  0  0  0  0  0  0  0999 V2000
    4.9543    1.7977   16.9973 H   0  0  0  0  0  0  0  0  0  0  0  0
    5.4225    1.2903   17.8367 C   0  0  0  0  0  0  0  0  0  0  0  0
    6.5818    0.6683   17.5821 N   0  0  0  0  0  0  0  0  0  0  0  0
    7.1997    0.0530   18.6011 C   0  0  0  0  0  0  0  0  0  0  0  0
    8.1418   -0.4324   18.3504 H   0  0  0  0  0  0  0  0  0  0  0  0
    6.7067    0.0126   19.9424 C   0  0  0  0  0  0  0  0  0  0  0  0
    7.3402   -0.6544   20.9812 N   0  0  0  0  0  0  0  0  0  0  0  0
    7.2507   -0.2939   22.4153 C   0  0  0  0  0  0  0  0  0  0  0  0
    7.2653    0.7902   22.5839 H   0  0  0  0  0  0  0  0  0  0  0  0
    6.3517   -0.7128   22.8866 H   0  0  0  0  0  0  0  0  0  0  0  0
    8.5108   -1.0003   22.9842 C   0  0  2  0  0  0  0  0  0  0  0  0
    8.5125   -1.1044   24.0662 H   0  0  0  0  0  0  0  0  0  0  0  0
    9.7418   -0.3275   22.5063 N   0  0  0  0  0  0  0  0  0  0  0  0
   10.2437    0.7444   23.2087 C   0  0  0  0  0  0  0  0  0  0  0  0
    9.7995    1.0750   24.2935 O   0  0  0  0  0  0  0  0  0  0  0  0
   11.2909    1.3807   22.5828 N   0  0  0  0  0  0  0  0  0  0  0  0
   11.7284    0.8708   21.8413 H   0  0  0  0  0  0  0  0  0  0  0  0
   11.7902    2.6314   22.9802 C   0  0  0  0  0  0  0  0  0  0  0  0
   13.1423    2.9428   22.8342 C   0  0  0  0  0  0  0  0  0  0  0  0
   13.8265    2.1861   22.4661 H   0  0  0  0  0  0  0  0  0  0  0  0
   13.6156    4.2104   23.2008 C   0  0  0  0  0  0  0  0  0  0  0  0
   14.6650    4.4613   23.0850 H   0  0  0  0  0  0  0  0  0  0  0  0
   12.7149    5.1506   23.7135 C   0  0  0  0  0  0  0  0  0  0  0  0
   13.2039    6.7600   24.1317 Cl  0  0  0  0  0  0  0  0  0  0  0  0
   11.3678    4.8349   23.8896 C   0  0  0  0  0  0  0  0  0  0  0  0
   10.6877    5.5615   24.3237 H   0  0  0  0  0  0  0  0  0  0  0  0
   10.9100    3.5794   23.5154 C   0  0  0  0  0  0  0  0  0  0  0  0
    9.8768    3.2945   23.6367 H   0  0  0  0  0  0  0  0  0  0  0  0
    9.8108   -0.5611   21.0502 C   0  0  0  0  0  0  0  0  0  0  0  0
    9.7297    0.3588   20.4548 H   0  0  0  0  0  0  0  0  0  0  0  0
   10.7177   -1.1154   20.7742 H   0  0  0  0  0  0  0  0  0  0  0  0
    8.5659   -1.4422   20.8382 C   0  0  1  0  0  0  0  0  0  0  0  0
    8.6021   -1.9386   19.8876 H   0  0  0  0  0  0  0  0  0  0  0  0
    8.5326   -2.2648   22.1299 C   0  0  0  0  0  0  0  0  0  0  0  0
    7.6284   -2.8732   22.2230 H   0  0  0  0  0  0  0  0  0  0  0  0
    9.4126   -2.8901   22.2940 H   0  0  0  0  0  0  0  0  0  0  0  0
    5.4686    0.6551   20.1653 C   0  0  0  0  0  0  0  0  0  0  0  0
    5.0365    0.6410   21.1643 H   0  0  0  0  0  0  0  0  0  0  0  0
    4.8292    1.2991   19.1035 C   0  0  0  0  0  0  0  0  0  0  0  0
    3.8926    1.8224   19.2523 H   0  0  0  0  0  0  0  0  0  0  0  0
  1  2  1  0
  2  3  2  0
  3  4  1  0
  4  5  1  0
  4  6  2  0
  6  7  1  0
  7  8  1  0
  8  9  1  0
  8 10  1  0
  8 11  1  0
 11 12  1  1
 11 13  1  0
 13 14  1  0
 14 15  2  0
 14 16  1  0
 16 17  1  0
 16 18  1  0
 18 19  2  0
 19 20  1  0
 19 21  1  0
 21 22  1  0
 21 23  2  0
 23 24  1  0
 23 25  1  0
 25 26  1  0
 25 27  2  0
 27 28  1  0
 13 29  1  0
 29 30  1  0
 29 31  1  0
 29 32  1  0
 32 33  1  6
 32 34  1  0
 34 35  1  0
 34 36  1  0
  6 37  1  0
 37 38  1  0
 37 39  2  0
 39 40  1  0
 39  2  1  0
 32  7  1  0
 34 11  1  0
 27 18  1  0
M  END
>  <cnnaffinity>  (1) 
-5.42296

>  <filename>  (1) 
O=C(Nc1ccc(Cl)cc1)N1C[C@H]2C[C@@H]1CN2c1cccnc1

$$$$
