
     RDKit          3D

 34 36  0  0  0  0  0  0  0  0999 V2000
   11.1533   -4.5329   25.1776 H   0  0  0  0  0  0  0  0  0  0  0  0
   11.2047   -5.5054   25.1649 O   0  0  0  0  0  0  0  0  0  0  0  0
    9.5156   -5.9773   24.5490 C   0  0  0  0  0  0  0  0  0  0  0  0
    9.2921   -6.2578   24.7402 C   0  0  0  0  0  0  0  0  0  0  0  0
    8.5519   -7.0016   25.0427 H   0  0  0  0  0  0  0  0  0  0  0  0
    8.9278   -8.0201   22.7213 C   0  0  0  0  0  0  0  0  0  0  0  0
    9.0353  -10.2608   24.1080 Cl  0  0  0  0  0  0  0  0  0  0  0  0
    8.9750   -7.8581   22.8066 C   0  0  0  0  0  0  0  0  0  0  0  0
    7.9970   -8.1486   21.9897 H   0  0  0  0  0  0  0  0  0  0  0  0
    8.6314   -6.5701   22.3843 C   0  0  0  0  0  0  0  0  0  0  0  0
    8.6542   -6.1604   21.4156 H   0  0  0  0  0  0  0  0  0  0  0  0
    8.8930   -5.5156   23.4407 C   0  0  0  0  0  0  0  0  0  0  0  0
    8.8902   -4.1958   23.0877 O   0  0  0  0  0  0  0  0  0  0  0  0
    7.8382   -3.3517   23.3392 C   0  0  0  0  0  0  0  0  0  0  0  0
    6.8546   -3.7124   23.9194 O   0  0  0  0  0  0  0  0  0  0  0  0
    8.1505   -1.9676   22.8126 C   0  0  0  0  0  0  0  0  0  0  0  0
    8.8927   -1.4930   23.4543 H   0  0  0  0  0  0  0  0  0  0  0  0
    8.5216   -1.8891   21.3025 C   0  0  0  0  0  0  0  0  0  0  0  0
    9.4736   -1.3935   21.0638 H   0  0  0  0  0  0  0  0  0  0  0  0
    8.4723   -2.8366   20.7577 H   0  0  0  0  0  0  0  0  0  0  0  0
    7.3503   -1.0518   21.1343 N   0  0  0  0  0  0  0  0  0  0  0  0
    6.8219   -0.3615   20.0734 C   0  0  0  0  0  0  0  0  0  0  0  0
    7.4037   -0.3340   18.7704 C   0  0  0  0  0  0  0  0  0  0  0  0
    8.3116   -0.9025   18.5713 H   0  0  0  0  0  0  0  0  0  0  0  0
    6.9113    0.3618   17.7357 N   0  0  0  0  0  0  0  0  0  0  0  0
    5.7931    1.0786   17.9417 C   0  0  0  0  0  0  0  0  0  0  0  0
    5.4161    1.6451   17.0927 H   0  0  0  0  0  0  0  0  0  0  0  0
    5.1258    1.1098   19.1719 C   0  0  0  0  0  0  0  0  0  0  0  0
    4.2281    1.7106   19.2836 H   0  0  0  0  0  0  0  0  0  0  0  0
    5.6349    0.3812   20.2472 C   0  0  0  0  0  0  0  0  0  0  0  0
    5.1420    0.3825   21.2189 H   0  0  0  0  0  0  0  0  0  0  0  0
    6.9313   -1.0758   22.5204 C   0  0  0  0  0  0  0  0  0  0  0  0
    5.9764   -1.5790   22.6788 H   0  0  0  0  0  0  0  0  0  0  0  0
    6.9309   -0.0896   23.0094 H   0  0  0  0  0  0  0  0  0  0  0  0
  1  2  1  0
  2  3  1  0
  3  4  2  0
  4  5  1  0
  4  6  1  0
  6  7  1  0
  6  8  2  0
  8  9  1  0
  8 10  1  0
 10 11  1  0
 10 12  2  0
 12 13  1  0
 13 14  1  0
 14 15  2  0
 14 16  1  0
 16 17  1  0
 16 18  1  0
 18 19  1  0
 18 20  1  0
 18 21  1  0
 21 22  1  0
 22 23  2  0
 23 24  1  0
 23 25  1  0
 25 26  2  0
 26 27  1  0
 26 28  1  0
 28 29  1  0
 28 30  2  0
 30 31  1  0
 21 32  1  0
 32 33  1  0
 32 34  1  0
 12  3  1  0
 32 16  1  0
 30 22  1  0
M  END
>  <cnnaffinity>  (1) 
-5.28304

>  <filename>  (1) 
O=C(Oc1ccc(Cl)cc1O)C1CN(c2cccnc2)C1

$$$$
