
     RDKit          3D

 37 39  0  0  0  0  0  0  0  0999 V2000
    8.0862    5.8551   20.8197 H   0  0  0  0  0  0  0  0  0  0  0  0
    8.0251    5.3475   21.7829 C   0  0  0  0  0  0  0  0  0  0  0  0
    8.1498    4.0196   21.7519 N   0  0  0  0  0  0  0  0  0  0  0  0
    8.0509    3.3256   22.9019 C   0  0  0  0  0  0  0  0  0  0  0  0
    8.1628    1.7911   22.8396 C   0  0  0  0  0  0  0  0  0  0  0  0
    7.7947    1.0820   23.7756 O   0  0  0  0  0  0  0  0  0  0  0  0
    8.7384    1.2853   21.6972 N   0  0  0  0  0  0  0  0  0  0  0  0
    8.8600    1.9628   20.9504 H   0  0  0  0  0  0  0  0  0  0  0  0
    8.6631   -0.0566   21.2478 N   0  0  0  0  0  0  0  0  0  0  0  0
    9.5164   -0.8967   22.1153 C   0  0  0  0  0  0  0  0  0  0  0  0
    9.2521   -0.7373   23.1710 H   0  0  0  0  0  0  0  0  0  0  0  0
   10.5491   -0.5729   21.9539 H   0  0  0  0  0  0  0  0  0  0  0  0
    9.3513   -2.3612   21.7415 C   0  0  0  0  0  0  0  0  0  0  0  0
    9.7124   -2.5237   20.7122 H   0  0  0  0  0  0  0  0  0  0  0  0
    9.9344   -2.9918   22.4234 H   0  0  0  0  0  0  0  0  0  0  0  0
    7.9981   -2.7699   21.8790 O   0  0  0  0  0  0  0  0  0  0  0  0
    7.1037   -2.0384   21.0560 C   0  0  0  0  0  0  0  0  0  0  0  0
    6.0976   -2.3245   21.3896 H   0  0  0  0  0  0  0  0  0  0  0  0
    7.2144   -2.3182   19.9979 H   0  0  0  0  0  0  0  0  0  0  0  0
    7.2389   -0.5058   21.1854 C   0  0  2  0  0  0  0  0  0  0  0  0
    6.7745   -0.2010   22.1373 H   0  0  0  0  0  0  0  0  0  0  0  0
    6.5561    0.1899   20.0252 C   0  0  0  0  0  0  0  0  0  0  0  0
    7.1572    0.1946   18.7519 C   0  0  0  0  0  0  0  0  0  0  0  0
    8.1326   -0.2695   18.6044 H   0  0  0  0  0  0  0  0  0  0  0  0
    6.5953    0.7288   17.6596 N   0  0  0  0  0  0  0  0  0  0  0  0
    5.4022    1.3229   17.8088 C   0  0  0  0  0  0  0  0  0  0  0  0
    4.9714    1.7540   16.9056 H   0  0  0  0  0  0  0  0  0  0  0  0
    4.7287    1.4004   19.0329 C   0  0  0  0  0  0  0  0  0  0  0  0
    3.7743    1.9122   19.0840 H   0  0  0  0  0  0  0  0  0  0  0  0
    5.3209    0.8297   20.1654 C   0  0  0  0  0  0  0  0  0  0  0  0
    4.8385    0.8825   21.1454 H   0  0  0  0  0  0  0  0  0  0  0  0
    7.8434    3.9600   24.1402 C   0  0  0  0  0  0  0  0  0  0  0  0
    7.7273    3.3420   25.0264 H   0  0  0  0  0  0  0  0  0  0  0  0
    7.7556    5.3554   24.1757 C   0  0  0  0  0  0  0  0  0  0  0  0
    7.6405    5.8845   25.1243 H   0  0  0  0  0  0  0  0  0  0  0  0
    7.8356    6.0587   22.9690 C   0  0  0  0  0  0  0  0  0  0  0  0
    7.7205    7.1329   22.8995 H   0  0  0  0  0  0  0  0  0  0  0  0
  1  2  1  0
  2  3  2  0
  3  4  1  0
  4  5  1  0
  5  6  2  0
  5  7  1  0
  7  8  1  0
  7  9  1  0
  9 10  1  0
 10 11  1  0
 10 12  1  0
 10 13  1  0
 13 14  1  0
 13 15  1  0
 13 16  1  0
 16 17  1  0
 17 18  1  0
 17 19  1  0
 17 20  1  0
 20 21  1  1
 20 22  1  0
 22 23  2  0
 23 24  1  0
 23 25  1  0
 25 26  2  0
 26 27  1  0
 26 28  1  0
 28 29  1  0
 28 30  2  0
 30 31  1  0
  4 32  2  0
 32 33  1  0
 32 34  1  0
 34 35  1  0
 34 36  2  0
 36 37  1  0
 36  2  1  0
 20  9  1  0
 30 22  1  0
M  END
>  <cnnaffinity>  (1) 
-4.37318

>  <filename>  (1) 
O=C(NN1CCOC[C@@H]1c1cccnc1)c1ccccn1

$$$$
