
     RDKit          3D

 38 39  0  0  0  0  0  0  0  0999 V2000
    7.5665   -5.2526   21.5853 O   0  0  0  0  0  0  0  0  0  0  0  0
    6.9392   -4.2643   21.9508 C   0  0  0  0  0  0  0  0  0  0  0  0
    7.6012   -2.8734   21.8902 C   0  0  0  0  0  0  0  0  0  0  0  0
    7.0710   -2.0380   20.8341 O   0  0  0  0  0  0  0  0  0  0  0  0
    7.4042   -0.6454   20.9391 C   0  0  0  0  0  0  0  0  0  0  0  0
    6.6767    0.0796   19.8411 C   0  0  0  0  0  0  0  0  0  0  0  0
    5.4777    0.7590   20.0793 C   0  0  0  0  0  0  0  0  0  0  0  0
    4.8589    1.3833   18.9971 C   0  0  0  0  0  0  0  0  0  0  0  0
    5.4408    1.3177   17.7270 C   0  0  0  0  0  0  0  0  0  0  0  0
    6.5912    0.6595   17.4965 N   0  0  0  0  0  0  0  0  0  0  0  0
    7.1910    0.0556   18.5371 C   0  0  0  0  0  0  0  0  0  0  0  0
    8.1237   -0.4692   18.3557 H   0  0  0  0  0  0  0  0  0  0  0  0
    4.9469    1.8170   16.8998 H   0  0  0  0  0  0  0  0  0  0  0  0
    3.9327    1.9322   19.1229 H   0  0  0  0  0  0  0  0  0  0  0  0
    5.0378    0.8041   21.0758 H   0  0  0  0  0  0  0  0  0  0  0  0
    7.1037   -0.2468   21.9155 H   0  0  0  0  0  0  0  0  0  0  0  0
    8.4870   -0.5015   20.8355 H   0  0  0  0  0  0  0  0  0  0  0  0
    8.6780   -3.0032   21.7458 H   0  0  0  0  0  0  0  0  0  0  0  0
    7.4603   -2.3921   22.8613 H   0  0  0  0  0  0  0  0  0  0  0  0
    5.6789   -4.4265   22.5137 N   0  0  0  0  0  0  0  0  0  0  0  0
    4.9472   -5.6932   22.5642 C   0  0  0  0  0  0  0  0  0  0  0  0
    3.5158   -5.4651   23.0712 C   0  0  0  0  0  0  0  0  0  0  0  0
    3.5317   -5.2040   24.5561 C   0  0  0  0  0  0  0  0  0  0  0  0
    3.6994   -3.8837   24.9917 C   0  0  0  0  0  0  0  0  0  0  0  0
    3.8647   -3.6048   26.3511 C   0  0  0  0  0  0  0  0  0  0  0  0
    3.8587   -4.6448   27.2907 C   0  0  0  0  0  0  0  0  0  0  0  0
    3.6052   -5.9554   26.8695 C   0  0  0  0  0  0  0  0  0  0  0  0
    3.4379   -6.2441   25.5102 C   0  0  0  0  0  0  0  0  0  0  0  0
    3.0430   -8.3816   24.9350 I   0  0  0  0  0  0  0  0  0  0  0  0
    3.5536   -6.7618   27.6004 H   0  0  0  0  0  0  0  0  0  0  0  0
    4.0386   -4.4333   28.3431 H   0  0  0  0  0  0  0  0  0  0  0  0
    4.0018   -2.5737   26.6713 H   0  0  0  0  0  0  0  0  0  0  0  0
    3.7180   -3.0815   24.2535 H   0  0  0  0  0  0  0  0  0  0  0  0
    2.9062   -6.3490   22.8621 H   0  0  0  0  0  0  0  0  0  0  0  0
    3.0618   -4.6211   22.5408 H   0  0  0  0  0  0  0  0  0  0  0  0
    4.8955   -6.1332   21.5659 H   0  0  0  0  0  0  0  0  0  0  0  0
    5.4682   -6.4109   23.2071 H   0  0  0  0  0  0  0  0  0  0  0  0
    5.2008   -3.5875   22.8260 H   0  0  0  0  0  0  0  0  0  0  0  0
  1  2  2  0
  2  3  1  0
  3  4  1  0
  4  5  1  0
  5  6  1  0
  6  7  2  0
  7  8  1  0
  8  9  2  0
  9 10  1  0
 10 11  2  0
 11 12  1  0
  9 13  1  0
  8 14  1  0
  7 15  1  0
  5 16  1  0
  5 17  1  0
  3 18  1  0
  3 19  1  0
  2 20  1  0
 20 21  1  0
 21 22  1  0
 22 23  1  0
 23 24  2  0
 24 25  1  0
 25 26  2  0
 26 27  1  0
 27 28  2  0
 28 29  1  0
 27 30  1  0
 26 31  1  0
 25 32  1  0
 24 33  1  0
 22 34  1  0
 22 35  1  0
 21 36  1  0
 21 37  1  0
 20 38  1  0
 11  6  1  0
 28 23  1  0
M  END
>  <cnnaffinity>  (1) 
-4.61438

>  <filename>  (1) 
O=C(COCc1cccnc1)NCCc1ccccc1I

$$$$
