
     RDKit          3D

 34 35  0  0  0  0  0  0  0  0999 V2000
    7.2422    2.7910   24.7892 O   0  0  0  0  0  0  0  0  0  0  0  0
    8.3202    2.9318   24.2350 C   0  0  0  0  0  0  0  0  0  0  0  0
    9.2515    4.0320   24.6727 C   0  0  0  0  0  0  0  0  0  0  0  0
   10.2893    4.6111   24.0363 C   0  0  0  0  0  0  0  0  0  0  0  0
   11.1191    5.7456   24.5312 C   0  0  0  0  0  0  0  0  0  0  0  0
   12.1508    6.2404   23.7208 C   0  0  0  0  0  0  0  0  0  0  0  0
   12.8963    7.2902   24.2357 C   0  0  0  0  0  0  0  0  0  0  0  0
   12.6562    7.8226   25.4400 N   0  0  0  0  0  0  0  0  0  0  0  0
   11.6509    7.2826   26.1268 C   0  0  0  0  0  0  0  0  0  0  0  0
   10.8749    6.2731   25.7364 N   0  0  0  0  0  0  0  0  0  0  0  0
   11.4383    7.7050   27.1087 H   0  0  0  0  0  0  0  0  0  0  0  0
   13.7136    7.7448   23.6732 H   0  0  0  0  0  0  0  0  0  0  0  0
   12.3517    5.8254   22.7433 H   0  0  0  0  0  0  0  0  0  0  0  0
   10.6007    4.3216   23.0258 H   0  0  0  0  0  0  0  0  0  0  0  0
    8.8971    4.4200   25.6279 H   0  0  0  0  0  0  0  0  0  0  0  0
    8.7639    2.1562   23.1988 N   0  0  0  0  0  0  0  0  0  0  0  0
    8.0028    1.1224   22.6258 N   0  0  0  0  0  0  0  0  0  0  0  0
    8.4701    0.2968   21.6452 C   0  0  0  0  0  0  0  0  0  0  0  0
    9.6283    0.3060   21.2563 O   0  0  0  0  0  0  0  0  0  0  0  0
    7.4162   -0.6418   21.0463 C   0  0  0  0  0  0  0  0  0  0  0  0
    6.6395    0.0029   19.9044 C   0  0  0  0  0  0  0  0  0  0  0  0
    5.4267    0.6564   20.1408 C   0  0  0  0  0  0  0  0  0  0  0  0
    4.7902    1.3202   19.0879 C   0  0  0  0  0  0  0  0  0  0  0  0
    5.3868    1.3012   17.8247 C   0  0  0  0  0  0  0  0  0  0  0  0
    6.5450    0.6742   17.5683 N   0  0  0  0  0  0  0  0  0  0  0  0
    7.1475    0.0541   18.5901 C   0  0  0  0  0  0  0  0  0  0  0  0
    8.1040   -0.4175   18.3611 H   0  0  0  0  0  0  0  0  0  0  0  0
    4.9189    1.8041   16.9786 H   0  0  0  0  0  0  0  0  0  0  0  0
    3.8608    1.8570   19.2358 H   0  0  0  0  0  0  0  0  0  0  0  0
    4.9938    0.6468   21.1423 H   0  0  0  0  0  0  0  0  0  0  0  0
    7.9848   -1.5031   20.6891 H   0  0  0  0  0  0  0  0  0  0  0  0
    6.7268   -1.0184   21.8142 H   0  0  0  0  0  0  0  0  0  0  0  0
    7.0195    1.1257   22.8669 H   0  0  0  0  0  0  0  0  0  0  0  0
    9.7506    2.1587   22.9668 H   0  0  0  0  0  0  0  0  0  0  0  0
  1  2  2  0
  2  3  1  0
  3  4  2  3
  4  5  1  0
  5  6  2  0
  6  7  1  0
  7  8  2  0
  8  9  1  0
  9 10  2  0
  9 11  1  0
  7 12  1  0
  6 13  1  0
  4 14  1  0
  3 15  1  0
  2 16  1  0
 16 17  1  0
 17 18  1  0
 18 19  2  0
 18 20  1  0
 20 21  1  0
 21 22  2  0
 22 23  1  0
 23 24  2  0
 24 25  1  0
 25 26  2  0
 26 27  1  0
 24 28  1  0
 23 29  1  0
 22 30  1  0
 20 31  1  0
 20 32  1  0
 17 33  1  0
 16 34  1  0
 10  5  1  0
 26 21  1  0
M  END
>  <cnnaffinity>  (1) 
-4.62641

>  <filename>  (1) 
O=C(C=Cc1ccncn1)NNC(=O)Cc1cccnc1

$$$$
