
     RDKit          3D

 42 45  0  0  0  0  0  0  0  0999 V2000
    4.9943    1.8556   16.9224 H   0  0  0  0  0  0  0  0  0  0  0  0
    5.4328    1.3051   17.7502 C   0  0  0  0  0  0  0  0  0  0  0  0
    6.5735    0.6498   17.4905 N   0  0  0  0  0  0  0  0  0  0  0  0
    7.1501   -0.0058   18.5071 C   0  0  0  0  0  0  0  0  0  0  0  0
    8.0690   -0.5324   18.2503 H   0  0  0  0  0  0  0  0  0  0  0  0
    6.6527   -0.0512   19.8268 C   0  0  0  0  0  0  0  0  0  0  0  0
    7.3825   -0.7880   20.9467 C   0  0  1  0  0  0  0  0  0  0  0  0
    7.0102   -1.8221   20.9553 H   0  0  0  0  0  0  0  0  0  0  0  0
    8.9491   -0.8800   20.7902 C   0  0  0  0  0  0  0  0  0  0  0  0
    9.2660   -1.8282   20.3529 H   0  0  0  0  0  0  0  0  0  0  0  0
    9.3496   -0.0767   20.1636 H   0  0  0  0  0  0  0  0  0  0  0  0
    9.4529   -0.7086   22.1916 C   0  0  0  0  0  0  0  0  0  0  0  0
   10.6379   -0.7465   22.7847 N   0  0  0  0  0  0  0  0  0  0  0  0
   10.3538   -0.3393   24.0453 N   0  0  0  0  0  0  0  0  0  0  0  0
   11.1065   -0.2928   24.7139 H   0  0  0  0  0  0  0  0  0  0  0  0
    9.0373   -0.0434   24.2521 C   0  0  0  0  0  0  0  0  0  0  0  0
    8.4832    0.6108   25.4873 C   0  0  0  0  0  0  0  0  0  0  0  0
    7.3923    0.5780   25.4055 H   0  0  0  0  0  0  0  0  0  0  0  0
    8.7661    0.0527   26.3863 H   0  0  0  0  0  0  0  0  0  0  0  0
    8.8830    1.9962   25.6697 N   0  0  0  0  0  0  0  0  0  0  0  0
    9.6418    2.1995   26.2933 H   0  0  0  0  0  0  0  0  0  0  0  0
    8.5855    2.9682   24.7549 C   0  0  0  0  0  0  0  0  0  0  0  0
    7.9280    2.7476   23.7487 O   0  0  0  0  0  0  0  0  0  0  0  0
    9.1431    4.3280   25.0978 C   0  0  0  0  0  0  0  0  0  0  0  0
    9.2383    4.7720   26.4290 C   0  0  0  0  0  0  0  0  0  0  0  0
    8.7704    4.1787   27.2146 H   0  0  0  0  0  0  0  0  0  0  0  0
    9.9074    5.9621   26.7206 C   0  0  0  0  0  0  0  0  0  0  0  0
   10.0457    6.2465   27.7588 H   0  0  0  0  0  0  0  0  0  0  0  0
   10.4196    6.7539   25.6827 C   0  0  0  0  0  0  0  0  0  0  0  0
   10.9636    7.6665   25.9130 H   0  0  0  0  0  0  0  0  0  0  0  0
   10.2302    6.3688   24.3496 C   0  0  0  0  0  0  0  0  0  0  0  0
   10.5764    6.9983   23.5335 H   0  0  0  0  0  0  0  0  0  0  0  0
    9.5972    5.1587   24.0622 C   0  0  0  0  0  0  0  0  0  0  0  0
    9.4481    4.8426   23.0328 H   0  0  0  0  0  0  0  0  0  0  0  0
    8.4334   -0.3295   23.0544 C   0  0  0  0  0  0  0  0  0  0  0  0
    7.1105   -0.2120   22.3852 C   0  0  0  0  0  0  0  0  0  0  0  0
    6.3284   -0.7823   22.9014 H   0  0  0  0  0  0  0  0  0  0  0  0
    6.7816    0.8377   22.3714 H   0  0  0  0  0  0  0  0  0  0  0  0
    5.4185    0.5948   20.0426 C   0  0  0  0  0  0  0  0  0  0  0  0
    4.9384    0.5605   21.0224 H   0  0  0  0  0  0  0  0  0  0  0  0
    4.8101    1.2942   19.0004 C   0  0  0  0  0  0  0  0  0  0  0  0
    3.8839    1.8417   19.1538 H   0  0  0  0  0  0  0  0  0  0  0  0
  1  2  1  0
  2  3  2  0
  3  4  1  0
  4  5  1  0
  4  6  2  0
  6  7  1  0
  7  8  1  1
  7  9  1  0
  9 10  1  0
  9 11  1  0
  9 12  1  0
 12 13  2  0
 13 14  1  0
 14 15  1  0
 14 16  1  0
 16 17  1  0
 17 18  1  0
 17 19  1  0
 17 20  1  0
 20 21  1  0
 20 22  1  0
 22 23  2  0
 22 24  1  0
 24 25  2  0
 25 26  1  0
 25 27  1  0
 27 28  1  0
 27 29  2  0
 29 30  1  0
 29 31  1  0
 31 32  1  0
 31 33  2  0
 33 34  1  0
 16 35  2  0
 35 36  1  0
 36 37  1  0
 36 38  1  0
  6 39  1  0
 39 40  1  0
 39 41  2  0
 41 42  1  0
 41  2  1  0
 36  7  1  0
 35 12  1  0
 33 24  1  0
M  END
>  <cnnaffinity>  (1) 
-5.43032

>  <filename>  (1) 
O=C(NCc1[nH]nc2c1C[C@@H](c1cccnc1)C2)c1ccccc1

$$$$
