
     RDKit          3D

 35 36  0  0  0  0  0  0  0  0999 V2000
    9.6812    3.5677   21.1714 H   0  0  0  0  0  0  0  0  0  0  0  0
    9.4415    2.6338   20.9836 O   0  0  0  0  0  0  0  0  0  0  0  0
    8.3990    2.2772   21.8682 N   0  0  0  0  0  0  0  0  0  0  0  0
    7.5449    2.1897   21.3332 H   0  0  0  0  0  0  0  0  0  0  0  0
    8.6187    1.1064   22.6167 C   0  0  0  0  0  0  0  0  0  0  0  0
    9.6439    0.8819   23.2179 O   0  0  0  0  0  0  0  0  0  0  0  0
    7.4637    0.1123   22.5982 C   0  0  0  0  0  0  0  0  0  0  0  0
    7.6753   -0.5525   23.4368 H   0  0  0  0  0  0  0  0  0  0  0  0
    6.5185    0.6162   22.8192 H   0  0  0  0  0  0  0  0  0  0  0  0
    7.3980   -0.7228   21.2702 C   0  0  0  0  0  0  0  0  0  0  0  0
    6.7748    0.1210   20.1365 C   0  0  0  0  0  0  0  0  0  0  0  0
    7.3390    0.2118   18.8486 C   0  0  0  0  0  0  0  0  0  0  0  0
    8.3298   -0.1936   18.6522 H   0  0  0  0  0  0  0  0  0  0  0  0
    6.7434    0.7601   17.7786 N   0  0  0  0  0  0  0  0  0  0  0  0
    5.5355    1.3047   17.9570 C   0  0  0  0  0  0  0  0  0  0  0  0
    5.0650    1.7380   17.0760 H   0  0  0  0  0  0  0  0  0  0  0  0
    4.8860    1.3290   19.1963 C   0  0  0  0  0  0  0  0  0  0  0  0
    3.9188    1.8113   19.2839 H   0  0  0  0  0  0  0  0  0  0  0  0
    5.5110    0.7285   20.2932 C   0  0  0  0  0  0  0  0  0  0  0  0
    5.0024    0.7176   21.2619 H   0  0  0  0  0  0  0  0  0  0  0  0
    8.8224   -1.2432   20.9148 C   0  0  0  0  0  0  0  0  0  0  0  0
    8.7448   -1.7565   19.9495 H   0  0  0  0  0  0  0  0  0  0  0  0
    9.5147   -0.3997   20.7626 H   0  0  0  0  0  0  0  0  0  0  0  0
    9.4036   -2.2272   21.9428 C   0  0  0  0  0  0  0  0  0  0  0  0
   10.3434   -2.6138   21.5342 H   0  0  0  0  0  0  0  0  0  0  0  0
    9.6762   -1.6868   22.8613 H   0  0  0  0  0  0  0  0  0  0  0  0
    8.4568   -3.4107   22.2295 C   0  0  0  0  0  0  0  0  0  0  0  0
    8.8519   -4.0010   23.0681 H   0  0  0  0  0  0  0  0  0  0  0  0
    8.4412   -4.0741   21.3491 H   0  0  0  0  0  0  0  0  0  0  0  0
    7.0104   -2.9724   22.5162 C   0  0  0  0  0  0  0  0  0  0  0  0
    6.3540   -3.8530   22.5477 H   0  0  0  0  0  0  0  0  0  0  0  0
    6.9449   -2.5200   23.5167 H   0  0  0  0  0  0  0  0  0  0  0  0
    6.5065   -1.9919   21.4449 C   0  0  0  0  0  0  0  0  0  0  0  0
    6.5113   -2.5120   20.4732 H   0  0  0  0  0  0  0  0  0  0  0  0
    5.4658   -1.6979   21.6247 H   0  0  0  0  0  0  0  0  0  0  0  0
  1  2  1  0
  2  3  1  0
  3  4  1  0
  3  5  1  0
  5  6  2  0
  5  7  1  0
  7  8  1  0
  7  9  1  0
  7 10  1  0
 10 11  1  0
 11 12  2  0
 12 13  1  0
 12 14  1  0
 14 15  2  0
 15 16  1  0
 15 17  1  0
 17 18  1  0
 17 19  2  0
 19 20  1  0
 10 21  1  0
 21 22  1  0
 21 23  1  0
 21 24  1  0
 24 25  1  0
 24 26  1  0
 24 27  1  0
 27 28  1  0
 27 29  1  0
 27 30  1  0
 30 31  1  0
 30 32  1  0
 30 33  1  0
 33 34  1  0
 33 35  1  0
 33 10  1  0
 19 11  1  0
M  END
>  <cnnaffinity>  (1) 
-4.53215

>  <filename>  (1) 
O=C(CC1(c2cccnc2)CCCCC1)NO

$$$$
