
     RDKit          3D

 37 38  0  0  0  0  0  0  0  0999 V2000
    9.4086   -3.6825   24.4272 O   0  0  0  0  0  0  0  0  0  0  0  0
    8.2514   -3.6792   24.0465 C   0  0  0  0  0  0  0  0  0  0  0  0
    7.1122   -4.2489   24.8906 C   0  0  0  0  0  0  0  0  0  0  0  0
    6.3282   -3.1850   25.6503 C   0  0  0  0  0  0  0  0  0  0  0  0
    5.1713   -2.6018   25.1135 C   0  0  0  0  0  0  0  0  0  0  0  0
    4.5244   -1.5722   25.7972 C   0  0  0  0  0  0  0  0  0  0  0  0
    5.0526   -1.1447   27.0256 C   0  0  0  0  0  0  0  0  0  0  0  0
    4.3373    0.0052   27.7680 C   0  0  0  0  0  0  0  0  0  0  0  0
    3.0439   -0.3153   28.0006 F   0  0  0  0  0  0  0  0  0  0  0  0
    4.3088    1.1230   27.0069 F   0  0  0  0  0  0  0  0  0  0  0  0
    4.8905    0.3298   28.9379 F   0  0  0  0  0  0  0  0  0  0  0  0
    6.1543   -1.7037   27.5594 N   0  0  0  0  0  0  0  0  0  0  0  0
    6.7648   -2.6841   26.8932 C   0  0  0  0  0  0  0  0  0  0  0  0
    7.6581   -3.1028   27.3561 H   0  0  0  0  0  0  0  0  0  0  0  0
    3.6391   -1.0956   25.3874 H   0  0  0  0  0  0  0  0  0  0  0  0
    4.7629   -2.9526   24.1660 H   0  0  0  0  0  0  0  0  0  0  0  0
    7.5939   -4.9687   25.5608 H   0  0  0  0  0  0  0  0  0  0  0  0
    6.4531   -4.8183   24.2270 H   0  0  0  0  0  0  0  0  0  0  0  0
    7.8920   -3.1555   22.8419 N   0  0  0  0  0  0  0  0  0  0  0  0
    8.8571   -2.3649   22.0842 C   0  0  0  0  0  0  0  0  0  0  0  0
    8.2322   -1.5799   20.9622 C   0  0  0  0  0  0  0  0  0  0  0  0
    7.2968   -0.6331   21.0760 C   0  0  0  0  0  0  0  0  0  0  0  0
    6.6297    0.0382   19.9363 C   0  0  0  0  0  0  0  0  0  0  0  0
    5.4099    0.7053   20.1490 C   0  0  0  0  0  0  0  0  0  0  0  0
    4.7807    1.3375   19.0771 C   0  0  0  0  0  0  0  0  0  0  0  0
    5.4006    1.2963   17.8234 C   0  0  0  0  0  0  0  0  0  0  0  0
    6.5587    0.6600   17.5878 N   0  0  0  0  0  0  0  0  0  0  0  0
    7.1482    0.0512   18.6232 C   0  0  0  0  0  0  0  0  0  0  0  0
    8.0997   -0.4316   18.3942 H   0  0  0  0  0  0  0  0  0  0  0  0
    4.9521    1.7968   16.9698 H   0  0  0  0  0  0  0  0  0  0  0  0
    3.8430    1.8725   19.1960 H   0  0  0  0  0  0  0  0  0  0  0  0
    4.9694    0.7227   21.1484 H   0  0  0  0  0  0  0  0  0  0  0  0
    6.9338   -0.3158   22.0597 H   0  0  0  0  0  0  0  0  0  0  0  0
    8.5911   -1.8139   19.9622 H   0  0  0  0  0  0  0  0  0  0  0  0
    9.6139   -3.0412   21.6751 H   0  0  0  0  0  0  0  0  0  0  0  0
    9.3962   -1.7054   22.7827 H   0  0  0  0  0  0  0  0  0  0  0  0
    6.9113   -3.0695   22.6382 H   0  0  0  0  0  0  0  0  0  0  0  0
  1  2  2  0
  2  3  1  0
  3  4  1  0
  4  5  2  0
  5  6  1  0
  6  7  2  0
  7  8  1  0
  8  9  1  0
  8 10  1  0
  8 11  1  0
  7 12  1  0
 12 13  2  0
 13 14  1  0
  6 15  1  0
  5 16  1  0
  3 17  1  0
  3 18  1  0
  2 19  1  0
 19 20  1  0
 20 21  1  0
 21 22  2  3
 22 23  1  0
 23 24  2  0
 24 25  1  0
 25 26  2  0
 26 27  1  0
 27 28  2  0
 28 29  1  0
 26 30  1  0
 25 31  1  0
 24 32  1  0
 22 33  1  0
 21 34  1  0
 20 35  1  0
 20 36  1  0
 19 37  1  0
 13  4  1  0
 28 23  1  0
M  END
>  <cnnaffinity>  (1) 
-5.04579

>  <filename>  (1) 
O=C(Cc1ccc(C(F)(F)F)nc1)NCC=Cc1cccnc1

$$$$
