
     RDKit          3D

 32 33  0  0  0  0  0  0  0  0999 V2000
    9.4787    0.4503   21.3538 O   0  0  0  0  0  0  0  0  0  0  0  0
    8.3116    0.3540   21.7175 C   0  0  0  0  0  0  0  0  0  0  0  0
    7.4139   -0.6630   21.0033 C   0  0  0  0  0  0  0  0  0  0  0  0
    6.6528    0.0076   19.8805 C   0  0  0  0  0  0  0  0  0  0  0  0
    5.4429    0.6445   20.1557 C   0  0  0  0  0  0  0  0  0  0  0  0
    4.8167    1.3036   19.0988 C   0  0  0  0  0  0  0  0  0  0  0  0
    5.3980    1.2963   17.8212 C   0  0  0  0  0  0  0  0  0  0  0  0
    6.5601    0.6758   17.5521 N   0  0  0  0  0  0  0  0  0  0  0  0
    7.1727    0.0506   18.5704 C   0  0  0  0  0  0  0  0  0  0  0  0
    8.1271   -0.4336   18.3919 H   0  0  0  0  0  0  0  0  0  0  0  0
    4.8835    1.8027   17.0108 H   0  0  0  0  0  0  0  0  0  0  0  0
    3.8837    1.8320   19.2579 H   0  0  0  0  0  0  0  0  0  0  0  0
    5.0169    0.6376   21.1629 H   0  0  0  0  0  0  0  0  0  0  0  0
    6.7136   -1.0889   21.7297 H   0  0  0  0  0  0  0  0  0  0  0  0
    8.0175   -1.4879   20.6119 H   0  0  0  0  0  0  0  0  0  0  0  0
    7.7235    1.0932   22.6984 O   0  0  0  0  0  0  0  0  0  0  0  0
    8.4909    2.1631   23.2829 C   0  0  0  0  0  0  0  0  0  0  0  0
    8.5753    3.3812   22.3617 C   0  0  0  0  0  0  0  0  0  0  0  0
    9.3217    4.5174   23.0417 C   0  0  0  0  0  0  0  0  0  0  0  0
   10.7096    4.6021   22.9285 C   0  0  0  0  0  0  0  0  0  0  0  0
   11.3665    5.6457   23.5720 C   0  0  0  0  0  0  0  0  0  0  0  0
   13.2678    5.7925   23.4469 Br  0  0  0  0  0  0  0  0  0  0  0  0
   10.6170    6.5698   24.3120 C   0  0  0  0  0  0  0  0  0  0  0  0
    9.2791    6.5100   24.4289 N   0  0  0  0  0  0  0  0  0  0  0  0
    8.6505    5.4993   23.7981 C   0  0  0  0  0  0  0  0  0  0  0  0
    7.5748    5.4288   23.8883 H   0  0  0  0  0  0  0  0  0  0  0  0
   11.1437    7.3674   24.8190 H   0  0  0  0  0  0  0  0  0  0  0  0
   11.2684    3.8720   22.3463 H   0  0  0  0  0  0  0  0  0  0  0  0
    7.5645    3.7026   22.0927 H   0  0  0  0  0  0  0  0  0  0  0  0
    9.0821    3.0960   21.4349 H   0  0  0  0  0  0  0  0  0  0  0  0
    9.4976    1.8320   23.5583 H   0  0  0  0  0  0  0  0  0  0  0  0
    7.9930    2.4665   24.2071 H   0  0  0  0  0  0  0  0  0  0  0  0
  1  2  2  0
  2  3  1  0
  3  4  1  0
  4  5  2  0
  5  6  1  0
  6  7  2  0
  7  8  1  0
  8  9  2  0
  9 10  1  0
  7 11  1  0
  6 12  1  0
  5 13  1  0
  3 14  1  0
  3 15  1  0
  2 16  1  0
 16 17  1  0
 17 18  1  0
 18 19  1  0
 19 20  2  0
 20 21  1  0
 21 22  1  0
 21 23  2  0
 23 24  1  0
 24 25  2  0
 25 26  1  0
 23 27  1  0
 20 28  1  0
 18 29  1  0
 18 30  1  0
 17 31  1  0
 17 32  1  0
  9  4  1  0
 25 19  1  0
M  END
>  <cnnaffinity>  (1) 
-4.3913

>  <filename>  (1) 
O=C(Cc1cccnc1)OCCc1cncc(Br)c1

$$$$
