
     RDKit          3D

 39 42  0  0  0  0  0  0  0  0999 V2000
    9.4114   -0.2850   25.3773 O   0  0  0  0  0  0  0  0  0  0  0  0
    8.2983   -0.5272   24.9759 C   0  0  0  0  0  0  0  0  0  0  0  0
    7.9500   -1.8091   24.2677 C   0  0  0  0  0  0  0  0  0  0  0  0
    7.9837   -1.4637   22.8364 C   0  0  0  0  0  0  0  0  0  0  0  0
    8.9017   -1.8356   21.9994 N   0  0  0  0  0  0  0  0  0  0  0  0
    8.4830   -1.2544   20.7992 O   0  0  0  0  0  0  0  0  0  0  0  0
    7.3479   -0.5991   21.0554 C   0  0  0  0  0  0  0  0  0  0  0  0
    6.6306    0.0597   19.9695 C   0  0  0  0  0  0  0  0  0  0  0  0
    5.4011    0.7020   20.1710 C   0  0  0  0  0  0  0  0  0  0  0  0
    4.8041    1.3304   19.0811 C   0  0  0  0  0  0  0  0  0  0  0  0
    5.4456    1.2864   17.8379 C   0  0  0  0  0  0  0  0  0  0  0  0
    6.6038    0.6433   17.6316 N   0  0  0  0  0  0  0  0  0  0  0  0
    7.1756    0.0452   18.6796 C   0  0  0  0  0  0  0  0  0  0  0  0
    8.1097   -0.4770   18.4793 H   0  0  0  0  0  0  0  0  0  0  0  0
    5.0085    1.7823   16.9710 H   0  0  0  0  0  0  0  0  0  0  0  0
    3.8649    1.8591   19.1808 H   0  0  0  0  0  0  0  0  0  0  0  0
    4.9251    0.7016   21.1553 H   0  0  0  0  0  0  0  0  0  0  0  0
    7.0090   -0.6578   22.3116 N   0  0  0  0  0  0  0  0  0  0  0  0
    8.6736   -2.5807   24.5051 H   0  0  0  0  0  0  0  0  0  0  0  0
    6.9436   -2.1112   24.5551 H   0  0  0  0  0  0  0  0  0  0  0  0
    7.2196    0.3131   25.0719 N   0  0  0  0  0  0  0  0  0  0  0  0
    7.2587    1.5936   25.6549 C   0  0  0  0  0  0  0  0  0  0  0  0
    7.6795    1.7067   26.9604 C   0  0  0  0  0  0  0  0  0  0  0  0
    7.6905    2.9729   27.6035 C   0  0  0  0  0  0  0  0  0  0  0  0
    7.3684    4.1098   26.9021 C   0  0  0  0  0  0  0  0  0  0  0  0
    6.9329    4.0303   25.5403 C   0  0  0  0  0  0  0  0  0  0  0  0
    6.5673    5.2039   24.8121 C   0  0  0  0  0  0  0  0  0  0  0  0
    6.0112    5.1087   23.5580 C   0  0  0  0  0  0  0  0  0  0  0  0
    5.8413    3.8348   22.9485 C   0  0  0  0  0  0  0  0  0  0  0  0
    6.2576    2.6845   23.5831 C   0  0  0  0  0  0  0  0  0  0  0  0
    6.8172    2.7456   24.9060 C   0  0  0  0  0  0  0  0  0  0  0  0
    6.1901    1.7277   23.0623 H   0  0  0  0  0  0  0  0  0  0  0  0
    5.3798    3.7800   21.9650 H   0  0  0  0  0  0  0  0  0  0  0  0
    5.6877    6.0072   23.0363 H   0  0  0  0  0  0  0  0  0  0  0  0
    6.7382    6.1678   25.2884 H   0  0  0  0  0  0  0  0  0  0  0  0
    7.4249    5.0891   27.3735 H   0  0  0  0  0  0  0  0  0  0  0  0
    7.9405    3.0186   28.6608 H   0  0  0  0  0  0  0  0  0  0  0  0
    8.0029    0.8149   27.4925 H   0  0  0  0  0  0  0  0  0  0  0  0
    6.5345    0.1542   24.3508 H   0  0  0  0  0  0  0  0  0  0  0  0
  1  2  2  0
  2  3  1  0
  3  4  1  0
  4  5  2  0
  5  6  1  0
  6  7  1  0
  7  8  1  0
  8  9  2  0
  9 10  1  0
 10 11  2  0
 11 12  1  0
 12 13  2  0
 13 14  1  0
 11 15  1  0
 10 16  1  0
  9 17  1  0
  7 18  2  0
  3 19  1  0
  3 20  1  0
  2 21  1  0
 21 22  1  0
 22 23  2  0
 23 24  1  0
 24 25  2  0
 25 26  1  0
 26 27  2  0
 27 28  1  0
 28 29  2  0
 29 30  1  0
 30 31  2  0
 30 32  1  0
 29 33  1  0
 28 34  1  0
 27 35  1  0
 25 36  1  0
 24 37  1  0
 23 38  1  0
 21 39  1  0
 18  4  1  0
 31 22  1  0
 13  8  1  0
 31 26  1  0
M  END
>  <cnnaffinity>  (1) 
-5.54013

>  <filename>  (1) 
O=C(Cc1noc(-c2cccnc2)n1)Nc1cccc2ccccc12

$$$$
