
     RDKit          3D

 30 32  0  0  0  0  0  0  0  0999 V2000
    5.0876    1.8071   17.0265 H   0  0  0  0  0  0  0  0  0  0  0  0
    5.5834    1.2779   17.8389 C   0  0  0  0  0  0  0  0  0  0  0  0
    6.7532    0.6846   17.5424 N   0  0  0  0  0  0  0  0  0  0  0  0
    7.3917    0.0307   18.5212 C   0  0  0  0  0  0  0  0  0  0  0  0
    8.3323   -0.4459   18.2483 H   0  0  0  0  0  0  0  0  0  0  0  0
    6.8816   -0.0837   19.8316 C   0  0  0  0  0  0  0  0  0  0  0  0
    7.5222   -0.8318   20.8548 N   0  0  0  0  0  0  0  0  0  0  0  0
    6.9058   -1.7566   21.7417 C   0  0  0  0  0  0  0  0  0  0  0  0
    5.8014   -2.2556   21.5997 O   0  0  0  0  0  0  0  0  0  0  0  0
    7.9219   -1.9640   22.7572 C   0  0  0  0  0  0  0  0  0  0  0  0
    7.7832   -2.6530   23.5714 H   0  0  0  0  0  0  0  0  0  0  0  0
    9.0264   -1.2254   22.4603 C   0  0  0  0  0  0  0  0  0  0  0  0
   10.3131   -1.1306   23.2591 C   0  0  0  0  0  0  0  0  0  0  0  0
   10.2981   -1.1536   24.4735 O   0  0  0  0  0  0  0  0  0  0  0  0
   11.6292   -1.0645   22.4921 C   0  0  0  0  0  0  0  0  0  0  0  0
   11.8164   -1.7532   21.2873 C   0  0  0  0  0  0  0  0  0  0  0  0
   10.9702   -2.2170   20.7920 H   0  0  0  0  0  0  0  0  0  0  0  0
   13.1106   -1.8655   20.7626 C   0  0  0  0  0  0  0  0  0  0  0  0
   13.2754   -2.4832   19.8880 H   0  0  0  0  0  0  0  0  0  0  0  0
   14.1929   -1.2980   21.3078 N   0  0  0  0  0  0  0  0  0  0  0  0
   13.9937   -0.5610   22.4106 C   0  0  0  0  0  0  0  0  0  0  0  0
   14.8702   -0.0822   22.8330 H   0  0  0  0  0  0  0  0  0  0  0  0
   12.7518   -0.4234   23.0418 C   0  0  0  0  0  0  0  0  0  0  0  0
   12.6755    0.0921   23.9937 H   0  0  0  0  0  0  0  0  0  0  0  0
    8.8306   -0.6107   21.2403 N   0  0  0  0  0  0  0  0  0  0  0  0
    9.3421    0.1641   20.8279 H   0  0  0  0  0  0  0  0  0  0  0  0
    5.6532    0.5201   20.1220 C   0  0  0  0  0  0  0  0  0  0  0  0
    5.2348    0.4217   21.1230 H   0  0  0  0  0  0  0  0  0  0  0  0
    5.0005    1.2246   19.1092 C   0  0  0  0  0  0  0  0  0  0  0  0
    4.0561    1.7238   19.2958 H   0  0  0  0  0  0  0  0  0  0  0  0
  1  2  1  0
  2  3  2  0
  3  4  1  0
  4  5  1  0
  4  6  2  0
  6  7  1  0
  7  8  1  0
  8  9  2  0
  8 10  1  0
 10 11  1  0
 10 12  2  0
 12 13  1  0
 13 14  2  0
 13 15  1  0
 15 16  2  0
 16 17  1  0
 16 18  1  0
 18 19  1  0
 18 20  2  0
 20 21  1  0
 21 22  1  0
 21 23  2  0
 23 24  1  0
 12 25  1  0
 25 26  1  0
  6 27  1  0
 27 28  1  0
 27 29  2  0
 29 30  1  0
 29  2  1  0
 25  7  1  0
 23 15  1  0
M  END
>  <cnnaffinity>  (1) 
-5.71133

>  <filename>  (1) 
O=C(c1ccncc1)c1cc(=O)n(-c2cccnc2)[nH]1

$$$$
