
     RDKit          3D

 23 24  0  0  0  0  0  0  0  0999 V2000
    5.0378    1.7900   16.9660 H   0  0  0  0  0  0  0  0  0  0  0  0
    5.4919    1.2921   17.8244 C   0  0  0  0  0  0  0  0  0  0  0  0
    6.6588    0.6662   17.6177 N   0  0  0  0  0  0  0  0  0  0  0  0
    7.2193    0.0392   18.6616 C   0  0  0  0  0  0  0  0  0  0  0  0
    8.1446   -0.4929   18.4549 H   0  0  0  0  0  0  0  0  0  0  0  0
    6.6590    0.0068   19.9428 C   0  0  0  0  0  0  0  0  0  0  0  0
    7.2635   -0.8119   21.0374 C   0  0  0  0  0  0  0  0  0  0  0  0
    6.5284   -1.4699   21.7515 O   0  0  0  0  0  0  0  0  0  0  0  0
    8.7622   -0.8484   21.2434 C   0  0  0  0  0  0  0  0  0  0  0  0
    9.4046   -2.0508   21.6120 C   0  0  0  0  0  0  0  0  0  0  0  0
    8.8175   -2.9560   21.7608 H   0  0  0  0  0  0  0  0  0  0  0  0
   10.7831   -2.0935   21.8361 C   0  0  0  0  0  0  0  0  0  0  0  0
   11.2392   -3.0258   22.1491 H   0  0  0  0  0  0  0  0  0  0  0  0
   11.5677   -0.9446   21.6893 C   0  0  0  0  0  0  0  0  0  0  0  0
   12.6504   -0.9833   21.8467 H   0  0  0  0  0  0  0  0  0  0  0  0
   10.9490    0.2638   21.3699 C   0  0  0  0  0  0  0  0  0  0  0  0
   11.5167    1.1830   21.2803 H   0  0  0  0  0  0  0  0  0  0  0  0
    9.5638    0.3015   21.1705 C   0  0  0  0  0  0  0  0  0  0  0  0
    8.9936    1.4908   20.9178 F   0  0  0  0  0  0  0  0  0  0  0  0
    5.4292    0.6602   20.1415 C   0  0  0  0  0  0  0  0  0  0  0  0
    4.9400    0.6471   21.1182 H   0  0  0  0  0  0  0  0  0  0  0  0
    4.8441    1.3206   19.0668 C   0  0  0  0  0  0  0  0  0  0  0  0
    3.9084    1.8592   19.1760 H   0  0  0  0  0  0  0  0  0  0  0  0
  1  2  1  0
  2  3  2  0
  3  4  1  0
  4  5  1  0
  4  6  2  0
  6  7  1  0
  7  8  2  0
  7  9  1  0
  9 10  2  0
 10 11  1  0
 10 12  1  0
 12 13  1  0
 12 14  2  0
 14 15  1  0
 14 16  1  0
 16 17  1  0
 16 18  2  0
 18 19  1  0
  6 20  1  0
 20 21  1  0
 20 22  2  0
 22 23  1  0
 22  2  1  0
 18  9  1  0
M  END
>  <cnnaffinity>  (1) 
-4.29445

>  <filename>  (1) 
O=C(c1cccnc1)c1ccccc1F

$$$$
