
     RDKit          3D

 30 32  0  0  0  0  0  0  0  0999 V2000
    4.9398    1.7908   17.0191 H   0  0  0  0  0  0  0  0  0  0  0  0
    5.4066    1.2777   17.8555 C   0  0  0  0  0  0  0  0  0  0  0  0
    6.5603    0.6496   17.5817 N   0  0  0  0  0  0  0  0  0  0  0  0
    7.1839    0.0347   18.5905 C   0  0  0  0  0  0  0  0  0  0  0  0
    8.1404   -0.4319   18.3710 H   0  0  0  0  0  0  0  0  0  0  0  0
    6.6756   -0.0136   19.9050 C   0  0  0  0  0  0  0  0  0  0  0  0
    7.3733   -0.6882   20.9468 N   0  0  0  0  0  0  0  0  0  0  0  0
    6.6711   -1.2440   21.9876 N   0  0  0  0  0  0  0  0  0  0  0  0
    7.5390   -1.7396   22.8263 C   0  0  0  0  0  0  0  0  0  0  0  0
    7.2155   -2.3814   24.1510 C   0  0  0  0  0  0  0  0  0  0  0  0
    8.1191   -2.5845   24.9474 O   0  0  0  0  0  0  0  0  0  0  0  0
    5.7847   -2.7729   24.4973 C   0  0  0  0  0  0  0  0  0  0  0  0
    5.3146   -2.6282   25.8176 C   0  0  0  0  0  0  0  0  0  0  0  0
    5.9767   -2.2944   26.6105 H   0  0  0  0  0  0  0  0  0  0  0  0
    3.9961   -2.9962   26.1169 C   0  0  0  0  0  0  0  0  0  0  0  0
    3.5944   -2.8378   27.1157 H   0  0  0  0  0  0  0  0  0  0  0  0
    3.1674   -3.5674   25.2294 N   0  0  0  0  0  0  0  0  0  0  0  0
    3.6252   -3.7357   23.9839 C   0  0  0  0  0  0  0  0  0  0  0  0
    2.9415   -4.2273   23.2909 H   0  0  0  0  0  0  0  0  0  0  0  0
    4.8943   -3.3208   23.5568 C   0  0  0  0  0  0  0  0  0  0  0  0
    5.1251   -3.3276   22.4962 H   0  0  0  0  0  0  0  0  0  0  0  0
    8.9592   -1.5691   22.3621 C   0  0  0  0  0  0  0  0  0  0  0  0
    9.4675   -2.5207   22.1548 H   0  0  0  0  0  0  0  0  0  0  0  0
    9.6024   -1.0193   23.0623 H   0  0  0  0  0  0  0  0  0  0  0  0
    8.7611   -0.8057   21.0757 C   0  0  0  0  0  0  0  0  0  0  0  0
    9.5997   -0.3926   20.3104 O   0  0  0  0  0  0  0  0  0  0  0  0
    5.4604    0.6266   20.1777 C   0  0  0  0  0  0  0  0  0  0  0  0
    5.0609    0.5747   21.1914 H   0  0  0  0  0  0  0  0  0  0  0  0
    4.8201    1.2947   19.1286 C   0  0  0  0  0  0  0  0  0  0  0  0
    3.8872    1.8292   19.2797 H   0  0  0  0  0  0  0  0  0  0  0  0
  1  2  1  0
  2  3  2  0
  3  4  1  0
  4  5  1  0
  4  6  2  0
  6  7  1  0
  7  8  1  0
  8  9  2  0
  9 10  1  0
 10 11  2  0
 10 12  1  0
 12 13  2  0
 13 14  1  0
 13 15  1  0
 15 16  1  0
 15 17  2  0
 17 18  1  0
 18 19  1  0
 18 20  2  0
 20 21  1  0
  9 22  1  0
 22 23  1  0
 22 24  1  0
 22 25  1  0
 25 26  2  0
  6 27  1  0
 27 28  1  0
 27 29  2  0
 29 30  1  0
 29  2  1  0
 25  7  1  0
 20 12  1  0
M  END
>  <cnnaffinity>  (1) 
-4.4832

>  <filename>  (1) 
O=C(C1=NN(c2cccnc2)C(=O)C1)c1ccncc1

$$$$
