
     RDKit          3D

 33 34  0  0  0  0  0  0  0  0999 V2000
    9.6130    0.2978   21.3049 O   0  0  0  0  0  0  0  0  0  0  0  0
    8.4422    0.3030   21.6466 C   0  0  0  0  0  0  0  0  0  0  0  0
    7.4091   -0.6546   21.0383 C   0  0  0  0  0  0  0  0  0  0  0  0
    6.6339   -0.0090   19.8952 C   0  0  0  0  0  0  0  0  0  0  0  0
    5.4271    0.6535   20.1374 C   0  0  0  0  0  0  0  0  0  0  0  0
    4.7910    1.3209   19.0856 C   0  0  0  0  0  0  0  0  0  0  0  0
    5.3843    1.3021   17.8209 C   0  0  0  0  0  0  0  0  0  0  0  0
    6.5400    0.6733   17.5630 N   0  0  0  0  0  0  0  0  0  0  0  0
    7.1424    0.0480   18.5819 C   0  0  0  0  0  0  0  0  0  0  0  0
    8.1015   -0.4163   18.3530 H   0  0  0  0  0  0  0  0  0  0  0  0
    4.9174    1.8081   16.9755 H   0  0  0  0  0  0  0  0  0  0  0  0
    3.8641    1.8574   19.2344 H   0  0  0  0  0  0  0  0  0  0  0  0
    5.0066    0.6494   21.1454 H   0  0  0  0  0  0  0  0  0  0  0  0
    6.7162   -1.0329   21.8041 H   0  0  0  0  0  0  0  0  0  0  0  0
    7.9914   -1.5122   20.6906 H   0  0  0  0  0  0  0  0  0  0  0  0
    7.9618    1.1806   22.5658 N   0  0  0  0  0  0  0  0  0  0  0  0
    8.8404    2.1946   23.1384 C   0  0  0  0  0  0  0  0  0  0  0  0
    8.0829    3.0851   24.0974 C   0  0  0  0  0  0  0  0  0  0  0  0
    8.0853    2.8484   25.4830 C   0  0  0  0  0  0  0  0  0  0  0  0
    7.3702    3.6948   26.3461 C   0  0  0  0  0  0  0  0  0  0  0  0
    7.3477    3.3844   27.8584 C   0  0  0  0  0  0  0  0  0  0  0  0
    6.7485    4.1715   28.6406 O   0  0  0  0  0  0  0  0  0  0  0  0
    7.9235    2.3483   28.2658 O   0  0  0  0  0  1  0  0  0  0  0  0
    6.6494    4.7935   25.8551 C   0  0  0  0  0  0  0  0  0  0  0  0
    6.6450    5.0445   24.4786 C   0  0  0  0  0  0  0  0  0  0  0  0
    7.3521    4.1896   23.6343 C   0  0  0  0  0  0  0  0  0  0  0  0
    7.3421    4.4585   22.3167 F   0  0  0  0  0  0  0  0  0  0  0  0
    6.1100    5.8743   24.0271 H   0  0  0  0  0  0  0  0  0  0  0  0
    6.0865    5.4518   26.5193 H   0  0  0  0  0  0  0  0  0  0  0  0
    8.6647    1.9939   25.8470 H   0  0  0  0  0  0  0  0  0  0  0  0
    9.3009    2.7785   22.3285 H   0  0  0  0  0  0  0  0  0  0  0  0
    9.6655    1.6841   23.6524 H   0  0  0  0  0  0  0  0  0  0  0  0
    6.9849    1.1762   22.7999 H   0  0  0  0  0  0  0  0  0  0  0  0
  1  2  2  0
  2  3  1  0
  3  4  1  0
  4  5  2  0
  5  6  1  0
  6  7  2  0
  7  8  1  0
  8  9  2  0
  9 10  1  0
  7 11  1  0
  6 12  1  0
  5 13  1  0
  3 14  1  0
  3 15  1  0
  2 16  1  0
 16 17  1  0
 17 18  1  0
 18 19  2  0
 19 20  1  0
 20 21  1  0
 21 22  2  0
 21 23  1  0
 20 24  2  0
 24 25  1  0
 25 26  2  0
 26 27  1  0
 25 28  1  0
 24 29  1  0
 19 30  1  0
 17 31  1  0
 17 32  1  0
 16 33  1  0
  9  4  1  0
 26 18  1  0
M  CHG  1  23  -1
M  END
>  <cnnaffinity>  (1) 
-4.71046

>  <filename>  (1) 
O=C(Cc1cccnc1)NCc1cc(C(=O)[O-])ccc1F

$$$$
