
     RDKit          3D

 38 40  0  0  0  0  0  0  0  0999 V2000
    8.6476    0.4464   25.3939 O   0  0  0  0  0  0  0  0  0  0  0  0
    8.0357   -0.4549   24.8755 C   0  0  0  0  0  0  0  0  0  0  0  0
    8.2502   -0.8862   23.4169 C   0  0  0  0  0  0  0  0  0  0  0  0
    7.1481   -0.4261   22.4164 C   0  0  0  0  0  0  0  0  0  0  0  0
    7.4386   -0.7199   20.9344 C   0  0  0  0  0  0  0  0  0  0  0  0
    8.3037   -1.5097   20.6111 O   0  0  0  0  0  0  0  0  0  0  0  0
    6.6402   -0.0113   19.8893 C   0  0  0  0  0  0  0  0  0  0  0  0
    5.4331    0.6667   20.1200 C   0  0  0  0  0  0  0  0  0  0  0  0
    4.8299    1.3303   19.0506 C   0  0  0  0  0  0  0  0  0  0  0  0
    5.4517    1.2944   17.7993 C   0  0  0  0  0  0  0  0  0  0  0  0
    6.5873    0.6217   17.5591 N   0  0  0  0  0  0  0  0  0  0  0  0
    7.1527   -0.0212   18.5817 C   0  0  0  0  0  0  0  0  0  0  0  0
    8.0620   -0.5744   18.3554 H   0  0  0  0  0  0  0  0  0  0  0  0
    5.0237    1.8288   16.9524 H   0  0  0  0  0  0  0  0  0  0  0  0
    3.9040    1.8826   19.1736 H   0  0  0  0  0  0  0  0  0  0  0  0
    4.9640    0.6789   21.1083 H   0  0  0  0  0  0  0  0  0  0  0  0
    6.2012   -0.9284   22.6597 H   0  0  0  0  0  0  0  0  0  0  0  0
    6.9556    0.6489   22.5248 H   0  0  0  0  0  0  0  0  0  0  0  0
    8.3244   -1.9800   23.3696 H   0  0  0  0  0  0  0  0  0  0  0  0
    9.2349   -0.4930   23.1446 H   0  0  0  0  0  0  0  0  0  0  0  0
    7.0982   -1.2281   25.5327 N   0  0  0  0  0  0  0  0  0  0  0  0
    6.5424   -0.9266   26.7620 C   0  0  0  0  0  0  0  0  0  0  0  0
    6.4254    0.3448   27.0396 N   0  0  0  0  0  0  0  0  0  0  0  0
    5.8627    0.6893   28.2273 C   0  0  0  0  0  0  0  0  0  0  0  0
    5.3646   -0.2100   29.1311 C   0  0  0  0  0  0  0  0  0  0  0  0
    5.4615   -1.6039   28.8481 C   0  0  0  0  0  0  0  0  0  0  0  0
    4.9868   -2.5935   29.7578 C   0  0  0  0  0  0  0  0  0  0  0  0
    5.1867   -3.9323   29.5053 C   0  0  0  0  0  0  0  0  0  0  0  0
    5.8289   -4.3414   28.3060 C   0  0  0  0  0  0  0  0  0  0  0  0
    6.2369   -3.4051   27.3760 C   0  0  0  0  0  0  0  0  0  0  0  0
    6.0860   -2.0032   27.6240 C   0  0  0  0  0  0  0  0  0  0  0  0
    6.6939   -3.7515   26.4543 H   0  0  0  0  0  0  0  0  0  0  0  0
    5.9981   -5.4017   28.1268 H   0  0  0  0  0  0  0  0  0  0  0  0
    4.8610   -4.6741   30.2319 H   0  0  0  0  0  0  0  0  0  0  0  0
    4.4652   -2.2525   30.6490 H   0  0  0  0  0  0  0  0  0  0  0  0
    4.9107    0.1269   30.0590 H   0  0  0  0  0  0  0  0  0  0  0  0
    5.8451    1.7595   28.4327 H   0  0  0  0  0  0  0  0  0  0  0  0
    6.9039   -2.1388   25.1693 H   0  0  0  0  0  0  0  0  0  0  0  0
  1  2  2  0
  2  3  1  0
  3  4  1  0
  4  5  1  0
  5  6  2  0
  5  7  1  0
  7  8  2  0
  8  9  1  0
  9 10  2  0
 10 11  1  0
 11 12  2  0
 12 13  1  0
 10 14  1  0
  9 15  1  0
  8 16  1  0
  4 17  1  0
  4 18  1  0
  3 19  1  0
  3 20  1  0
  2 21  1  0
 21 22  1  0
 22 23  2  0
 23 24  1  0
 24 25  2  0
 25 26  1  0
 26 27  2  0
 27 28  1  0
 28 29  2  0
 29 30  1  0
 30 31  2  0
 30 32  1  0
 29 33  1  0
 28 34  1  0
 27 35  1  0
 25 36  1  0
 24 37  1  0
 21 38  1  0
 12  7  1  0
 31 22  1  0
 31 26  1  0
M  END
>  <cnnaffinity>  (1) 
-4.84694

>  <filename>  (1) 
O=C(CCC(=O)c1cccnc1)Nc1nccc2ccccc12

$$$$
