
     RDKit          3D

 33 35  0  0  0  0  0  0  0  0999 V2000
    3.9653   -7.3289   24.1536 H   0  0  0  0  0  0  0  0  0  0  0  0
    4.5179   -6.7315   24.8755 C   0  0  0  0  0  0  0  0  0  0  0  0
    5.0964   -5.6268   24.3840 N   0  0  0  0  0  0  0  0  0  0  0  0
    5.8127   -4.8480   25.2234 C   0  0  0  0  0  0  0  0  0  0  0  0
    6.5525   -3.5768   24.6645 C   0  0  0  0  0  0  0  0  0  0  0  0
    7.2799   -2.9208   25.3936 O   0  0  0  0  0  0  0  0  0  0  0  0
    6.3982   -3.2416   23.3349 N   0  0  0  0  0  0  0  0  0  0  0  0
    5.5975   -3.5657   22.8152 H   0  0  0  0  0  0  0  0  0  0  0  0
    7.1680   -2.2883   22.6599 C   0  0  0  0  0  0  0  0  0  0  0  0
    6.5714   -1.6663   21.6844 N   0  0  0  0  0  0  0  0  0  0  0  0
    7.3180   -0.7469   20.9594 N   0  0  0  0  0  0  0  0  0  0  0  0
    6.6203   -0.0573   19.9120 C   0  0  0  0  0  0  0  0  0  0  0  0
    7.1526    0.0156   18.6097 C   0  0  0  0  0  0  0  0  0  0  0  0
    8.1194   -0.4277   18.3876 H   0  0  0  0  0  0  0  0  0  0  0  0
    6.5550    0.6500   17.5958 N   0  0  0  0  0  0  0  0  0  0  0  0
    5.4032    1.2873   17.8529 C   0  0  0  0  0  0  0  0  0  0  0  0
    4.9445    1.7903   17.0032 H   0  0  0  0  0  0  0  0  0  0  0  0
    4.8088    1.3063   19.1199 C   0  0  0  0  0  0  0  0  0  0  0  0
    3.8823    1.8500   19.2588 H   0  0  0  0  0  0  0  0  0  0  0  0
    5.4205    0.6137   20.1734 C   0  0  0  0  0  0  0  0  0  0  0  0
    5.0127    0.5912   21.1832 H   0  0  0  0  0  0  0  0  0  0  0  0
    8.6948   -0.4192   21.2113 C   0  0  0  0  0  0  0  0  0  0  0  0
    9.2975    0.4290   20.5738 O   0  0  0  0  0  0  0  0  0  0  0  0
    9.2869   -1.2146   22.2830 C   0  0  0  0  0  0  0  0  0  0  0  0
   10.3359   -1.0030   22.4594 H   0  0  0  0  0  0  0  0  0  0  0  0
    8.5551   -2.1133   22.9880 C   0  0  0  0  0  0  0  0  0  0  0  0
    8.9558   -2.7269   23.7858 H   0  0  0  0  0  0  0  0  0  0  0  0
    5.9508   -5.1732   26.5906 C   0  0  0  0  0  0  0  0  0  0  0  0
    6.5472   -4.5221   27.2186 H   0  0  0  0  0  0  0  0  0  0  0  0
    5.3329   -6.3205   27.0963 C   0  0  0  0  0  0  0  0  0  0  0  0
    5.4231   -6.5856   28.1515 H   0  0  0  0  0  0  0  0  0  0  0  0
    4.5955   -7.1173   26.2174 C   0  0  0  0  0  0  0  0  0  0  0  0
    4.0816   -8.0111   26.5559 H   0  0  0  0  0  0  0  0  0  0  0  0
  1  2  1  0
  2  3  2  0
  3  4  1  0
  4  5  1  0
  5  6  2  0
  5  7  1  0
  7  8  1  0
  7  9  1  0
  9 10  2  0
 10 11  1  0
 11 12  1  0
 12 13  2  0
 13 14  1  0
 13 15  1  0
 15 16  2  0
 16 17  1  0
 16 18  1  0
 18 19  1  0
 18 20  2  0
 20 21  1  0
 11 22  1  0
 22 23  2  0
 22 24  1  0
 24 25  1  0
 24 26  2  0
 26 27  1  0
  4 28  2  0
 28 29  1  0
 28 30  1  0
 30 31  1  0
 30 32  2  0
 32 33  1  0
 32  2  1  0
 26  9  1  0
 20 12  1  0
M  END
>  <cnnaffinity>  (1) 
-5.21568

>  <filename>  (1) 
O=C(Nc1ccc(=O)n(-c2cccnc2)n1)c1ccccn1

$$$$
