
     RDKit          3D

 34 37  0  0  0  0  0  0  0  0999 V2000
    8.1012    2.2198   21.1951 O   0  0  0  0  0  0  0  0  0  0  0  0
    7.4106    2.2194   22.1996 C   0  0  0  0  0  0  0  0  0  0  0  0
    7.0838    1.0530   22.8624 N   0  0  0  0  0  0  0  0  0  0  0  0
    7.4631   -0.1738   22.3653 C   0  0  0  0  0  0  0  0  0  0  0  0
    8.0391   -1.0806   23.0895 N   0  0  0  0  0  0  0  0  0  0  0  0
    8.2515   -2.1787   22.2814 N   0  0  0  0  0  0  0  0  0  0  0  0
    7.7769   -1.8856   21.1138 C   0  0  0  0  0  0  0  0  0  0  0  0
    7.2542   -0.6058   21.0696 N   0  0  0  0  0  0  0  0  0  0  0  0
    6.6085    0.0493   19.9551 C   0  0  0  0  0  0  0  0  0  0  0  0
    5.3768    0.6813   20.1533 C   0  0  0  0  0  0  0  0  0  0  0  0
    4.7767    1.3276   19.0673 C   0  0  0  0  0  0  0  0  0  0  0  0
    5.4194    1.3144   17.8242 C   0  0  0  0  0  0  0  0  0  0  0  0
    6.5980    0.7055   17.6153 N   0  0  0  0  0  0  0  0  0  0  0  0
    7.1761    0.0980   18.6629 C   0  0  0  0  0  0  0  0  0  0  0  0
    8.1381   -0.3772   18.4688 H   0  0  0  0  0  0  0  0  0  0  0  0
    4.9574    1.7982   16.9627 H   0  0  0  0  0  0  0  0  0  0  0  0
    3.8247    1.8371   19.1772 H   0  0  0  0  0  0  0  0  0  0  0  0
    4.9204    0.6695   21.1449 H   0  0  0  0  0  0  0  0  0  0  0  0
    7.7285   -2.5591   20.2814 H   0  0  0  0  0  0  0  0  0  0  0  0
    7.0631    1.1123   23.8737 H   0  0  0  0  0  0  0  0  0  0  0  0
    6.7599    3.4375   22.7479 C   0  0  0  0  0  0  0  0  0  0  0  0
    6.2699    4.4278   21.8892 C   0  0  0  0  0  0  0  0  0  0  0  0
    5.7146    5.6216   22.3891 C   0  0  0  0  0  0  0  0  0  0  0  0
    5.6328    5.8546   23.7672 C   0  0  0  0  0  0  0  0  0  0  0  0
    6.1100    4.8511   24.6280 C   0  0  0  0  0  0  0  0  0  0  0  0
    6.6500    3.6462   24.1393 C   0  0  0  0  0  0  0  0  0  0  0  0
    7.0160    2.8268   25.1968 N   0  0  0  0  0  0  0  0  0  0  0  0
    6.7315    3.5026   26.2733 C   0  0  0  0  0  0  0  0  0  0  0  0
    6.1775    4.7239   26.0066 N   0  0  0  0  0  0  0  0  0  0  0  0
    5.8978    5.4149   26.6807 H   0  0  0  0  0  0  0  0  0  0  0  0
    6.9133    3.1478   27.2829 H   0  0  0  0  0  0  0  0  0  0  0  0
    5.2005    6.7714   24.1602 H   0  0  0  0  0  0  0  0  0  0  0  0
    5.3376    6.3591   21.6800 H   0  0  0  0  0  0  0  0  0  0  0  0
    6.3180    4.2410   20.8180 H   0  0  0  0  0  0  0  0  0  0  0  0
  1  2  2  0
  2  3  1  0
  3  4  1  0
  4  5  2  0
  5  6  1  0
  6  7  2  0
  7  8  1  0
  8  9  1  0
  9 10  2  0
 10 11  1  0
 11 12  2  0
 12 13  1  0
 13 14  2  0
 14 15  1  0
 12 16  1  0
 11 17  1  0
 10 18  1  0
  7 19  1  0
  3 20  1  0
  2 21  1  0
 21 22  2  0
 22 23  1  0
 23 24  2  0
 24 25  1  0
 25 26  2  0
 26 27  1  0
 27 28  2  0
 28 29  1  0
 29 30  1  0
 28 31  1  0
 24 32  1  0
 23 33  1  0
 22 34  1  0
  8  4  1  0
 14  9  1  0
 26 21  1  0
 29 25  1  0
M  END
>  <cnnaffinity>  (1) 
-5.21965

>  <filename>  (1) 
O=C(Nc1nncn1-c1cccnc1)c1cccc2[nH]cnc12

$$$$
