
     RDKit          3D

 30 31  0  0  0  0  0  0  0  0999 V2000
   12.4819    2.6785   21.5817 H   0  0  0  0  0  0  0  0  0  0  0  0
   11.5937    2.4815   21.2283 O   0  0  0  0  0  0  0  0  0  0  0  0
   10.8880    2.8943   22.2983 C   0  0  0  0  0  0  0  0  0  0  0  0
   11.4991    3.3120   23.2527 O   0  0  0  0  0  0  0  0  0  0  0  0
    9.3913    2.7883   22.1534 C   0  0  0  0  0  0  0  0  0  0  0  0
    9.1473    3.1440   21.1481 H   0  0  0  0  0  0  0  0  0  0  0  0
    8.9544    3.4872   22.8709 H   0  0  0  0  0  0  0  0  0  0  0  0
    8.7736    1.3982   22.4036 C   0  0  0  0  0  0  0  0  0  0  0  0
    7.6874    1.5095   22.2668 H   0  0  0  0  0  0  0  0  0  0  0  0
    8.9178    1.1079   23.4550 H   0  0  0  0  0  0  0  0  0  0  0  0
    9.3026    0.2816   21.4779 C   0  0  0  0  0  0  0  0  0  0  0  0
   10.3302    0.0226   21.7443 H   0  0  0  0  0  0  0  0  0  0  0  0
    9.3154    0.6312   20.4410 H   0  0  0  0  0  0  0  0  0  0  0  0
    8.4952   -0.9645   21.5853 C   0  0  0  0  0  0  0  0  0  0  0  0
    8.7375   -1.8897   22.4618 N   0  0  0  0  0  0  0  0  0  0  0  0
    7.6583   -2.7147   22.3685 N   0  0  0  0  0  0  0  0  0  0  0  0
    7.4310   -3.4068   23.0623 H   0  0  0  0  0  0  0  0  0  0  0  0
    6.7256   -2.3272   21.4806 C   0  0  0  0  0  0  0  0  0  0  0  0
    5.2762   -3.1028   21.2498 S   0  0  0  0  0  0  0  0  0  0  0  0
    7.3024   -1.2040   20.9021 N   0  0  0  0  0  0  0  0  0  0  0  0
    6.6919   -0.3700   19.8993 C   0  0  0  0  0  0  0  0  0  0  0  0
    7.2384   -0.2258   18.6094 C   0  0  0  0  0  0  0  0  0  0  0  0
    8.1554   -0.7554   18.3508 H   0  0  0  0  0  0  0  0  0  0  0  0
    6.6949    0.5502   17.6606 N   0  0  0  0  0  0  0  0  0  0  0  0
    5.5806    1.2328   17.9644 C   0  0  0  0  0  0  0  0  0  0  0  0
    5.1587    1.8479   17.1680 H   0  0  0  0  0  0  0  0  0  0  0  0
    4.9651    1.1599   19.2192 C   0  0  0  0  0  0  0  0  0  0  0  0
    4.0687    1.7404   19.4070 H   0  0  0  0  0  0  0  0  0  0  0  0
    5.5282    0.3373   20.2039 C   0  0  0  0  0  0  0  0  0  0  0  0
    5.1007    0.2435   21.2031 H   0  0  0  0  0  0  0  0  0  0  0  0
  1  2  1  0
  2  3  1  0
  3  4  2  0
  3  5  1  0
  5  6  1  0
  5  7  1  0
  5  8  1  0
  8  9  1  0
  8 10  1  0
  8 11  1  0
 11 12  1  0
 11 13  1  0
 11 14  1  0
 14 15  2  0
 15 16  1  0
 16 17  1  0
 16 18  1  0
 18 19  2  0
 18 20  1  0
 20 21  1  0
 21 22  2  0
 22 23  1  0
 22 24  1  0
 24 25  2  0
 25 26  1  0
 25 27  1  0
 27 28  1  0
 27 29  2  0
 29 30  1  0
 20 14  1  0
 29 21  1  0
M  END
>  <cnnaffinity>  (1) 
-4.78074

>  <filename>  (1) 
O=C(O)CCCc1n[nH]c(=S)n1-c1cccnc1

$$$$
