
     RDKit          3D

 37 40  0  0  0  0  0  0  0  0999 V2000
    7.2287   -3.9224   24.8690 O   0  0  0  0  0  0  0  0  0  0  0  0
    6.6255   -2.9073   24.5985 C   0  0  0  0  0  0  0  0  0  0  0  0
    7.3440   -1.5853   24.5060 C   0  0  0  0  0  0  0  0  0  0  0  0
    7.7406   -1.4625   23.0760 C   0  0  0  0  0  0  0  0  0  0  0  0
    8.8528   -1.9708   22.4823 C   0  0  0  0  0  0  0  0  0  0  0  0
    8.8530   -1.5660   20.8112 S   0  0  0  0  0  0  0  0  0  0  0  0
    7.3092   -0.7717   21.0250 C   0  0  0  0  0  0  0  0  0  0  0  0
    6.6130   -0.0501   19.9528 C   0  0  0  0  0  0  0  0  0  0  0  0
    5.4013    0.6349   20.1752 C   0  0  0  0  0  0  0  0  0  0  0  0
    4.8178    1.3055   19.1020 C   0  0  0  0  0  0  0  0  0  0  0  0
    5.4593    1.2775   17.8582 C   0  0  0  0  0  0  0  0  0  0  0  0
    6.6159    0.6360   17.6379 N   0  0  0  0  0  0  0  0  0  0  0  0
    7.1727   -0.0050   18.6667 C   0  0  0  0  0  0  0  0  0  0  0  0
    8.1152   -0.5063   18.4462 H   0  0  0  0  0  0  0  0  0  0  0  0
    5.0264    1.7836   16.9980 H   0  0  0  0  0  0  0  0  0  0  0  0
    3.8885    1.8546   19.2114 H   0  0  0  0  0  0  0  0  0  0  0  0
    4.9448    0.6424   21.1672 H   0  0  0  0  0  0  0  0  0  0  0  0
    6.8499   -0.8546   22.2410 N   0  0  0  0  0  0  0  0  0  0  0  0
    9.6332   -2.5763   22.9216 H   0  0  0  0  0  0  0  0  0  0  0  0
    6.7108   -0.7437   24.7972 H   0  0  0  0  0  0  0  0  0  0  0  0
    8.2105   -1.6405   25.1627 H   0  0  0  0  0  0  0  0  0  0  0  0
    5.2843   -2.8339   24.3042 N   0  0  0  0  0  0  0  0  0  0  0  0
    4.4494   -3.9605   24.1104 C   0  0  0  0  0  0  0  0  0  0  0  0
    3.0457   -3.9214   24.3267 C   0  0  0  0  0  0  0  0  0  0  0  0
    2.1893   -2.9508   24.7575 N   0  0  0  0  0  0  0  0  0  0  0  0
    0.9049   -3.3676   24.8048 N   0  0  0  0  0  0  0  0  0  0  0  0
    0.9170   -4.6194   24.4023 C   0  0  0  0  0  0  0  0  0  0  0  0
    2.2318   -5.0573   24.0920 C   0  0  0  0  0  0  0  0  0  0  0  0
    2.8043   -6.3013   23.7215 C   0  0  0  0  0  0  0  0  0  0  0  0
    4.1743   -6.3188   23.5726 C   0  0  0  0  0  0  0  0  0  0  0  0
    5.0210   -7.8141   23.3538 Cl  0  0  0  0  0  0  0  0  0  0  0  0
    4.9861   -5.1679   23.7018 C   0  0  0  0  0  0  0  0  0  0  0  0
    6.0513   -5.2422   23.5324 H   0  0  0  0  0  0  0  0  0  0  0  0
    2.2108   -7.2052   23.6088 H   0  0  0  0  0  0  0  0  0  0  0  0
    0.0231   -5.2238   24.3448 H   0  0  0  0  0  0  0  0  0  0  0  0
    2.4324   -2.0552   25.1565 H   0  0  0  0  0  0  0  0  0  0  0  0
    5.0654   -2.0213   23.7453 H   0  0  0  0  0  0  0  0  0  0  0  0
  1  2  2  0
  2  3  1  0
  3  4  1  0
  4  5  2  0
  5  6  1  0
  6  7  1  0
  7  8  1  0
  8  9  2  0
  9 10  1  0
 10 11  2  0
 11 12  1  0
 12 13  2  0
 13 14  1  0
 11 15  1  0
 10 16  1  0
  9 17  1  0
  7 18  2  0
  5 19  1  0
  3 20  1  0
  3 21  1  0
  2 22  1  0
 22 23  1  0
 23 24  2  0
 24 25  1  0
 25 26  1  0
 26 27  2  0
 27 28  1  0
 28 29  2  0
 29 30  1  0
 30 31  1  0
 30 32  2  0
 32 33  1  0
 29 34  1  0
 27 35  1  0
 25 36  1  0
 22 37  1  0
 18  4  1  0
 32 23  1  0
 13  8  1  0
 28 24  1  0
M  END
>  <cnnaffinity>  (1) 
-5.84654

>  <filename>  (1) 
O=C(Cc1csc(-c2cccnc2)n1)Nc1cc(Cl)cc2cn[nH]c12

$$$$
