
     RDKit          3D

 30 32  0  0  0  0  0  0  0  0999 V2000
    4.9629    1.7871   16.9987 H   0  0  0  0  0  0  0  0  0  0  0  0
    5.4286    1.2804   17.8393 C   0  0  0  0  0  0  0  0  0  0  0  0
    6.5808    0.6401   17.5810 N   0  0  0  0  0  0  0  0  0  0  0  0
    7.1747    0.0095   18.6015 C   0  0  0  0  0  0  0  0  0  0  0  0
    8.1151   -0.4896   18.3880 H   0  0  0  0  0  0  0  0  0  0  0  0
    6.6460   -0.0332   19.9083 C   0  0  0  0  0  0  0  0  0  0  0  0
    7.3043   -0.7333   20.9616 N   0  0  0  0  0  0  0  0  0  0  0  0
    6.6840   -1.6945   21.7730 C   0  0  0  0  0  0  0  0  0  0  0  0
    5.6422   -1.9470   21.6829 H   0  0  0  0  0  0  0  0  0  0  0  0
    7.6175   -2.0912   22.6552 C   0  0  0  0  0  0  0  0  0  0  0  0
    7.5851   -2.9762   23.7158 N   0  0  0  0  0  0  0  0  0  0  0  0
    6.8763   -3.6780   23.7074 H   0  0  0  0  0  0  0  0  0  0  0  0
    8.5786   -3.1362   24.6450 C   0  0  0  0  0  0  0  0  0  0  0  0
    9.5235   -2.3716   24.7581 O   0  0  0  0  0  0  0  0  0  0  0  0
    8.3875   -4.3625   25.4969 C   0  0  0  0  0  0  0  0  0  0  0  0
    7.6475   -4.2237   26.2851 H   0  0  0  0  0  0  0  0  0  0  0  0
    9.5564   -5.2709   25.7777 C   0  0  0  0  0  0  0  0  0  0  0  0
   10.5109   -5.0265   25.3087 H   0  0  0  0  0  0  0  0  0  0  0  0
    9.6592   -5.6917   26.7757 H   0  0  0  0  0  0  0  0  0  0  0  0
    8.4378   -5.7418   24.8970 C   0  0  0  0  0  0  0  0  0  0  0  0
    8.6491   -5.8506   23.8338 H   0  0  0  0  0  0  0  0  0  0  0  0
    7.7478   -6.4701   25.3093 H   0  0  0  0  0  0  0  0  0  0  0  0
    8.7663   -1.4113   22.4074 N   0  0  0  0  0  0  0  0  0  0  0  0
    9.5314   -1.4079   23.0698 H   0  0  0  0  0  0  0  0  0  0  0  0
    8.6023   -0.5258   21.3910 C   0  0  0  0  0  0  0  0  0  0  0  0
    9.7338    0.5635   20.8811 S   0  0  0  0  0  0  0  0  0  0  0  0
    5.4463    0.6365   20.1643 C   0  0  0  0  0  0  0  0  0  0  0  0
    5.0269    0.6368   21.1727 H   0  0  0  0  0  0  0  0  0  0  0  0
    4.8303    1.3080   19.1045 C   0  0  0  0  0  0  0  0  0  0  0  0
    3.9012    1.8468   19.2533 H   0  0  0  0  0  0  0  0  0  0  0  0
  1  2  1  0
  2  3  2  0
  3  4  1  0
  4  5  1  0
  4  6  2  0
  6  7  1  0
  7  8  1  0
  8  9  1  0
  8 10  2  0
 10 11  1  0
 11 12  1  0
 11 13  1  0
 13 14  2  0
 13 15  1  0
 15 16  1  0
 15 17  1  0
 17 18  1  0
 17 19  1  0
 17 20  1  0
 20 21  1  0
 20 22  1  0
 10 23  1  0
 23 24  1  0
 23 25  1  0
 25 26  2  0
  6 27  1  0
 27 28  1  0
 27 29  2  0
 29 30  1  0
 29  2  1  0
 25  7  1  0
 20 15  1  0
M  END
>  <cnnaffinity>  (1) 
-5.15312

>  <filename>  (1) 
O=C(Nc1cn(-c2cccnc2)c(=S)[nH]1)C1CC1

$$$$
