
     RDKit          3D

 28 29  0  0  0  0  0  0  0  0999 V2000
   10.0232   -1.7068   22.7031 O   0  0  0  0  0  0  0  0  0  0  0  0
    8.9279   -1.9762   22.2222 C   0  0  0  0  0  0  0  0  0  0  0  0
    8.4469   -1.2072   20.9952 C   0  0  0  0  0  0  0  0  0  0  0  0
    7.1713   -0.5477   21.1479 O   0  0  0  0  0  0  0  0  0  0  0  0
    6.6292    0.0215   20.0112 C   0  0  0  0  0  0  0  0  0  0  0  0
    5.4066    0.6797   20.1595 C   0  0  0  0  0  0  0  0  0  0  0  0
    4.8439    1.2997   19.0408 C   0  0  0  0  0  0  0  0  0  0  0  0
    5.5011    1.2558   17.8053 C   0  0  0  0  0  0  0  0  0  0  0  0
    6.6663    0.5969   17.6381 N   0  0  0  0  0  0  0  0  0  0  0  0
    7.2127   -0.0033   18.7166 C   0  0  0  0  0  0  0  0  0  0  0  0
    8.1546   -0.5261   18.5557 H   0  0  0  0  0  0  0  0  0  0  0  0
    5.0587    1.7720   16.9578 H   0  0  0  0  0  0  0  0  0  0  0  0
    3.9058    1.8372   19.1307 H   0  0  0  0  0  0  0  0  0  0  0  0
    4.9304    0.7040   21.1383 H   0  0  0  0  0  0  0  0  0  0  0  0
    8.3787   -1.9233   20.1809 H   0  0  0  0  0  0  0  0  0  0  0  0
    9.2160   -0.4791   20.7360 H   0  0  0  0  0  0  0  0  0  0  0  0
    8.2301   -3.0876   22.6513 N   0  0  0  0  0  0  0  0  0  0  0  0
    8.5919   -3.8194   23.7555 C   0  0  0  0  0  0  0  0  0  0  0  0
    9.9102   -3.9383   24.1518 C   0  0  0  0  0  0  0  0  0  0  0  0
   10.2260   -4.6603   25.2985 C   0  0  0  0  0  0  0  0  0  0  0  0
    9.2795   -5.2173   26.0670 N   0  0  0  0  0  0  0  0  0  0  0  0
    7.9979   -5.0832   25.6822 C   0  0  0  0  0  0  0  0  0  0  0  0
    7.6107   -4.4095   24.5216 C   0  0  0  0  0  0  0  0  0  0  0  0
    5.7616   -4.2324   24.0531 Br  0  0  0  0  0  0  0  0  0  0  0  0
    7.2241   -5.5033   26.3141 H   0  0  0  0  0  0  0  0  0  0  0  0
   11.2700   -4.7602   25.5825 H   0  0  0  0  0  0  0  0  0  0  0  0
   10.7020   -3.4758   23.5832 H   0  0  0  0  0  0  0  0  0  0  0  0
    7.2809   -3.2094   22.3175 H   0  0  0  0  0  0  0  0  0  0  0  0
  1  2  2  0
  2  3  1  0
  3  4  1  0
  4  5  1  0
  5  6  2  0
  6  7  1  0
  7  8  2  0
  8  9  1  0
  9 10  2  0
 10 11  1  0
  8 12  1  0
  7 13  1  0
  6 14  1  0
  3 15  1  0
  3 16  1  0
  2 17  1  0
 17 18  1  0
 18 19  2  0
 19 20  1  0
 20 21  2  0
 21 22  1  0
 22 23  2  0
 23 24  1  0
 22 25  1  0
 20 26  1  0
 19 27  1  0
 17 28  1  0
 10  5  1  0
 23 18  1  0
M  END
>  <cnnaffinity>  (1) 
-4.94165

>  <filename>  (1) 
O=C(COc1cccnc1)Nc1ccncc1Br

$$$$
