
     RDKit          3D

 35 37  0  0  0  0  0  0  0  0999 V2000
    8.7046    0.4377   23.4792 O   0  0  0  0  0  0  0  0  0  0  0  0
    8.4279   -0.6943   23.8139 C   0  0  0  0  0  0  0  0  0  0  0  0
    9.0657   -1.3697   25.0105 C   0  0  0  0  0  0  0  0  0  0  0  0
    8.3056   -0.9814   26.2352 C   0  0  0  0  0  0  0  0  0  0  0  0
    8.5043    0.1489   26.9784 C   0  0  0  0  0  0  0  0  0  0  0  0
    7.5406    0.1344   27.9523 N   0  0  0  0  0  0  0  0  0  0  0  0
    7.3050    0.9978   29.0061 C   0  0  0  0  0  0  0  0  0  0  0  0
    6.3123    0.7077   29.8929 C   0  0  0  0  0  0  0  0  0  0  0  0
    5.5059   -0.4758   29.6978 C   0  0  0  0  0  0  0  0  0  0  0  0
    5.7195   -1.3119   28.6329 C   0  0  0  0  0  0  0  0  0  0  0  0
    6.7874   -1.0230   27.7312 C   0  0  0  0  0  0  0  0  0  0  0  0
    7.2386   -1.6967   26.6818 N   0  0  0  0  0  0  0  0  0  0  0  0
    5.1382   -2.2066   28.4384 H   0  0  0  0  0  0  0  0  0  0  0  0
    4.7213   -0.7045   30.4129 H   0  0  0  0  0  0  0  0  0  0  0  0
    6.1405    1.3581   30.7484 H   0  0  0  0  0  0  0  0  0  0  0  0
    7.9607    1.8608   29.0437 H   0  0  0  0  0  0  0  0  0  0  0  0
    9.2198    0.9468   26.8763 H   0  0  0  0  0  0  0  0  0  0  0  0
    9.0709   -2.4586   24.8957 H   0  0  0  0  0  0  0  0  0  0  0  0
   10.0911   -0.9924   25.0507 H   0  0  0  0  0  0  0  0  0  0  0  0
    7.4764   -1.4921   23.2181 N   0  0  0  0  0  0  0  0  0  0  0  0
    6.7813   -1.1549   22.0609 N   0  0  0  0  0  0  0  0  0  0  0  0
    7.4260   -0.8905   20.8507 C   0  0  0  0  0  0  0  0  0  0  0  0
    8.5319   -1.3045   20.5715 O   0  0  0  0  0  0  0  0  0  0  0  0
    6.6208   -0.1034   19.8718 C   0  0  0  0  0  0  0  0  0  0  0  0
    5.4272    0.5875   20.1377 C   0  0  0  0  0  0  0  0  0  0  0  0
    4.8191    1.2837   19.0980 C   0  0  0  0  0  0  0  0  0  0  0  0
    5.4194    1.2740   17.8346 C   0  0  0  0  0  0  0  0  0  0  0  0
    6.5657    0.6303   17.5681 N   0  0  0  0  0  0  0  0  0  0  0  0
    7.1448   -0.0364   18.5697 C   0  0  0  0  0  0  0  0  0  0  0  0
    8.0715   -0.5534   18.3276 H   0  0  0  0  0  0  0  0  0  0  0  0
    4.9626    1.8040   17.0005 H   0  0  0  0  0  0  0  0  0  0  0  0
    3.8988    1.8359   19.2581 H   0  0  0  0  0  0  0  0  0  0  0  0
    4.9615    0.6203   21.1283 H   0  0  0  0  0  0  0  0  0  0  0  0
    5.9786   -0.5688   22.2368 H   0  0  0  0  0  0  0  0  0  0  0  0
    7.3908   -2.4446   23.5417 H   0  0  0  0  0  0  0  0  0  0  0  0
  1  2  2  0
  2  3  1  0
  3  4  1  0
  4  5  2  0
  5  6  1  0
  6  7  1  0
  7  8  2  0
  8  9  1  0
  9 10  2  0
 10 11  1  0
 11 12  2  0
 10 13  1  0
  9 14  1  0
  8 15  1  0
  7 16  1  0
  5 17  1  0
  3 18  1  0
  3 19  1  0
  2 20  1  0
 20 21  1  0
 21 22  1  0
 22 23  2  0
 22 24  1  0
 24 25  2  0
 25 26  1  0
 26 27  2  0
 27 28  1  0
 28 29  2  0
 29 30  1  0
 27 31  1  0
 26 32  1  0
 25 33  1  0
 21 34  1  0
 20 35  1  0
 12  4  1  0
 29 24  1  0
 11  6  1  0
M  END
>  <cnnaffinity>  (1) 
-4.80394

>  <filename>  (1) 
O=C(Cc1cn2ccccc2n1)NNC(=O)c1cccnc1

$$$$
