
     RDKit          3D

 42 44  0  0  0  0  0  0  0  0999 V2000
    5.0733    1.7353   16.9319 H   0  0  0  0  0  0  0  0  0  0  0  0
    5.5307    1.2519   17.7905 C   0  0  0  0  0  0  0  0  0  0  0  0
    6.6910    0.6223   17.5588 N   0  0  0  0  0  0  0  0  0  0  0  0
    7.2856    0.0302   18.5964 C   0  0  0  0  0  0  0  0  0  0  0  0
    8.2381   -0.4631   18.4067 H   0  0  0  0  0  0  0  0  0  0  0  0
    6.7429    0.0065   19.8829 C   0  0  0  0  0  0  0  0  0  0  0  0
    7.4688   -0.7521   20.9149 C   0  0  0  0  0  0  0  0  0  0  0  0
    8.7775   -0.7505   20.8670 N   0  0  0  0  0  0  0  0  0  0  0  0
    9.4584   -1.4313   21.8444 C   0  0  0  0  0  0  0  0  0  0  0  0
   10.6613   -1.5174   21.9128 O   0  0  0  0  0  0  0  0  0  0  0  0
    8.7221   -2.0931   22.8303 N   0  0  0  0  0  0  0  0  0  0  0  0
    9.2392   -2.7269   23.4159 H   0  0  0  0  0  0  0  0  0  0  0  0
    7.3902   -2.1109   22.8274 C   0  0  0  0  0  0  0  0  0  0  0  0
    6.7544   -2.7529   23.8377 N   0  0  0  0  0  0  0  0  0  0  0  0
    5.7540   -2.7441   23.7762 H   0  0  0  0  0  0  0  0  0  0  0  0
    7.2680   -3.8376   24.5098 C   0  0  0  0  0  0  0  0  0  0  0  0
    8.3727   -4.3091   24.3108 O   0  0  0  0  0  0  0  0  0  0  0  0
    6.3351   -4.2817   25.4078 N   0  0  0  0  0  0  0  0  0  0  0  0
    5.8024   -3.4977   25.7519 H   0  0  0  0  0  0  0  0  0  0  0  0
    6.7251   -5.2827   26.3906 C   0  0  0  0  0  0  0  0  0  0  0  0
    7.0338   -6.1737   25.8266 H   0  0  0  0  0  0  0  0  0  0  0  0
    5.5328   -5.6829   27.2615 C   0  0  0  0  0  0  0  0  0  0  0  0
    5.2256   -4.8167   27.8708 H   0  0  0  0  0  0  0  0  0  0  0  0
    4.6863   -5.9573   26.6208 H   0  0  0  0  0  0  0  0  0  0  0  0
    5.9060   -6.8515   28.1920 C   0  0  0  0  0  0  0  0  0  0  0  0
    6.0532   -7.7575   27.5860 H   0  0  0  0  0  0  0  0  0  0  0  0
    5.0780   -7.0691   28.8759 H   0  0  0  0  0  0  0  0  0  0  0  0
    7.1820   -6.5445   28.9962 C   0  0  0  0  0  0  0  0  0  0  0  0
    7.4770   -7.4050   29.6049 H   0  0  0  0  0  0  0  0  0  0  0  0
    6.9573   -5.7295   29.6998 H   0  0  0  0  0  0  0  0  0  0  0  0
    8.3345   -6.0959   28.0880 C   0  0  0  0  0  0  0  0  0  0  0  0
    8.5822   -6.8928   27.3692 H   0  0  0  0  0  0  0  0  0  0  0  0
    9.2486   -5.8895   28.6512 H   0  0  0  0  0  0  0  0  0  0  0  0
    7.9227   -4.8791   27.2660 C   0  0  0  0  0  0  0  0  0  0  0  0
    7.6353   -4.0364   27.9100 H   0  0  0  0  0  0  0  0  0  0  0  0
    8.7431   -4.5382   26.6313 H   0  0  0  0  0  0  0  0  0  0  0  0
    6.7013   -1.4574   21.8568 C   0  0  0  0  0  0  0  0  0  0  0  0
    5.6293   -1.5195   21.7850 H   0  0  0  0  0  0  0  0  0  0  0  0
    5.5214    0.6577   20.1172 C   0  0  0  0  0  0  0  0  0  0  0  0
    5.0675    0.6724   21.1133 H   0  0  0  0  0  0  0  0  0  0  0  0
    4.9121    1.3016   19.0451 C   0  0  0  0  0  0  0  0  0  0  0  0
    3.9760    1.8337   19.1649 H   0  0  0  0  0  0  0  0  0  0  0  0
  1  2  1  0
  2  3  2  0
  3  4  1  0
  4  5  1  0
  4  6  2  0
  6  7  1  0
  7  8  2  0
  8  9  1  0
  9 10  2  0
  9 11  1  0
 11 12  1  0
 11 13  1  0
 13 14  1  0
 14 15  1  0
 14 16  1  0
 16 17  2  0
 16 18  1  0
 18 19  1  0
 18 20  1  0
 20 21  1  0
 20 22  1  0
 22 23  1  0
 22 24  1  0
 22 25  1  0
 25 26  1  0
 25 27  1  0
 25 28  1  0
 28 29  1  0
 28 30  1  0
 28 31  1  0
 31 32  1  0
 31 33  1  0
 31 34  1  0
 34 35  1  0
 34 36  1  0
 13 37  2  0
 37 38  1  0
  6 39  1  0
 39 40  1  0
 39 41  2  0
 41 42  1  0
 41  2  1  0
 37  7  1  0
 34 20  1  0
M  END
>  <cnnaffinity>  (1) 
-5.06109

>  <filename>  (1) 
O=C(Nc1cc(-c2cccnc2)nc(=O)[nH]1)NC1CCCCC1

$$$$
