
     RDKit          3D

 35 37  0  0  0  0  0  0  0  0999 V2000
    8.6499   -1.8447   19.9298 H   0  0  0  0  0  0  0  0  0  0  0  0
    8.3241   -1.5408   20.9111 C   0  0  0  0  0  0  0  0  0  0  0  0
    8.8581   -2.1992   21.9393 N   0  0  0  0  0  0  0  0  0  0  0  0
    8.5669   -1.7899   23.1747 N   0  0  0  0  0  0  0  0  0  0  0  0
    7.7749   -0.7104   23.3417 C   0  0  0  0  0  0  0  0  0  0  0  0
    7.6426   -0.2289   24.7895 C   0  0  0  0  0  0  0  0  0  0  0  0
    7.7686   -1.1134   25.4231 H   0  0  0  0  0  0  0  0  0  0  0  0
    8.4888    0.4426   24.9772 H   0  0  0  0  0  0  0  0  0  0  0  0
    6.4218    0.4770   25.1860 N   0  0  0  0  0  0  0  0  0  0  0  0
    6.3345    1.4469   24.9374 H   0  0  0  0  0  0  0  0  0  0  0  0
    5.2289   -0.1776   25.3701 C   0  0  0  0  0  0  0  0  0  0  0  0
    5.1999   -1.3491   25.7129 O   0  0  0  0  0  0  0  0  0  0  0  0
    3.9705    0.6396   25.1269 C   0  0  0  0  0  0  0  0  0  0  0  0
    2.7446    0.0264   25.4524 C   0  0  0  0  0  0  0  0  0  0  0  0
    2.7587   -0.9677   25.9038 H   0  0  0  0  0  0  0  0  0  0  0  0
    1.5342    0.6737   25.1919 C   0  0  0  0  0  0  0  0  0  0  0  0
    0.6032    0.1730   25.4298 H   0  0  0  0  0  0  0  0  0  0  0  0
    1.5160    1.9544   24.6259 C   0  0  0  0  0  0  0  0  0  0  0  0
    0.5697    2.4587   24.4386 H   0  0  0  0  0  0  0  0  0  0  0  0
    2.7285    2.5909   24.3460 C   0  0  0  0  0  0  0  0  0  0  0  0
    2.7314    3.5952   23.9330 H   0  0  0  0  0  0  0  0  0  0  0  0
    3.9447    1.9522   24.6027 C   0  0  0  0  0  0  0  0  0  0  0  0
    4.8557    2.5070   24.3679 H   0  0  0  0  0  0  0  0  0  0  0  0
    7.1681   -0.0353   22.3446 N   0  0  0  0  0  0  0  0  0  0  0  0
    7.4022   -0.4831   21.1068 C   0  0  0  0  0  0  0  0  0  0  0  0
    6.6591    0.1505   19.9798 C   0  0  0  0  0  0  0  0  0  0  0  0
    7.1894    0.1501   18.6774 C   0  0  0  0  0  0  0  0  0  0  0  0
    8.1451   -0.3270   18.4599 H   0  0  0  0  0  0  0  0  0  0  0  0
    6.5971    0.7085   17.6204 N   0  0  0  0  0  0  0  0  0  0  0  0
    5.4107    1.3008   17.8165 C   0  0  0  0  0  0  0  0  0  0  0  0
    4.9576    1.7596   16.9409 H   0  0  0  0  0  0  0  0  0  0  0  0
    4.7713    1.3376   19.0579 C   0  0  0  0  0  0  0  0  0  0  0  0
    3.8100    1.8311   19.1467 H   0  0  0  0  0  0  0  0  0  0  0  0
    5.4014    0.7578   20.1584 C   0  0  0  0  0  0  0  0  0  0  0  0
    4.9347    0.7721   21.1453 H   0  0  0  0  0  0  0  0  0  0  0  0
  1  2  1  0
  2  3  2  0
  3  4  1  0
  4  5  2  0
  5  6  1  0
  6  7  1  0
  6  8  1  0
  6  9  1  0
  9 10  1  0
  9 11  1  0
 11 12  2  0
 11 13  1  0
 13 14  2  0
 14 15  1  0
 14 16  1  0
 16 17  1  0
 16 18  2  0
 18 19  1  0
 18 20  1  0
 20 21  1  0
 20 22  2  0
 22 23  1  0
  5 24  1  0
 24 25  2  0
 25 26  1  0
 26 27  2  0
 27 28  1  0
 27 29  1  0
 29 30  2  0
 30 31  1  0
 30 32  1  0
 32 33  1  0
 32 34  2  0
 34 35  1  0
 25  2  1  0
 34 26  1  0
 22 13  1  0
M  END
>  <cnnaffinity>  (1) 
-5.20424

>  <filename>  (1) 
O=C(NCc1nncc(-c2cccnc2)n1)c1ccccc1

$$$$
