
     RDKit          3D

 37 38  0  0  0  0  0  0  0  0999 V2000
    6.6095    0.7997   22.7312 O   0  0  0  0  0  0  0  0  0  0  0  0
    7.1432   -0.1920   22.2919 C   0  0  0  0  0  0  0  0  0  0  0  0
    7.7312   -1.2128   23.0637 N   0  0  0  0  0  0  0  0  0  0  0  0
    7.8588   -1.0278   24.5226 C   0  0  0  0  0  0  0  0  0  0  0  0
    6.5338   -1.1702   25.2711 C   0  0  0  0  0  0  0  0  0  0  0  0
    5.8537   -2.5465   25.1639 C   0  0  1  0  0  0  0  0  0  0  0  0
    5.4367   -2.8095   23.8448 O   0  0  0  0  0  0  0  0  0  0  0  0
    6.0909   -2.3474   23.2962 H   0  0  0  0  0  0  0  0  0  0  0  0
    6.7512   -3.6509   25.7069 C   0  0  0  0  0  0  0  0  0  0  0  0
    6.9287   -3.7929   27.0939 C   0  0  0  0  0  0  0  0  0  0  0  0
    7.7968   -4.7646   27.5998 C   0  0  0  0  0  0  0  0  0  0  0  0
    8.4939   -5.6041   26.7231 C   0  0  0  0  0  0  0  0  0  0  0  0
    8.3177   -5.4732   25.3429 C   0  0  0  0  0  0  0  0  0  0  0  0
    7.4526   -4.5012   24.8417 C   0  0  0  0  0  0  0  0  0  0  0  0
    7.2871   -4.4083   23.7711 H   0  0  0  0  0  0  0  0  0  0  0  0
    8.8408   -6.1288   24.6507 H   0  0  0  0  0  0  0  0  0  0  0  0
    9.1529   -6.3767   27.1040 H   0  0  0  0  0  0  0  0  0  0  0  0
    7.9196   -4.8749   28.6722 H   0  0  0  0  0  0  0  0  0  0  0  0
    6.3668   -3.1523   27.7735 H   0  0  0  0  0  0  0  0  0  0  0  0
    4.9423   -2.5311   25.7776 H   0  0  0  0  0  0  0  0  0  0  0  0
    6.7202   -0.9537   26.3311 H   0  0  0  0  0  0  0  0  0  0  0  0
    5.8375   -0.4146   24.8967 H   0  0  0  0  0  0  0  0  0  0  0  0
    8.5616   -1.7863   24.8887 H   0  0  0  0  0  0  0  0  0  0  0  0
    8.2923   -0.0542   24.7722 H   0  0  0  0  0  0  0  0  0  0  0  0
    8.6133   -1.4386   22.6275 H   0  0  0  0  0  0  0  0  0  0  0  0
    7.2816   -0.5559   20.9571 N   0  0  0  0  0  0  0  0  0  0  0  0
    6.6777    0.0679   19.8184 C   0  0  0  0  0  0  0  0  0  0  0  0
    5.5017    0.8158   19.9601 C   0  0  0  0  0  0  0  0  0  0  0  0
    4.9079    1.3696   18.8197 C   0  0  0  0  0  0  0  0  0  0  0  0
    5.5150    1.1901   17.5748 C   0  0  0  0  0  0  0  0  0  0  0  0
    6.6660    0.5118   17.4219 N   0  0  0  0  0  0  0  0  0  0  0  0
    7.2297   -0.0268   18.5137 C   0  0  0  0  0  0  0  0  0  0  0  0
    8.1676   -0.5599   18.3527 H   0  0  0  0  0  0  0  0  0  0  0  0
    5.0710    1.6066   16.6718 H   0  0  0  0  0  0  0  0  0  0  0  0
    3.9940    1.9478   18.8950 H   0  0  0  0  0  0  0  0  0  0  0  0
    5.0915    0.9587   20.9519 H   0  0  0  0  0  0  0  0  0  0  0  0
    7.4457   -1.5520   20.9036 H   0  0  0  0  0  0  0  0  0  0  0  0
  1  2  2  0
  2  3  1  0
  3  4  1  0
  4  5  1  0
  5  6  1  0
  6  7  1  0
  7  8  1  0
  6  9  1  0
  9 10  2  0
 10 11  1  0
 11 12  2  0
 12 13  1  0
 13 14  2  0
 14 15  1  0
 13 16  1  0
 12 17  1  0
 11 18  1  0
 10 19  1  0
  6 20  1  1
  5 21  1  0
  5 22  1  0
  4 23  1  0
  4 24  1  0
  3 25  1  0
  2 26  1  0
 26 27  1  0
 27 28  2  0
 28 29  1  0
 29 30  2  0
 30 31  1  0
 31 32  2  0
 32 33  1  0
 30 34  1  0
 29 35  1  0
 28 36  1  0
 26 37  1  0
 14  9  1  0
 32 27  1  0
M  END
>  <cnnaffinity>  (1) 
-4.32026

>  <filename>  (1) 
O=C(NCC[C@@H](O)c1ccccc1)Nc1cccnc1

$$$$
