
     RDKit          3D

 28 29  0  0  0  0  0  0  0  0999 V2000
    5.3336   -7.3574   23.3521 H   0  0  0  0  0  0  0  0  0  0  0  0
    5.1944   -6.4254   23.1085 O   0  0  0  0  0  0  0  0  0  0  0  0
    6.3167   -6.2322   22.3953 C   0  0  0  0  0  0  0  0  0  0  0  0
    7.0910   -7.1556   22.2463 O   0  0  0  0  0  0  0  0  0  0  0  0
    6.5414   -4.8443   21.8199 C   0  0  0  0  0  0  0  0  0  0  0  0
    7.7025   -4.6327   21.1510 O   0  0  0  0  0  0  0  0  0  0  0  0
    8.1773   -5.4747   21.0728 H   0  0  0  0  0  0  0  0  0  0  0  0
    5.5870   -3.8389   21.9704 C   0  0  0  0  0  0  0  0  0  0  0  0
    4.6324   -4.0865   22.4224 H   0  0  0  0  0  0  0  0  0  0  0  0
    5.5573   -2.3019   21.6972 C   0  0  0  0  0  0  0  0  0  0  0  0
    5.6875   -2.4105   21.6915 O   0  0  0  0  0  0  0  0  0  0  0  0
    7.0238   -1.8329   21.7079 C   0  0  0  0  0  0  0  0  0  0  0  0
    7.4766   -0.8954   20.8333 C   0  0  0  0  0  0  0  0  0  0  0  0
    6.7056   -0.1425   19.8333 C   0  0  0  0  0  0  0  0  0  0  0  0
    7.2756    0.0709   18.5722 C   0  0  0  0  0  0  0  0  0  0  0  0
    8.2589   -0.3318   18.3462 H   0  0  0  0  0  0  0  0  0  0  0  0
    6.6756    0.7488   17.5895 N   0  0  0  0  0  0  0  0  0  0  0  0
    5.4716    1.2788   17.8528 C   0  0  0  0  0  0  0  0  0  0  0  0
    5.0037    1.8360   17.0424 H   0  0  0  0  0  0  0  0  0  0  0  0
    4.8156    1.1364   19.0819 C   0  0  0  0  0  0  0  0  0  0  0  0
    3.8506    1.6108   19.2295 H   0  0  0  0  0  0  0  0  0  0  0  0
    5.4406    0.4155   20.0997 C   0  0  0  0  0  0  0  0  0  0  0  0
    4.9812    0.3632   21.0880 H   0  0  0  0  0  0  0  0  0  0  0  0
    8.7792   -0.5670   21.0844 N   0  0  0  0  0  0  0  0  0  0  0  0
    9.0796   -1.1790   22.1858 C   0  0  0  0  0  0  0  0  0  0  0  0
   10.0124   -1.0854   22.7259 H   0  0  0  0  0  0  0  0  0  0  0  0
    8.0659   -1.9292   22.6646 N   0  0  0  0  0  0  0  0  0  0  0  0
    8.1264   -2.4912   23.5012 H   0  0  0  0  0  0  0  0  0  0  0  0
  1  2  1  0
  2  3  1  0
  3  4  2  0
  3  5  1  0
  5  6  1  0
  6  7  1  0
  5  8  2  3
  8  9  1  0
  8 10  1  0
 10 11  2  0
 10 12  1  0
 12 13  2  0
 13 14  1  0
 14 15  2  0
 15 16  1  0
 15 17  1  0
 17 18  2  0
 18 19  1  0
 18 20  1  0
 20 21  1  0
 20 22  2  0
 22 23  1  0
 13 24  1  0
 24 25  2  0
 25 26  1  0
 25 27  1  0
 27 28  1  0
 27 12  1  0
 22 14  1  0
M  END
>  <cnnaffinity>  (1) 
-4.17408

>  <filename>  (1) 
O=C(O)C(O)=CC(=O)c1[nH]cnc1-c1cccnc1

$$$$
