
     RDKit          3D

 36 37  0  0  0  0  0  0  0  0999 V2000
   12.9000    1.1868   25.5842 H   0  0  0  0  0  0  0  0  0  0  0  0
   13.3812    0.8306   24.8141 O   0  0  0  0  0  0  0  0  0  0  0  0
   12.6583    1.2502   23.6946 N   0  0  0  0  0  0  0  0  0  0  0  0
   12.6536    0.4988   23.0162 H   0  0  0  0  0  0  0  0  0  0  0  0
   12.9034    2.4920   23.0907 C   0  0  0  0  0  0  0  0  0  0  0  0
   13.4789    3.4224   23.6052 O   0  0  0  0  0  0  0  0  0  0  0  0
   12.2662    2.5739   21.7194 C   0  0  0  0  0  0  0  0  0  0  0  0
   12.5537    1.7076   21.1197 H   0  0  0  0  0  0  0  0  0  0  0  0
   12.7115    3.4617   21.2625 H   0  0  0  0  0  0  0  0  0  0  0  0
   10.7409    2.7172   21.6676 C   0  0  0  0  0  0  0  0  0  0  0  0
   10.4892    2.7729   20.6005 H   0  0  0  0  0  0  0  0  0  0  0  0
   10.4501    3.6716   22.1330 H   0  0  0  0  0  0  0  0  0  0  0  0
    9.8842    1.6121   22.2776 C   0  0  0  0  0  0  0  0  0  0  0  0
   10.0997    0.6439   21.7971 H   0  0  0  0  0  0  0  0  0  0  0  0
   10.1017    1.4730   23.3455 H   0  0  0  0  0  0  0  0  0  0  0  0
    8.4041    1.9897   22.0903 C   0  0  0  0  0  0  0  0  0  0  0  0
    8.1758    2.0191   21.0114 H   0  0  0  0  0  0  0  0  0  0  0  0
    8.2430    3.0062   22.4794 H   0  0  0  0  0  0  0  0  0  0  0  0
    7.4123    1.0325   22.7799 C   0  0  0  0  0  0  0  0  0  0  0  0
    6.3889    1.3990   22.6440 H   0  0  0  0  0  0  0  0  0  0  0  0
    7.5968    0.9813   23.8591 H   0  0  0  0  0  0  0  0  0  0  0  0
    7.5604   -0.3526   22.2361 C   0  0  0  0  0  0  0  0  0  0  0  0
    8.1652   -1.3564   22.8262 N   0  0  0  0  0  0  0  0  0  0  0  0
    8.3435   -2.3018   21.8791 N   0  0  0  0  0  0  0  0  0  0  0  0
    7.8766   -1.9216   20.7502 N   0  0  0  0  0  0  0  0  0  0  0  0
    7.3459   -0.6923   20.9351 N   0  0  0  0  0  0  0  0  0  0  0  0
    6.6670   -0.0069   19.8808 C   0  0  0  0  0  0  0  0  0  0  0  0
    7.2047   -0.0043   18.5800 C   0  0  0  0  0  0  0  0  0  0  0  0
    8.1212   -0.5538   18.3734 H   0  0  0  0  0  0  0  0  0  0  0  0
    6.6449    0.6439   17.5550 N   0  0  0  0  0  0  0  0  0  0  0  0
    5.4957    1.3074   17.7786 C   0  0  0  0  0  0  0  0  0  0  0  0
    5.0659    1.8308   16.9264 H   0  0  0  0  0  0  0  0  0  0  0  0
    4.8638    1.3274   19.0247 C   0  0  0  0  0  0  0  0  0  0  0  0
    3.9285    1.8630   19.1450 H   0  0  0  0  0  0  0  0  0  0  0  0
    5.4567    0.6634   20.1042 C   0  0  0  0  0  0  0  0  0  0  0  0
    4.9873    0.6507   21.0879 H   0  0  0  0  0  0  0  0  0  0  0  0
  1  2  1  0
  2  3  1  0
  3  4  1  0
  3  5  1  0
  5  6  2  0
  5  7  1  0
  7  8  1  0
  7  9  1  0
  7 10  1  0
 10 11  1  0
 10 12  1  0
 10 13  1  0
 13 14  1  0
 13 15  1  0
 13 16  1  0
 16 17  1  0
 16 18  1  0
 16 19  1  0
 19 20  1  0
 19 21  1  0
 19 22  1  0
 22 23  2  0
 23 24  1  0
 24 25  2  0
 25 26  1  0
 26 27  1  0
 27 28  2  0
 28 29  1  0
 28 30  1  0
 30 31  2  0
 31 32  1  0
 31 33  1  0
 33 34  1  0
 33 35  2  0
 35 36  1  0
 26 22  1  0
 35 27  1  0
M  END
>  <cnnaffinity>  (1) 
-5.30832

>  <filename>  (1) 
O=C(CCCCCc1nnnn1-c1cccnc1)NO

$$$$
