
     RDKit          3D

 29 31  0  0  0  0  0  0  0  0999 V2000
    4.9244    1.7765   16.9994 H   0  0  0  0  0  0  0  0  0  0  0  0
    5.4063    1.2903   17.8438 C   0  0  0  0  0  0  0  0  0  0  0  0
    6.5699    0.6748   17.5899 N   0  0  0  0  0  0  0  0  0  0  0  0
    7.1739    0.0540   18.6040 C   0  0  0  0  0  0  0  0  0  0  0  0
    8.1195   -0.4338   18.3837 H   0  0  0  0  0  0  0  0  0  0  0  0
    6.6401    0.0000   19.9004 C   0  0  0  0  0  0  0  0  0  0  0  0
    7.4135   -0.7752   20.9107 C   0  0  0  0  0  0  0  0  0  0  0  0
    8.3446   -1.4824   20.6248 O   0  0  0  0  0  0  0  0  0  0  0  0
    6.9955   -0.4934   22.6736 S   0  0  0  0  0  0  0  0  0  0  0  0
    8.0557    0.9334   22.9242 C   0  0  0  0  0  0  0  0  0  0  0  0
    9.4406    0.7638   23.2798 C   0  0  0  0  0  0  0  0  0  0  0  0
    9.8075   -0.2525   23.4290 H   0  0  0  0  0  0  0  0  0  0  0  0
   10.3006    1.7487   23.4048 N   0  0  0  0  0  0  0  0  0  0  0  0
    9.8382    3.0256   23.1783 C   0  0  0  0  0  0  0  0  0  0  0  0
   10.7355    4.1207   23.3285 C   0  0  0  0  0  0  0  0  0  0  0  0
   11.7562    3.8824   23.6112 H   0  0  0  0  0  0  0  0  0  0  0  0
   10.3064    5.4128   23.1142 C   0  0  0  0  0  0  0  0  0  0  0  0
   10.9953    6.2496   23.2235 H   0  0  0  0  0  0  0  0  0  0  0  0
    8.9562    5.6787   22.7377 C   0  0  0  0  0  0  0  0  0  0  0  0
    8.6360    6.7044   22.5666 H   0  0  0  0  0  0  0  0  0  0  0  0
    8.0629    4.6423   22.5841 C   0  0  0  0  0  0  0  0  0  0  0  0
    7.0249    4.8254   22.2943 H   0  0  0  0  0  0  0  0  0  0  0  0
    8.4811    3.3011   22.8029 C   0  0  0  0  0  0  0  0  0  0  0  0
    7.5885    2.2024   22.6738 C   0  0  0  0  0  0  0  0  0  0  0  0
    6.5545    2.3918   22.3723 H   0  0  0  0  0  0  0  0  0  0  0  0
    5.4309    0.6576   20.1633 C   0  0  0  0  0  0  0  0  0  0  0  0
    4.9853    0.6404   21.1629 H   0  0  0  0  0  0  0  0  0  0  0  0
    4.8044    1.3142   19.1067 C   0  0  0  0  0  0  0  0  0  0  0  0
    3.8712    1.8447   19.2576 H   0  0  0  0  0  0  0  0  0  0  0  0
  1  2  1  0
  2  3  2  0
  3  4  1  0
  4  5  1  0
  4  6  2  0
  6  7  1  0
  7  8  2  0
  7  9  1  0
  9 10  1  0
 10 11  2  0
 11 12  1  0
 11 13  1  0
 13 14  2  0
 14 15  1  0
 15 16  1  0
 15 17  2  0
 17 18  1  0
 17 19  1  0
 19 20  1  0
 19 21  2  0
 21 22  1  0
 21 23  1  0
 23 24  2  0
 24 25  1  0
  6 26  1  0
 26 27  1  0
 26 28  2  0
 28 29  1  0
 28  2  1  0
 24 10  1  0
 23 14  1  0
M  END
>  <cnnaffinity>  (1) 
-5.27359

>  <filename>  (1) 
O=C(Sc1cnc2ccccc2c1)c1cccnc1

$$$$
