
     RDKit          3D

 36 38  0  0  0  0  0  0  0  0999 V2000
    5.8999   -2.2875   21.5083 O   0  0  0  0  0  0  0  0  0  0  0  0
    6.8329   -1.5705   21.8076 C   0  0  0  0  0  0  0  0  0  0  0  0
    7.5452   -1.6680   23.1939 C   0  0  0  0  0  0  0  0  0  0  0  0
    7.4331   -0.5266   24.1181 N   0  0  0  0  0  0  0  0  0  0  0  0
    8.1765    0.6096   24.0188 C   0  0  0  0  0  0  0  0  0  0  0  0
    9.1325    0.7086   23.2604 O   0  0  0  0  0  0  0  0  0  0  0  0
    7.7597    1.6891   24.9314 C   0  0  0  0  0  0  0  0  0  0  0  0
    8.7564    2.3150   25.6387 C   0  0  0  0  0  0  0  0  0  0  0  0
    8.5406    3.3257   26.5167 N   0  0  0  0  0  0  0  0  0  0  0  0
    7.3061    3.7353   26.6906 C   0  0  0  0  0  0  0  0  0  0  0  0
    6.2007    3.1724   26.0150 C   0  0  0  0  0  0  0  0  0  0  0  0
    4.8929    3.6756   26.1963 C   0  0  0  0  0  0  0  0  0  0  0  0
    3.8471    3.2245   25.5500 N   0  0  0  0  0  0  0  0  0  0  0  0
    4.0494    2.2196   24.6591 C   0  0  0  0  0  0  0  0  0  0  0  0
    5.2698    1.6437   24.4060 C   0  0  0  0  0  0  0  0  0  0  0  0
    6.4147    2.1212   25.0964 C   0  0  0  0  0  0  0  0  0  0  0  0
    5.3306    0.8601   23.6700 H   0  0  0  0  0  0  0  0  0  0  0  0
    3.1560    1.8967   24.1380 H   0  0  0  0  0  0  0  0  0  0  0  0
    4.7305    4.4953   26.8973 H   0  0  0  0  0  0  0  0  0  0  0  0
    7.1473    4.5726   27.3708 H   0  0  0  0  0  0  0  0  0  0  0  0
    9.7892    2.0020   25.5211 H   0  0  0  0  0  0  0  0  0  0  0  0
    6.8023   -0.5374   24.9082 H   0  0  0  0  0  0  0  0  0  0  0  0
    8.6064   -1.8444   22.9765 H   0  0  0  0  0  0  0  0  0  0  0  0
    7.1519   -2.5573   23.6871 H   0  0  0  0  0  0  0  0  0  0  0  0
    7.4225   -0.6748   20.9320 N   0  0  0  0  0  0  0  0  0  0  0  0
    6.7241   -0.0281   19.8545 C   0  0  0  0  0  0  0  0  0  0  0  0
    5.5014    0.6034   20.1108 C   0  0  0  0  0  0  0  0  0  0  0  0
    4.8544    1.2882   19.0761 C   0  0  0  0  0  0  0  0  0  0  0  0
    5.4391    1.3040   17.8067 C   0  0  0  0  0  0  0  0  0  0  0  0
    6.6065    0.6959   17.5362 N   0  0  0  0  0  0  0  0  0  0  0  0
    7.2297    0.0540   18.5363 C   0  0  0  0  0  0  0  0  0  0  0  0
    8.1767   -0.4144   18.2766 H   0  0  0  0  0  0  0  0  0  0  0  0
    4.9512    1.8161   16.9769 H   0  0  0  0  0  0  0  0  0  0  0  0
    3.9148    1.8022   19.2451 H   0  0  0  0  0  0  0  0  0  0  0  0
    5.0850    0.5625   21.1184 H   0  0  0  0  0  0  0  0  0  0  0  0
    8.2000   -0.1634   21.3296 H   0  0  0  0  0  0  0  0  0  0  0  0
  1  2  2  0
  2  3  1  0
  3  4  1  0
  4  5  1  0
  5  6  2  0
  5  7  1  0
  7  8  2  0
  8  9  1  0
  9 10  2  0
 10 11  1  0
 11 12  2  0
 12 13  1  0
 13 14  2  0
 14 15  1  0
 15 16  2  0
 15 17  1  0
 14 18  1  0
 12 19  1  0
 10 20  1  0
  8 21  1  0
  4 22  1  0
  3 23  1  0
  3 24  1  0
  2 25  1  0
 25 26  1  0
 26 27  2  0
 27 28  1  0
 28 29  2  0
 29 30  1  0
 30 31  2  0
 31 32  1  0
 29 33  1  0
 28 34  1  0
 27 35  1  0
 25 36  1  0
 16  7  1  0
 31 26  1  0
 16 11  1  0
M  END
>  <cnnaffinity>  (1) 
-5.10098

>  <filename>  (1) 
O=C(CNC(=O)c1cncc2cnccc12)Nc1cccnc1

$$$$
