
     RDKit          3D

 36 38  0  0  0  0  0  0  0  0999 V2000
    5.1938    1.8790   16.8368 H   0  0  0  0  0  0  0  0  0  0  0  0
    5.5871    1.3041   17.6733 C   0  0  0  0  0  0  0  0  0  0  0  0
    6.7336    0.6394   17.4537 N   0  0  0  0  0  0  0  0  0  0  0  0
    7.2496   -0.0624   18.4718 C   0  0  0  0  0  0  0  0  0  0  0  0
    8.1794   -0.5904   18.2622 H   0  0  0  0  0  0  0  0  0  0  0  0
    6.6619   -0.1608   19.7687 C   0  0  0  0  0  0  0  0  0  0  0  0
    7.2328   -0.8834   20.7884 N   0  0  0  0  0  0  0  0  0  0  0  0
    6.7745   -1.1757   22.1315 C   0  0  0  0  0  0  0  0  0  0  0  0
    5.9604   -1.9133   22.1596 H   0  0  0  0  0  0  0  0  0  0  0  0
    6.4715   -0.2937   22.7117 H   0  0  0  0  0  0  0  0  0  0  0  0
    8.1886   -1.7781   22.4085 C   0  0  0  0  0  0  0  0  0  0  0  0
    8.1669   -2.8413   22.6304 H   0  0  0  0  0  0  0  0  0  0  0  0
    9.0609   -1.1403   23.4609 C   0  0  0  0  0  0  0  0  0  0  0  0
    9.5239   -1.7408   24.4046 O   0  0  0  0  0  0  0  0  0  0  0  0
    9.2927    0.1654   23.2256 O   0  0  0  0  0  0  0  0  0  0  0  0
   10.5066    0.7689   23.7228 C   0  0  0  0  0  0  0  0  0  0  0  0
   11.3648    0.1010   23.4583 H   0  0  0  0  0  0  0  0  0  0  0  0
   10.6391    2.0650   23.0436 C   0  0  0  0  0  0  0  0  0  0  0  0
    9.6574    2.4869   22.7414 H   0  0  0  0  0  0  0  0  0  0  0  0
   11.1745    1.9640   22.0976 H   0  0  0  0  0  0  0  0  0  0  0  0
   11.3919    3.0156   23.9671 C   0  0  0  0  0  0  0  0  0  0  0  0
   11.1157    4.0733   23.8638 H   0  0  0  0  0  0  0  0  0  0  0  0
   12.4839    2.9094   23.9603 H   0  0  0  0  0  0  0  0  0  0  0  0
   10.2331    1.2908   25.2840 C   0  0  0  0  0  0  0  0  0  0  0  0
    8.8533    2.1196   25.1672 H   0  0  0  0  0  0  0  0  0  0  0  0
   10.8071    2.3882   25.3084 H   0  0  0  0  0  0  0  0  0  0  0  0
   10.4587    1.1650   25.2355 C   0  0  0  0  0  0  0  0  0  0  0  0
   11.5480    0.6680   25.6932 H   0  0  0  0  0  0  0  0  0  0  0  0
    9.7132    0.2529   25.7548 H   0  0  0  0  0  0  0  0  0  0  0  0
    8.5574   -1.4460   20.9355 C   0  0  0  0  0  0  0  0  0  0  0  0
    9.3714   -0.7299   20.7589 H   0  0  0  0  0  0  0  0  0  0  0  0
    8.7429   -2.3365   20.3348 H   0  0  0  0  0  0  0  0  0  0  0  0
    5.4450    0.5290   19.9595 C   0  0  0  0  0  0  0  0  0  0  0  0
    4.9422    0.4834   20.9251 H   0  0  0  0  0  0  0  0  0  0  0  0
    4.9155    1.2722   18.9007 C   0  0  0  0  0  0  0  0  0  0  0  0
    3.9983    1.8394   19.0199 H   0  0  0  0  0  0  0  0  0  0  0  0
  1  2  1  0
  2  3  2  0
  3  4  1  0
  4  5  1  0
  4  6  2  0
  6  7  1  0
  7  8  1  0
  8  9  1  0
  8 10  1  0
  8 11  1  0
 11 12  1  0
 11 13  1  0
 13 14  2  0
 13 15  1  0
 15 16  1  0
 16 17  1  0
 16 18  1  0
 18 19  1  0
 18 20  1  0
 18 21  1  0
 21 22  1  0
 21 23  1  0
 21 24  1  0
 24 25  1  0
 24 26  1  0
 24 27  1  0
 27 28  1  0
 27 29  1  0
 11 30  1  0
 30 31  1  0
 30 32  1  0
  6 33  1  0
 33 34  1  0
 33 35  2  0
 35 36  1  0
 35  2  1  0
 30  7  1  0
 27 16  1  0
M  END
>  <cnnaffinity>  (1) 
-4.6673

>  <filename>  (1) 
O=C(OC1CCCC1)C1CN(c2cccnc2)C1

$$$$
