
     RDKit          3D

 35 37  0  0  0  0  0  0  0  0999 V2000
    7.1319    0.9309   22.6085 O   0  0  0  0  0  0  0  0  0  0  0  0
    7.4007   -0.2030   22.2786 C   0  0  0  0  0  0  0  0  0  0  0  0
    7.7951   -1.2891   23.3227 C   0  0  0  0  0  0  0  0  0  0  0  0
    6.7175   -2.0235   24.0074 N   0  0  0  0  0  0  0  0  0  0  0  0
    5.8830   -2.8876   23.3559 C   0  0  0  0  0  0  0  0  0  0  0  0
    6.1845   -3.3350   22.2556 O   0  0  0  0  0  0  0  0  0  0  0  0
    4.5754   -3.2355   24.0567 C   0  0  0  0  0  0  0  0  0  0  0  0
    3.9478   -4.4329   23.6363 C   0  0  0  0  0  0  0  0  0  0  0  0
    2.7068   -4.8286   24.1149 C   0  0  0  0  0  0  0  0  0  0  0  0
    2.0329   -3.9916   25.0246 C   0  0  0  0  0  0  0  0  0  0  0  0
    0.7645   -4.0029   25.7250 C   0  0  0  0  0  0  0  0  0  0  0  0
    0.7244   -2.8494   26.4273 C   0  0  0  0  0  0  0  0  0  0  0  0
    1.8486   -2.0891   26.2531 O   0  0  0  0  0  0  0  0  0  0  0  0
    2.6494   -2.7903   25.4077 C   0  0  0  0  0  0  0  0  0  0  0  0
    3.9090   -2.3960   24.9702 C   0  0  0  0  0  0  0  0  0  0  0  0
    4.2598   -1.4112   25.2672 H   0  0  0  0  0  0  0  0  0  0  0  0
   -0.0023   -2.4292   27.1087 H   0  0  0  0  0  0  0  0  0  0  0  0
    0.0151   -4.7835   25.7210 H   0  0  0  0  0  0  0  0  0  0  0  0
    2.2608   -5.7501   23.7538 H   0  0  0  0  0  0  0  0  0  0  0  0
    4.4597   -5.0263   22.8836 H   0  0  0  0  0  0  0  0  0  0  0  0
    6.3812   -1.7023   24.8970 H   0  0  0  0  0  0  0  0  0  0  0  0
    8.3897   -0.7595   24.0687 H   0  0  0  0  0  0  0  0  0  0  0  0
    8.4411   -2.0053   22.8151 H   0  0  0  0  0  0  0  0  0  0  0  0
    7.4106   -0.6318   20.9622 N   0  0  0  0  0  0  0  0  0  0  0  0
    6.7024    0.0098   19.8900 C   0  0  0  0  0  0  0  0  0  0  0  0
    5.4785    0.6505   20.1369 C   0  0  0  0  0  0  0  0  0  0  0  0
    4.8187    1.2945   19.0837 C   0  0  0  0  0  0  0  0  0  0  0  0
    5.4055    1.2865   17.8154 C   0  0  0  0  0  0  0  0  0  0  0  0
    6.5652    0.6596   17.5481 N   0  0  0  0  0  0  0  0  0  0  0  0
    7.1902    0.0389   18.5601 C   0  0  0  0  0  0  0  0  0  0  0  0
    8.1389   -0.4404   18.3172 H   0  0  0  0  0  0  0  0  0  0  0  0
    4.9335    1.8075   16.9850 H   0  0  0  0  0  0  0  0  0  0  0  0
    3.8820    1.8219   19.2475 H   0  0  0  0  0  0  0  0  0  0  0  0
    5.0708    0.6549   21.1457 H   0  0  0  0  0  0  0  0  0  0  0  0
    7.6445   -1.6064   20.8430 H   0  0  0  0  0  0  0  0  0  0  0  0
  1  2  2  0
  2  3  1  0
  3  4  1  0
  4  5  1  0
  5  6  2  0
  5  7  1  0
  7  8  2  0
  8  9  1  0
  9 10  2  0
 10 11  1  0
 11 12  2  0
 12 13  1  0
 13 14  1  0
 14 15  2  0
 15 16  1  0
 12 17  1  0
 11 18  1  0
  9 19  1  0
  8 20  1  0
  4 21  1  0
  3 22  1  0
  3 23  1  0
  2 24  1  0
 24 25  1  0
 25 26  2  0
 26 27  1  0
 27 28  2  0
 28 29  1  0
 29 30  2  0
 30 31  1  0
 28 32  1  0
 27 33  1  0
 26 34  1  0
 24 35  1  0
 15  7  1  0
 30 25  1  0
 14 10  1  0
M  END
>  <cnnaffinity>  (1) 
-4.97835

>  <filename>  (1) 
O=C(CNC(=O)c1ccc2ccoc2c1)Nc1cccnc1

$$$$
