
     RDKit          3D

 32 34  0  0  0  0  0  0  0  0999 V2000
    5.0340    1.7931   16.9814 H   0  0  0  0  0  0  0  0  0  0  0  0
    5.4805    1.3074   17.8452 C   0  0  0  0  0  0  0  0  0  0  0  0
    6.6567    0.7020   17.6258 N   0  0  0  0  0  0  0  0  0  0  0  0
    7.2219    0.0723   18.6589 C   0  0  0  0  0  0  0  0  0  0  0  0
    8.1793   -0.4138   18.4811 H   0  0  0  0  0  0  0  0  0  0  0  0
    6.6364   -0.0082   19.9283 C   0  0  0  0  0  0  0  0  0  0  0  0
    7.2518   -0.8981   20.9859 C   0  0  0  0  0  0  0  0  0  0  0  0
    8.5436   -1.2079   20.6605 F   0  0  0  0  0  0  0  0  0  0  0  0
    7.3043   -0.1900   22.1676 F   0  0  0  0  0  0  0  0  0  0  0  0
    6.5022   -2.2864   21.2270 C   0  0  0  0  0  0  0  0  0  0  0  0
    6.1053   -2.9244   20.2692 O   0  0  0  0  0  0  0  0  0  0  0  0
    6.3834   -2.7166   22.5273 N   0  0  0  0  0  0  0  0  0  0  0  0
    6.7299   -2.1089   23.2514 H   0  0  0  0  0  0  0  0  0  0  0  0
    5.5711   -3.8098   22.9238 C   0  0  0  0  0  0  0  0  0  0  0  0
    5.9452   -4.6324   24.0146 C   0  0  0  0  0  0  0  0  0  0  0  0
    6.8604   -4.4085   24.5499 H   0  0  0  0  0  0  0  0  0  0  0  0
    5.1623   -5.7290   24.3768 C   0  0  0  0  0  0  0  0  0  0  0  0
    5.4372   -6.3606   25.2143 H   0  0  0  0  0  0  0  0  0  0  0  0
    3.9887   -6.0217   23.6465 C   0  0  0  0  0  0  0  0  0  0  0  0
    2.9807   -7.0482   23.6659 C   0  0  0  0  0  0  0  0  0  0  0  0
    2.9802   -7.9176   24.3118 H   0  0  0  0  0  0  0  0  0  0  0  0
    2.0607   -6.7204   22.7094 C   0  0  0  0  0  0  0  0  0  0  0  0
    1.1428   -7.2084   22.4180 H   0  0  0  0  0  0  0  0  0  0  0  0
    2.4342   -5.5453   22.0938 N   0  0  0  0  0  0  0  0  0  0  0  0
    1.9755   -5.0772   21.3274 H   0  0  0  0  0  0  0  0  0  0  0  0
    3.6199   -5.1267   22.6172 C   0  0  0  0  0  0  0  0  0  0  0  0
    4.3947   -4.0348   22.2373 C   0  0  0  0  0  0  0  0  0  0  0  0
    4.1122   -3.3646   21.4481 H   0  0  0  0  0  0  0  0  0  0  0  0
    5.4408    0.6863   20.1670 C   0  0  0  0  0  0  0  0  0  0  0  0
    5.0006    0.7292   21.1649 H   0  0  0  0  0  0  0  0  0  0  0  0
    4.8389    1.3338   19.0887 C   0  0  0  0  0  0  0  0  0  0  0  0
    3.9019    1.8679   19.1994 H   0  0  0  0  0  0  0  0  0  0  0  0
  1  2  1  0
  2  3  2  0
  3  4  1  0
  4  5  1  0
  4  6  2  0
  6  7  1  0
  7  8  1  0
  7  9  1  0
  7 10  1  0
 10 11  2  0
 10 12  1  0
 12 13  1  0
 12 14  1  0
 14 15  2  0
 15 16  1  0
 15 17  1  0
 17 18  1  0
 17 19  2  0
 19 20  1  0
 20 21  1  0
 20 22  2  0
 22 23  1  0
 22 24  1  0
 24 25  1  0
 24 26  1  0
 26 27  2  0
 27 28  1  0
  6 29  1  0
 29 30  1  0
 29 31  2  0
 31 32  1  0
 31  2  1  0
 27 14  1  0
 26 19  1  0
M  END
>  <cnnaffinity>  (1) 
-5.34298

>  <filename>  (1) 
O=C(Nc1ccc2cc[nH]c2c1)C(F)(F)c1cccnc1

$$$$
