
     RDKit          3D

 25 26  0  0  0  0  0  0  0  0999 V2000
    5.0274    1.7192   17.0671 H   0  0  0  0  0  0  0  0  0  0  0  0
    5.4794    1.2235   17.9254 C   0  0  0  0  0  0  0  0  0  0  0  0
    6.6523    0.6021   17.7060 N   0  0  0  0  0  0  0  0  0  0  0  0
    7.2432   -0.0144   18.7423 C   0  0  0  0  0  0  0  0  0  0  0  0
    8.2024   -0.5003   18.5577 H   0  0  0  0  0  0  0  0  0  0  0  0
    6.6701   -0.0465   20.0275 C   0  0  0  0  0  0  0  0  0  0  0  0
    7.3763   -0.6176   21.0961 O   0  0  0  0  0  0  0  0  0  0  0  0
    6.8304   -1.6207   21.8419 C   0  0  0  0  0  0  0  0  0  0  0  0
    5.8322   -2.2559   21.5857 O   0  0  0  0  0  0  0  0  0  0  0  0
    7.6277   -1.8061   22.9134 N   0  0  0  0  0  0  0  0  0  0  0  0
    8.3755   -1.1671   23.0677 H   0  0  0  0  0  0  0  0  0  0  0  0
    7.2999   -2.5551   24.0043 C   0  0  0  0  0  0  0  0  0  0  0  0
    7.9705   -2.4655   25.0803 N   0  0  0  0  0  0  0  0  0  0  0  0
    7.3661   -3.4364   25.9917 C   0  0  0  0  0  0  0  0  0  0  0  0
    8.1294   -4.1433   26.3350 H   0  0  0  0  0  0  0  0  0  0  0  0
    6.9886   -2.9275   26.8865 H   0  0  0  0  0  0  0  0  0  0  0  0
    6.2178   -4.1503   25.1936 C   0  0  0  0  0  0  0  0  0  0  0  0
    6.4382   -5.2155   25.0248 H   0  0  0  0  0  0  0  0  0  0  0  0
    5.2427   -4.0594   25.6965 H   0  0  0  0  0  0  0  0  0  0  0  0
    6.2702   -3.4060   23.9389 N   0  0  0  0  0  0  0  0  0  0  0  0
    5.7322   -3.3806   23.0798 H   0  0  0  0  0  0  0  0  0  0  0  0
    5.4503    0.5952   20.2532 C   0  0  0  0  0  0  0  0  0  0  0  0
    5.0114    0.5707   21.2501 H   0  0  0  0  0  0  0  0  0  0  0  0
    4.8481    1.2601   19.1750 C   0  0  0  0  0  0  0  0  0  0  0  0
    3.9080    1.7963   19.3007 H   0  0  0  0  0  0  0  0  0  0  0  0
  1  2  1  0
  2  3  2  0
  3  4  1  0
  4  5  1  0
  4  6  2  0
  6  7  1  0
  7  8  1  0
  8  9  2  0
  8 10  1  0
 10 11  1  0
 10 12  1  0
 12 13  2  0
 13 14  1  0
 14 15  1  0
 14 16  1  0
 14 17  1  0
 17 18  1  0
 17 19  1  0
 17 20  1  0
 20 21  1  0
  6 22  1  0
 22 23  1  0
 22 24  2  0
 24 25  1  0
 24  2  1  0
 20 12  1  0
M  END
>  <cnnaffinity>  (1) 
-4.07732

>  <filename>  (1) 
O=C(NC1=NCCN1)Oc1cccnc1

$$$$
