
     RDKit          3D

 33 35  0  0  0  0  0  0  0  0999 V2000
    4.9448    1.8706   16.8745 H   0  0  0  0  0  0  0  0  0  0  0  0
    5.3895    1.3367   17.7091 C   0  0  0  0  0  0  0  0  0  0  0  0
    6.5262    0.6744   17.4445 N   0  0  0  0  0  0  0  0  0  0  0  0
    7.1104    0.0326   18.4541 C   0  0  0  0  0  0  0  0  0  0  0  0
    8.0200   -0.5210   18.2266 H   0  0  0  0  0  0  0  0  0  0  0  0
    6.6182    0.0574   19.7652 C   0  0  0  0  0  0  0  0  0  0  0  0
    7.4483   -0.6401   20.7801 C   0  0  0  0  0  0  0  0  0  0  0  0
    8.0818   -1.6344   20.4701 O   0  0  0  0  0  0  0  0  0  0  0  0
    7.4883   -0.1039   22.1861 C   0  0  0  0  0  0  0  0  0  0  0  0
    7.4217    1.2665   22.5048 C   0  0  0  0  0  0  0  0  0  0  0  0
    7.3104    2.0159   21.7193 H   0  0  0  0  0  0  0  0  0  0  0  0
    7.4947    1.6743   23.8399 C   0  0  0  0  0  0  0  0  0  0  0  0
    7.4417    2.7334   24.0815 H   0  0  0  0  0  0  0  0  0  0  0  0
    7.6038    0.7246   24.8651 C   0  0  0  0  0  0  0  0  0  0  0  0
    7.6669    1.0458   25.9013 H   0  0  0  0  0  0  0  0  0  0  0  0
    7.6464   -0.6514   24.5687 C   0  0  0  0  0  0  0  0  0  0  0  0
    7.5950   -1.7148   25.6269 C   0  0  0  0  0  0  0  0  0  0  0  0
    8.5227   -2.7773   25.6254 C   0  0  0  0  0  0  0  0  0  0  0  0
    9.3446   -2.7678   24.9107 H   0  0  0  0  0  0  0  0  0  0  0  0
    8.3644   -3.8499   26.5127 C   0  0  0  0  0  0  0  0  0  0  0  0
    9.0800   -4.6678   26.4979 H   0  0  0  0  0  0  0  0  0  0  0  0
    7.2602   -3.8996   27.3704 C   0  0  0  0  0  0  0  0  0  0  0  0
    7.1052   -4.7676   28.0033 H   0  0  0  0  0  0  0  0  0  0  0  0
    6.3418   -2.8441   27.3939 C   0  0  0  0  0  0  0  0  0  0  0  0
    5.4907   -2.8685   28.0803 H   0  0  0  0  0  0  0  0  0  0  0  0
    6.5267   -1.7536   26.5474 C   0  0  0  0  0  0  0  0  0  0  0  0
    5.8009   -0.9440   26.5695 H   0  0  0  0  0  0  0  0  0  0  0  0
    7.6311   -1.0386   23.2229 C   0  0  0  0  0  0  0  0  0  0  0  0
    7.7021   -2.0944   22.9673 H   0  0  0  0  0  0  0  0  0  0  0  0
    5.4021    0.7052   20.0249 C   0  0  0  0  0  0  0  0  0  0  0  0
    4.9656    0.7035   21.0274 H   0  0  0  0  0  0  0  0  0  0  0  0
    4.7765    1.3563   18.9661 C   0  0  0  0  0  0  0  0  0  0  0  0
    3.8441    1.8900   19.1045 H   0  0  0  0  0  0  0  0  0  0  0  0
  1  2  1  0
  2  3  2  0
  3  4  1  0
  4  5  1  0
  4  6  2  0
  6  7  1  0
  7  8  2  0
  7  9  1  0
  9 10  2  0
 10 11  1  0
 10 12  1  0
 12 13  1  0
 12 14  2  0
 14 15  1  0
 14 16  1  0
 16 17  1  0
 17 18  2  0
 18 19  1  0
 18 20  1  0
 20 21  1  0
 20 22  2  0
 22 23  1  0
 22 24  1  0
 24 25  1  0
 24 26  2  0
 26 27  1  0
 16 28  2  0
 28 29  1  0
  6 30  1  0
 30 31  1  0
 30 32  2  0
 32 33  1  0
 32  2  1  0
 28  9  1  0
 26 17  1  0
M  END
>  <cnnaffinity>  (1) 
-4.4717

>  <filename>  (1) 
O=C(c1cccnc1)c1cccc(-c2ccccc2)c1

$$$$
