
     RDKit          3D

 32 33  0  0  0  0  0  0  0  0999 V2000
    6.3217   -1.8910   23.8041 O   0  0  0  0  0  0  0  0  0  0  0  0
    7.1182   -2.7196   23.4537 C   0  0  0  0  0  0  0  0  0  0  0  0
    7.8869   -2.7135   22.2765 N   0  0  0  0  0  0  0  0  0  0  0  0
    7.2788   -2.1434   21.1393 O   0  0  0  0  0  0  0  0  0  0  0  0
    7.4874   -0.7209   21.1639 C   0  0  0  0  0  0  0  0  0  0  0  0
    6.7272   -0.1144   20.0129 C   0  0  0  0  0  0  0  0  0  0  0  0
    5.4970    0.5247   20.2084 C   0  0  0  0  0  0  0  0  0  0  0  0
    4.8915    1.1645   19.1263 C   0  0  0  0  0  0  0  0  0  0  0  0
    5.5251    1.1065   17.8807 C   0  0  0  0  0  0  0  0  0  0  0  0
    6.6600    0.4244   17.6518 N   0  0  0  0  0  0  0  0  0  0  0  0
    7.2272   -0.1834   18.7031 C   0  0  0  0  0  0  0  0  0  0  0  0
    8.1368   -0.7457   18.4923 H   0  0  0  0  0  0  0  0  0  0  0  0
    5.0874    1.6070   17.0227 H   0  0  0  0  0  0  0  0  0  0  0  0
    3.9551    1.7036   19.2341 H   0  0  0  0  0  0  0  0  0  0  0  0
    5.0231    0.5213   21.1954 H   0  0  0  0  0  0  0  0  0  0  0  0
    8.5717   -0.5316   21.1217 H   0  0  0  0  0  0  0  0  0  0  0  0
    7.0992   -0.3443   22.1206 H   0  0  0  0  0  0  0  0  0  0  0  0
    8.0817   -3.6850   22.0604 H   0  0  0  0  0  0  0  0  0  0  0  0
    7.5245   -3.8358   24.1766 N   0  0  0  0  0  0  0  0  0  0  0  0
    6.9531   -4.0796   25.4116 C   0  0  0  0  0  0  0  0  0  0  0  0
    5.6285   -4.1076   25.4946 N   0  0  0  0  0  0  0  0  0  0  0  0
    5.0062   -4.3594   26.6504 N   0  0  0  0  0  0  0  0  0  0  0  0
    5.7247   -4.5566   27.7604 C   0  0  0  0  0  0  0  0  0  0  0  0
    7.1293   -4.5597   27.7472 C   0  0  0  0  0  0  0  0  0  0  0  0
    7.7665   -4.3451   26.5316 C   0  0  0  0  0  0  0  0  0  0  0  0
    9.2532   -4.3433   26.3402 C   0  0  0  0  0  0  0  0  0  0  0  0
    9.6399   -5.2412   25.4008 F   0  0  0  0  0  0  0  0  0  0  0  0
    9.9221   -4.6193   27.4609 F   0  0  0  0  0  0  0  0  0  0  0  0
    9.6743   -3.1408   25.8911 F   0  0  0  0  0  0  0  0  0  0  0  0
    7.6847   -4.7466   28.6639 H   0  0  0  0  0  0  0  0  0  0  0  0
    5.1616   -4.7252   28.6696 H   0  0  0  0  0  0  0  0  0  0  0  0
    8.5296   -3.9118   24.1710 H   0  0  0  0  0  0  0  0  0  0  0  0
  1  2  2  0
  2  3  1  0
  3  4  1  0
  4  5  1  0
  5  6  1  0
  6  7  2  0
  7  8  1  0
  8  9  2  0
  9 10  1  0
 10 11  2  0
 11 12  1  0
  9 13  1  0
  8 14  1  0
  7 15  1  0
  5 16  1  0
  5 17  1  0
  3 18  1  0
  2 19  1  0
 19 20  1  0
 20 21  2  0
 21 22  1  0
 22 23  2  0
 23 24  1  0
 24 25  2  0
 25 26  1  0
 26 27  1  0
 26 28  1  0
 26 29  1  0
 24 30  1  0
 23 31  1  0
 19 32  1  0
 11  6  1  0
 25 20  1  0
M  END
>  <cnnaffinity>  (1) 
-4.95892

>  <filename>  (1) 
O=C(NOCc1cccnc1)Nc1nnccc1C(F)(F)F

$$$$
