
     RDKit          3D

 44 46  0  0  0  0  0  0  0  0999 V2000
    7.9557   -1.9844   24.1354 O   0  0  0  0  0  0  0  0  0  0  0  0
    8.2506   -0.8053   24.0055 C   0  0  0  0  0  0  0  0  0  0  0  0
    9.1423   -0.3173   22.8700 C   0  0  0  0  0  0  0  0  0  0  0  0
    8.3509    0.3166   21.7078 C   0  0  0  0  0  0  0  0  0  0  0  0
    7.4105   -0.6794   21.0084 C   0  0  0  0  0  0  0  0  0  0  0  0
    6.6404   -0.0201   19.8909 C   0  0  0  0  0  0  0  0  0  0  0  0
    5.4300    0.6442   20.1351 C   0  0  0  0  0  0  0  0  0  0  0  0
    4.7933    1.3132   19.0877 C   0  0  0  0  0  0  0  0  0  0  0  0
    5.3910    1.3032   17.8234 C   0  0  0  0  0  0  0  0  0  0  0  0
    6.5539    0.6855   17.5641 N   0  0  0  0  0  0  0  0  0  0  0  0
    7.1544    0.0556   18.5842 C   0  0  0  0  0  0  0  0  0  0  0  0
    8.1078   -0.4194   18.3429 H   0  0  0  0  0  0  0  0  0  0  0  0
    4.9200    1.8056   16.9792 H   0  0  0  0  0  0  0  0  0  0  0  0
    3.8641    1.8516   19.2390 H   0  0  0  0  0  0  0  0  0  0  0  0
    5.0015    0.6404   21.1393 H   0  0  0  0  0  0  0  0  0  0  0  0
    6.7165   -1.1095   21.7425 H   0  0  0  0  0  0  0  0  0  0  0  0
    7.9942   -1.5245   20.6152 H   0  0  0  0  0  0  0  0  0  0  0  0
    9.0484    0.7255   20.9640 H   0  0  0  0  0  0  0  0  0  0  0  0
    7.7628    1.1727   22.0723 H   0  0  0  0  0  0  0  0  0  0  0  0
    9.6695   -1.2076   22.5121 H   0  0  0  0  0  0  0  0  0  0  0  0
    9.9033    0.3810   23.2393 H   0  0  0  0  0  0  0  0  0  0  0  0
    7.7632    0.1541   24.8432 N   0  0  0  0  0  0  0  0  0  0  0  0
    6.8414   -0.1972   25.9205 C   0  0  0  0  0  0  0  0  0  0  0  0
    6.3700    1.0158   26.7402 C   0  0  0  0  0  0  0  0  0  0  0  0
    5.4465    0.6070   27.7980 N   0  0  0  0  0  0  0  0  0  0  0  0
    5.8655    0.1822   29.0555 C   0  0  0  0  0  0  0  0  0  0  0  0
    6.9739    0.3873   29.4898 O   0  0  0  0  0  0  0  0  0  0  0  0
    4.6856   -0.4893   29.6934 C   0  0  0  0  0  0  0  0  0  0  0  0
    4.5464   -1.1646   30.9098 C   0  0  0  0  0  0  0  0  0  0  0  0
    3.2794   -1.6560   31.2472 C   0  0  0  0  0  0  0  0  0  0  0  0
    2.1798   -1.4794   30.3814 C   0  0  0  0  0  0  0  0  0  0  0  0
    2.3311   -0.8169   29.1577 C   0  0  0  0  0  0  0  0  0  0  0  0
    3.6007   -0.3386   28.8246 C   0  0  0  0  0  0  0  0  0  0  0  0
    4.0918    0.3698   27.5981 C   0  0  0  0  0  0  0  0  0  0  0  0
    3.4839    0.7013   26.6060 O   0  0  0  0  0  0  0  0  0  0  0  0
    1.4843   -0.6839   28.4874 H   0  0  0  0  0  0  0  0  0  0  0  0
    1.2052   -1.8714   30.6684 H   0  0  0  0  0  0  0  0  0  0  0  0
    3.1365   -2.1792   32.1912 H   0  0  0  0  0  0  0  0  0  0  0  0
    5.3885   -1.3066   31.5843 H   0  0  0  0  0  0  0  0  0  0  0  0
    5.8544    1.7421   26.1001 H   0  0  0  0  0  0  0  0  0  0  0  0
    7.2226    1.5097   27.2207 H   0  0  0  0  0  0  0  0  0  0  0  0
    5.9606   -0.7069   25.5046 H   0  0  0  0  0  0  0  0  0  0  0  0
    7.3259   -0.9213   26.5909 H   0  0  0  0  0  0  0  0  0  0  0  0
    8.0380    1.1055   24.6645 H   0  0  0  0  0  0  0  0  0  0  0  0
  1  2  2  0
  2  3  1  0
  3  4  1  0
  4  5  1  0
  5  6  1  0
  6  7  2  0
  7  8  1  0
  8  9  2  0
  9 10  1  0
 10 11  2  0
 11 12  1  0
  9 13  1  0
  8 14  1  0
  7 15  1  0
  5 16  1  0
  5 17  1  0
  4 18  1  0
  4 19  1  0
  3 20  1  0
  3 21  1  0
  2 22  1  0
 22 23  1  0
 23 24  1  0
 24 25  1  0
 25 26  1  0
 26 27  2  0
 26 28  1  0
 28 29  2  0
 29 30  1  0
 30 31  2  0
 31 32  1  0
 32 33  2  0
 33 34  1  0
 34 35  2  0
 32 36  1  0
 31 37  1  0
 30 38  1  0
 29 39  1  0
 24 40  1  0
 24 41  1  0
 23 42  1  0
 23 43  1  0
 22 44  1  0
 11  6  1  0
 34 25  1  0
 33 28  1  0
M  END
>  <cnnaffinity>  (1) 
-5.02211

>  <filename>  (1) 
O=C(CCCc1cccnc1)NCCN1C(=O)c2ccccc2C1=O

$$$$
