
     RDKit          3D

 24 25  0  0  0  0  0  0  0  0999 V2000
    8.6491   -0.8197   20.7996 O   0  0  0  0  0  0  0  0  0  0  0  0
    7.4447   -0.7291   20.9552 C   0  0  0  0  0  0  0  0  0  0  0  0
    6.7827   -1.3226   22.0016 N   0  0  0  0  0  0  0  0  0  0  0  0
    7.3655   -2.0735   23.0582 C   0  0  0  0  0  0  0  0  0  0  0  0
    6.9438   -1.9344   24.3980 C   0  0  0  0  0  0  0  0  0  0  0  0
    5.7646   -0.7586   24.8297 Cl  0  0  0  0  0  0  0  0  0  0  0  0
    7.5565   -2.7101   25.3992 C   0  0  0  0  0  0  0  0  0  0  0  0
    7.0994   -2.6337   27.0623 Cl  0  0  0  0  0  0  0  0  0  0  0  0
    8.5926   -3.5682   25.0319 C   0  0  0  0  0  0  0  0  0  0  0  0
    9.0091   -3.7097   23.7713 N   0  0  0  0  0  0  0  0  0  0  0  0
    8.4190   -2.9800   22.8220 C   0  0  0  0  0  0  0  0  0  0  0  0
    8.7817   -3.0823   21.8070 H   0  0  0  0  0  0  0  0  0  0  0  0
    9.1145   -4.1407   25.7928 H   0  0  0  0  0  0  0  0  0  0  0  0
    5.7914   -1.1476   22.0232 H   0  0  0  0  0  0  0  0  0  0  0  0
    6.5892   -0.0124   19.9689 C   0  0  0  0  0  0  0  0  0  0  0  0
    5.3686    0.6457   20.1983 C   0  0  0  0  0  0  0  0  0  0  0  0
    4.7778    1.2960   19.1156 C   0  0  0  0  0  0  0  0  0  0  0  0
    5.4135    1.2582   17.8711 C   0  0  0  0  0  0  0  0  0  0  0  0
    6.5727    0.6237   17.6439 N   0  0  0  0  0  0  0  0  0  0  0  0
    7.1474    0.0279   18.6859 C   0  0  0  0  0  0  0  0  0  0  0  0
    8.1115   -0.4497   18.5102 H   0  0  0  0  0  0  0  0  0  0  0  0
    4.9811    1.7805   17.0231 H   0  0  0  0  0  0  0  0  0  0  0  0
    3.8531    1.8521   19.2329 H   0  0  0  0  0  0  0  0  0  0  0  0
    4.9037    0.7041   21.1882 H   0  0  0  0  0  0  0  0  0  0  0  0
  1  2  2  0
  2  3  1  0
  3  4  1  0
  4  5  2  0
  5  6  1  0
  5  7  1  0
  7  8  1  0
  7  9  2  0
  9 10  1  0
 10 11  2  0
 11 12  1  0
  9 13  1  0
  3 14  1  0
  2 15  1  0
 15 16  2  0
 16 17  1  0
 17 18  2  0
 18 19  1  0
 19 20  2  0
 20 21  1  0
 18 22  1  0
 17 23  1  0
 16 24  1  0
 11  4  1  0
 20 15  1  0
M  END
>  <cnnaffinity>  (1) 
-5.17402

>  <filename>  (1) 
O=C(Nc1cncc(Cl)c1Cl)c1cccnc1

$$$$
