
     RDKit          3D

 28 29  0  0  0  0  0  0  0  0999 V2000
    4.9385    1.8301   16.9648 H   0  0  0  0  0  0  0  0  0  0  0  0
    5.3891    1.2970   17.8016 C   0  0  0  0  0  0  0  0  0  0  0  0
    6.5314    0.6449   17.5453 N   0  0  0  0  0  0  0  0  0  0  0  0
    7.1272    0.0245   18.5738 C   0  0  0  0  0  0  0  0  0  0  0  0
    8.0643   -0.4833   18.3400 H   0  0  0  0  0  0  0  0  0  0  0  0
    6.6376    0.0174   19.8995 C   0  0  0  0  0  0  0  0  0  0  0  0
    7.4420   -0.5889   21.0541 C   0  0  0  0  0  0  0  0  0  0  0  0
    7.9804   -1.4908   20.7457 H   0  0  0  0  0  0  0  0  0  0  0  0
    6.7784   -0.8611   21.8866 H   0  0  0  0  0  0  0  0  0  0  0  0
    8.5171    0.3538   21.6054 C   0  0  0  0  0  0  0  0  0  0  0  0
    9.6769    0.3126   21.2480 O   0  0  0  0  0  0  0  0  0  0  0  0
    8.0401    1.2499   22.5283 N   0  0  0  0  0  0  0  0  0  0  0  0
    7.1355    1.0755   22.9319 H   0  0  0  0  0  0  0  0  0  0  0  0
    8.7705    2.3138   23.0683 C   0  0  0  0  0  0  0  0  0  0  0  0
    9.6825    3.0047   22.2658 C   0  0  0  0  0  0  0  0  0  0  0  0
    9.7833    2.7160   21.2281 H   0  0  0  0  0  0  0  0  0  0  0  0
   10.4314    4.0575   22.7871 C   0  0  0  0  0  0  0  0  0  0  0  0
   11.1599    4.5196   22.1331 H   0  0  0  0  0  0  0  0  0  0  0  0
   10.2456    4.4768   24.1048 C   0  0  0  0  0  0  0  0  0  0  0  0
   10.8003    5.3250   24.4978 H   0  0  0  0  0  0  0  0  0  0  0  0
    9.3236    3.8074   24.9098 C   0  0  0  0  0  0  0  0  0  0  0  0
    9.1649    4.1094   25.9376 H   0  0  0  0  0  0  0  0  0  0  0  0
    8.5933    2.7306   24.3987 C   0  0  0  0  0  0  0  0  0  0  0  0
    7.4845    1.8917   25.4488 Cl  0  0  0  0  0  0  0  0  0  0  0  0
    5.4184    0.6699   20.1231 C   0  0  0  0  0  0  0  0  0  0  0  0
    4.9579    0.6820   21.1136 H   0  0  0  0  0  0  0  0  0  0  0  0
    4.7861    1.3226   19.0601 C   0  0  0  0  0  0  0  0  0  0  0  0
    3.8591    1.8625   19.1978 H   0  0  0  0  0  0  0  0  0  0  0  0
  1  2  1  0
  2  3  2  0
  3  4  1  0
  4  5  1  0
  4  6  2  0
  6  7  1  0
  7  8  1  0
  7  9  1  0
  7 10  1  0
 10 11  2  0
 10 12  1  0
 12 13  1  0
 12 14  1  0
 14 15  2  0
 15 16  1  0
 15 17  1  0
 17 18  1  0
 17 19  2  0
 19 20  1  0
 19 21  1  0
 21 22  1  0
 21 23  2  0
 23 24  1  0
  6 25  1  0
 25 26  1  0
 25 27  2  0
 27 28  1  0
 27  2  1  0
 23 14  1  0
M  END
>  <cnnaffinity>  (1) 
-4.36632

>  <filename>  (1) 
O=C(Cc1cccnc1)Nc1ccccc1Cl

$$$$
