
     RDKit          3D

 40 42  0  0  0  0  0  0  0  0999 V2000
    5.8399   -2.3126   21.4525 O   0  0  0  0  0  0  0  0  0  0  0  0
    6.8049   -1.6394   21.7555 C   0  0  0  0  0  0  0  0  0  0  0  0
    7.5571   -1.8076   23.1163 C   0  0  0  0  0  0  0  0  0  0  0  0
    7.2491   -0.8671   24.2140 N   0  0  0  0  0  0  0  0  0  0  0  0
    7.6997    0.4139   24.2779 C   0  0  0  0  0  0  0  0  0  0  0  0
    8.4307    0.8701   23.3989 O   0  0  0  0  0  0  0  0  0  0  0  0
    7.2229    1.3047   25.5074 C   0  0  0  0  0  0  0  0  0  0  0  0
    7.6308    2.6415   25.5693 C   0  0  0  0  0  0  0  0  0  0  0  0
    7.1655    3.3900   26.6459 C   0  0  0  0  0  0  0  0  0  0  0  0
    6.3686    2.8880   27.5827 N   0  0  0  0  0  0  0  0  0  0  0  0
    6.0193    1.6028   27.4663 C   0  0  0  0  0  0  0  0  0  0  0  0
    5.1109    1.0420   28.5187 C   0  0  0  0  0  0  0  0  0  0  0  0
    4.6857   -0.2976   28.4460 C   0  0  0  0  0  0  0  0  0  0  0  0
    3.8518   -0.8360   29.4263 C   0  0  0  0  0  0  0  0  0  0  0  0
    3.4216   -0.0482   30.4965 C   0  0  0  0  0  0  0  0  0  0  0  0
    3.8289    1.2869   30.5804 C   0  0  0  0  0  0  0  0  0  0  0  0
    4.6634    1.8315   29.6043 C   0  0  0  0  0  0  0  0  0  0  0  0
    4.9747    2.8709   29.6815 H   0  0  0  0  0  0  0  0  0  0  0  0
    3.4998    1.9051   31.4113 H   0  0  0  0  0  0  0  0  0  0  0  0
    2.7760   -0.4688   31.2629 H   0  0  0  0  0  0  0  0  0  0  0  0
    3.5426   -1.8747   29.3575 H   0  0  0  0  0  0  0  0  0  0  0  0
    5.0186   -0.9144   27.6155 H   0  0  0  0  0  0  0  0  0  0  0  0
    6.4254    0.7954   26.4644 N   0  0  0  0  0  0  0  0  0  0  0  0
    7.4315    4.4391   26.7646 H   0  0  0  0  0  0  0  0  0  0  0  0
    8.2648    3.0799   24.8106 H   0  0  0  0  0  0  0  0  0  0  0  0
    6.6608   -1.1625   24.9823 H   0  0  0  0  0  0  0  0  0  0  0  0
    7.3098   -2.8064   23.4737 H   0  0  0  0  0  0  0  0  0  0  0  0
    8.6330   -1.7907   22.8949 H   0  0  0  0  0  0  0  0  0  0  0  0
    7.4009   -0.7142   20.9123 N   0  0  0  0  0  0  0  0  0  0  0  0
    6.7093   -0.0474   19.8396 C   0  0  0  0  0  0  0  0  0  0  0  0
    5.4945    0.5955   20.1021 C   0  0  0  0  0  0  0  0  0  0  0  0
    4.8560    1.2873   19.0659 C   0  0  0  0  0  0  0  0  0  0  0  0
    5.4478    1.3092   17.7995 C   0  0  0  0  0  0  0  0  0  0  0  0
    6.6152    0.7018   17.5271 N   0  0  0  0  0  0  0  0  0  0  0  0
    7.2263    0.0468   18.5258 C   0  0  0  0  0  0  0  0  0  0  0  0
    8.1787   -0.4167   18.2793 H   0  0  0  0  0  0  0  0  0  0  0  0
    4.9645    1.8201   16.9679 H   0  0  0  0  0  0  0  0  0  0  0  0
    3.9194    1.8083   19.2287 H   0  0  0  0  0  0  0  0  0  0  0  0
    5.0818    0.5632   21.1117 H   0  0  0  0  0  0  0  0  0  0  0  0
    8.0922   -0.1407   21.3907 H   0  0  0  0  0  0  0  0  0  0  0  0
  1  2  2  0
  2  3  1  0
  3  4  1  0
  4  5  1  0
  5  6  2  0
  5  7  1  0
  7  8  2  0
  8  9  1  0
  9 10  2  0
 10 11  1  0
 11 12  1  0
 12 13  2  0
 13 14  1  0
 14 15  2  0
 15 16  1  0
 16 17  2  0
 17 18  1  0
 16 19  1  0
 15 20  1  0
 14 21  1  0
 13 22  1  0
 11 23  2  0
  9 24  1  0
  8 25  1  0
  4 26  1  0
  3 27  1  0
  3 28  1  0
  2 29  1  0
 29 30  1  0
 30 31  2  0
 31 32  1  0
 32 33  2  0
 33 34  1  0
 34 35  2  0
 35 36  1  0
 33 37  1  0
 32 38  1  0
 31 39  1  0
 29 40  1  0
 23  7  1  0
 35 30  1  0
 17 12  1  0
M  END
>  <cnnaffinity>  (1) 
-5.28473

>  <filename>  (1) 
O=C(CNC(=O)c1ccnc(-c2ccccc2)n1)Nc1cccnc1

$$$$
