
     RDKit          3D

 39 42  0  0  0  0  0  0  0  0999 V2000
    7.4007   -3.7589   24.6337 O   0  0  0  0  0  0  0  0  0  0  0  0
    6.6805   -2.7839   24.5267 C   0  0  0  0  0  0  0  0  0  0  0  0
    7.2996   -1.4032   24.4884 C   0  0  0  0  0  0  0  0  0  0  0  0
    7.7761   -1.2463   23.0840 C   0  0  0  0  0  0  0  0  0  0  0  0
    8.8773   -1.8201   22.5363 C   0  0  0  0  0  0  0  0  0  0  0  0
    8.8748   -1.5722   20.8327 S   0  0  0  0  0  0  0  0  0  0  0  0
    7.3759   -0.6866   20.9926 C   0  0  0  0  0  0  0  0  0  0  0  0
    6.6552   -0.0610   19.8827 C   0  0  0  0  0  0  0  0  0  0  0  0
    5.4325    0.6012   20.0988 C   0  0  0  0  0  0  0  0  0  0  0  0
    4.8621    1.2869   19.0324 C   0  0  0  0  0  0  0  0  0  0  0  0
    5.5042    1.2656   17.7898 C   0  0  0  0  0  0  0  0  0  0  0  0
    6.6404    0.5892   17.5614 N   0  0  0  0  0  0  0  0  0  0  0  0
    7.1954   -0.0560   18.5906 C   0  0  0  0  0  0  0  0  0  0  0  0
    8.1239   -0.5849   18.3733 H   0  0  0  0  0  0  0  0  0  0  0  0
    5.0919    1.8164   16.9457 H   0  0  0  0  0  0  0  0  0  0  0  0
    3.9529    1.8607   19.1604 H   0  0  0  0  0  0  0  0  0  0  0  0
    4.9708    0.5837   21.0880 H   0  0  0  0  0  0  0  0  0  0  0  0
    6.9386   -0.6207   22.2163 N   0  0  0  0  0  0  0  0  0  0  0  0
    9.6282   -2.4012   23.0571 H   0  0  0  0  0  0  0  0  0  0  0  0
    8.1376   -1.4071   25.1870 H   0  0  0  0  0  0  0  0  0  0  0  0
    6.6008   -0.6055   24.7391 H   0  0  0  0  0  0  0  0  0  0  0  0
    5.3226   -2.8427   24.3659 N   0  0  0  0  0  0  0  0  0  0  0  0
    4.5080   -4.0058   24.2828 C   0  0  0  0  0  0  0  0  0  0  0  0
    3.0604   -3.9227   24.4955 C   0  0  0  0  0  0  0  0  0  0  0  0
    2.4898   -2.7220   24.8302 N   0  0  0  0  0  0  0  0  0  0  0  0
    1.1900   -2.6849   25.0420 C   0  0  0  0  0  0  0  0  0  0  0  0
    0.3257   -3.8066   24.8982 C   0  0  0  0  0  0  0  0  0  0  0  0
    0.8596   -5.0176   24.5284 C   0  0  0  0  0  0  0  0  0  0  0  0
    2.2698   -5.1190   24.3317 C   0  0  0  0  0  0  0  0  0  0  0  0
    2.9080   -6.3536   24.0000 C   0  0  0  0  0  0  0  0  0  0  0  0
    4.2717   -6.3701   23.8431 C   0  0  0  0  0  0  0  0  0  0  0  0
    5.0808   -7.8688   23.4988 Cl  0  0  0  0  0  0  0  0  0  0  0  0
    5.0833   -5.2192   23.9710 C   0  0  0  0  0  0  0  0  0  0  0  0
    6.1561   -5.2897   23.8295 H   0  0  0  0  0  0  0  0  0  0  0  0
    2.3453   -7.2805   23.8952 H   0  0  0  0  0  0  0  0  0  0  0  0
    0.2249   -5.8950   24.3753 H   0  0  0  0  0  0  0  0  0  0  0  0
   -0.7341   -3.6818   25.0908 H   0  0  0  0  0  0  0  0  0  0  0  0
    0.7757   -1.7262   25.3508 H   0  0  0  0  0  0  0  0  0  0  0  0
    4.8155   -1.9672   24.3570 H   0  0  0  0  0  0  0  0  0  0  0  0
  1  2  2  0
  2  3  1  0
  3  4  1  0
  4  5  2  0
  5  6  1  0
  6  7  1  0
  7  8  1  0
  8  9  2  0
  9 10  1  0
 10 11  2  0
 11 12  1  0
 12 13  2  0
 13 14  1  0
 11 15  1  0
 10 16  1  0
  9 17  1  0
  7 18  2  0
  5 19  1  0
  3 20  1  0
  3 21  1  0
  2 22  1  0
 22 23  1  0
 23 24  1  0
 24 25  2  0
 25 26  1  0
 26 27  2  0
 27 28  1  0
 28 29  2  0
 29 30  1  0
 30 31  2  0
 31 32  1  0
 31 33  1  0
 33 34  1  0
 30 35  1  0
 28 36  1  0
 27 37  1  0
 26 38  1  0
 22 39  1  0
 18  4  1  0
 33 23  2  0
 13  8  1  0
 29 24  1  0
M  END
>  <cnnaffinity>  (1) 
-5.94748

>  <filename>  (1) 
O=C(Cc1csc(-c2cccnc2)n1)Nc1cc(Cl)cc2cccnc12

$$$$
