
     RDKit          3D

 33 34  0  0  0  0  0  0  0  0999 V2000
    4.8856    0.9410   24.0729 O   0  0  0  0  0  0  0  0  0  0  0  0
    5.7912    0.6480   24.8425 C   0  0  0  0  0  0  0  0  0  0  0  0
    7.0753    0.4642   24.4012 N   0  0  0  0  0  0  0  0  0  0  0  0
    7.4206    0.5680   22.9841 C   0  0  0  0  0  0  0  0  0  0  0  0
    7.0775   -0.7222   22.2169 C   0  0  0  0  0  0  0  0  0  0  0  0
    7.4394   -0.6662   20.8390 O   0  0  0  0  0  0  0  0  0  0  0  0
    6.6642    0.0017   19.9380 C   0  0  0  0  0  0  0  0  0  0  0  0
    5.4459    0.6419   20.1998 C   0  0  0  0  0  0  0  0  0  0  0  0
    4.8136    1.2937   19.1252 C   0  0  0  0  0  0  0  0  0  0  0  0
    5.4068    1.2817   17.8612 C   0  0  0  0  0  0  0  0  0  0  0  0
    6.5705    0.6583   17.5985 N   0  0  0  0  0  0  0  0  0  0  0  0
    7.1722    0.0419   18.6178 C   0  0  0  0  0  0  0  0  0  0  0  0
    8.1224   -0.4507   18.4189 H   0  0  0  0  0  0  0  0  0  0  0  0
    4.9407    1.7916   17.0226 H   0  0  0  0  0  0  0  0  0  0  0  0
    3.8776    1.8265   19.2638 H   0  0  0  0  0  0  0  0  0  0  0  0
    5.0136    0.6524   21.2058 H   0  0  0  0  0  0  0  0  0  0  0  0
    7.6535   -1.5622   22.6129 H   0  0  0  0  0  0  0  0  0  0  0  0
    6.0128   -0.9557   22.3170 H   0  0  0  0  0  0  0  0  0  0  0  0
    6.8725    1.4035   22.5302 H   0  0  0  0  0  0  0  0  0  0  0  0
    8.4913    0.7828   22.8832 H   0  0  0  0  0  0  0  0  0  0  0  0
    7.7979    0.4575   25.1077 H   0  0  0  0  0  0  0  0  0  0  0  0
    5.5346    0.4586   26.3535 C   0  0  0  0  0  0  0  0  0  0  0  0
    6.5351    0.8797   27.1484 N   0  0  0  0  0  0  0  0  0  0  0  0
    6.4312    0.9262   28.4704 N   0  0  0  0  0  0  0  0  0  0  0  0
    5.3150    0.4875   29.0640 C   0  0  0  0  0  0  0  0  0  0  0  0
    4.2472   -0.0387   28.3281 C   0  0  0  0  0  0  0  0  0  0  0  0
    4.3509   -0.0760   26.9405 C   0  0  0  0  0  0  0  0  0  0  0  0
    3.2438   -0.6783   26.0931 C   0  0  0  0  0  0  0  0  0  0  0  0
    2.5645    0.2583   25.4246 F   0  0  0  0  0  0  0  0  0  0  0  0
    2.3482   -1.3538   26.8385 F   0  0  0  0  0  0  0  0  0  0  0  0
    3.7509   -1.5487   25.2102 F   0  0  0  0  0  0  0  0  0  0  0  0
    3.3627   -0.4208   28.8291 H   0  0  0  0  0  0  0  0  0  0  0  0
    5.3012    0.5523   30.1449 H   0  0  0  0  0  0  0  0  0  0  0  0
  1  2  2  0
  2  3  1  0
  3  4  1  0
  4  5  1  0
  5  6  1  0
  6  7  1  0
  7  8  2  0
  8  9  1  0
  9 10  2  0
 10 11  1  0
 11 12  2  0
 12 13  1  0
 10 14  1  0
  9 15  1  0
  8 16  1  0
  5 17  1  0
  5 18  1  0
  4 19  1  0
  4 20  1  0
  3 21  1  0
  2 22  1  0
 22 23  2  0
 23 24  1  0
 24 25  2  0
 25 26  1  0
 26 27  2  0
 27 28  1  0
 28 29  1  0
 28 30  1  0
 28 31  1  0
 26 32  1  0
 25 33  1  0
 12  7  1  0
 27 22  1  0
M  END
>  <cnnaffinity>  (1) 
-4.4839

>  <filename>  (1) 
O=C(NCCOc1cccnc1)c1nnccc1C(F)(F)F

$$$$
