
     RDKit          3D

 37 39  0  0  0  0  0  0  0  0999 V2000
    8.7805    0.8330   24.3471 O   0  0  0  0  0  0  0  0  0  0  0  0
    7.9157   -0.0187   24.2180 C   0  0  0  0  0  0  0  0  0  0  0  0
    7.1778   -0.5436   25.4011 C   0  0  0  0  0  0  0  0  0  0  0  0
    5.7888   -0.5729   25.5241 C   0  0  0  0  0  0  0  0  0  0  0  0
    5.2509   -1.0873   26.7087 C   0  0  0  0  0  0  0  0  0  0  0  0
    3.7820   -1.1469   26.9717 C   0  0  0  0  0  0  0  0  0  0  0  0
    3.4448   -2.2325   27.6968 F   0  0  0  0  0  0  0  0  0  0  0  0
    3.0711   -1.1818   25.8316 F   0  0  0  0  0  0  0  0  0  0  0  0
    3.3543   -0.0785   27.6690 F   0  0  0  0  0  0  0  0  0  0  0  0
    6.1170   -1.5333   27.7013 C   0  0  0  0  0  0  0  0  0  0  0  0
    7.4425   -1.4961   27.5747 N   0  0  0  0  0  0  0  0  0  0  0  0
    7.9657   -0.9817   26.4616 C   0  0  0  0  0  0  0  0  0  0  0  0
    9.0499   -0.9234   26.4111 H   0  0  0  0  0  0  0  0  0  0  0  0
    5.7266   -1.9282   28.6373 H   0  0  0  0  0  0  0  0  0  0  0  0
    5.1565   -0.1837   24.7279 H   0  0  0  0  0  0  0  0  0  0  0  0
    7.5883   -0.5638   23.0049 N   0  0  0  0  0  0  0  0  0  0  0  0
    7.1298   -1.9305   22.7580 C   0  0  0  0  0  0  0  0  0  0  0  0
    6.5476   -1.8427   21.3517 C   0  0  0  0  0  0  0  0  0  0  0  0
    7.4209   -0.7958   20.6278 C   0  0  0  0  0  0  0  0  0  0  0  0
    6.6945   -0.0716   19.5062 C   0  0  0  0  0  0  0  0  0  0  0  0
    5.5032    0.6088   19.7988 C   0  0  0  0  0  0  0  0  0  0  0  0
    4.8654    1.3424   18.8029 C   0  0  0  0  0  0  0  0  0  0  0  0
    5.4373    1.3759   17.5289 C   0  0  0  0  0  0  0  0  0  0  0  0
    6.5601    0.7163   17.2116 N   0  0  0  0  0  0  0  0  0  0  0  0
    7.1640    0.0166   18.1837 C   0  0  0  0  0  0  0  0  0  0  0  0
    8.0849   -0.4880   17.8889 H   0  0  0  0  0  0  0  0  0  0  0  0
    4.9729    1.9558   16.7342 H   0  0  0  0  0  0  0  0  0  0  0  0
    3.9635    1.9048   19.0097 H   0  0  0  0  0  0  0  0  0  0  0  0
    5.0968    0.5831   20.8122 H   0  0  0  0  0  0  0  0  0  0  0  0
    7.8568    0.1619   21.7678 C   0  0  0  0  0  0  0  0  0  0  0  0
    8.9124    0.4442   21.7078 H   0  0  0  0  0  0  0  0  0  0  0  0
    7.2847    1.1010   21.7556 H   0  0  0  0  0  0  0  0  0  0  0  0
    8.3177   -1.2972   20.2398 H   0  0  0  0  0  0  0  0  0  0  0  0
    5.5172   -1.4869   21.4200 H   0  0  0  0  0  0  0  0  0  0  0  0
    6.5235   -2.8098   20.8420 H   0  0  0  0  0  0  0  0  0  0  0  0
    7.9674   -2.6417   22.8004 H   0  0  0  0  0  0  0  0  0  0  0  0
    6.3933   -2.2348   23.5094 H   0  0  0  0  0  0  0  0  0  0  0  0
  1  2  2  0
  2  3  1  0
  3  4  2  0
  4  5  1  0
  5  6  1  0
  6  7  1  0
  6  8  1  0
  6  9  1  0
  5 10  2  0
 10 11  1  0
 11 12  2  0
 12 13  1  0
 10 14  1  0
  4 15  1  0
  2 16  1  0
 16 17  1  0
 17 18  1  0
 18 19  1  0
 19 20  1  0
 20 21  2  0
 21 22  1  0
 22 23  2  0
 23 24  1  0
 24 25  2  0
 25 26  1  0
 23 27  1  0
 22 28  1  0
 21 29  1  0
 19 30  1  0
 30 31  1  0
 30 32  1  0
 19 33  1  0
 18 34  1  0
 18 35  1  0
 17 36  1  0
 17 37  1  0
 12  3  1  0
 30 16  1  0
 25 20  1  0
M  END
>  <cnnaffinity>  (1) 
-5.12822

>  <filename>  (1) 
O=C(c1cncc(C(F)(F)F)c1)N1CCC(c2cccnc2)C1

$$$$
