
     RDKit          3D

 43 44  0  0  0  0  0  0  0  0999 V2000
    8.4965   -0.4108   23.0692 O   0  0  0  0  0  0  0  0  0  0  0  0
    8.1394    0.1488   22.0288 C   0  0  0  0  0  0  0  0  0  0  0  0
    8.3800    1.4750   21.7996 N   0  0  0  0  0  0  0  0  0  0  0  0
    9.0113    2.3295   22.8081 C   0  0  0  0  0  0  0  0  0  0  0  0
    8.1098    2.8114   23.9799 C   0  0  0  0  0  0  0  0  0  0  0  0
    7.6870    1.7161   24.7804 O   0  0  0  0  0  0  0  0  0  0  0  0
    8.0620    0.8950   24.3999 H   0  0  0  0  0  0  0  0  0  0  0  0
    6.9248    3.6508   23.4722 C   0  0  0  0  0  0  0  0  0  0  0  0
    5.7781    2.9990   22.9965 C   0  0  0  0  0  0  0  0  0  0  0  0
    4.7281    3.7052   22.4047 C   0  0  0  0  0  0  0  0  0  0  0  0
    4.7867    5.0941   22.3188 C   0  0  0  0  0  0  0  0  0  0  0  0
    5.8969    5.7703   22.8233 C   0  0  0  0  0  0  0  0  0  0  0  0
    6.9711    5.0641   23.3930 C   0  0  0  0  0  0  0  0  0  0  0  0
    8.1692    5.8266   23.9241 C   0  0  0  0  0  0  0  0  0  0  0  0
    8.3529    5.6073   25.2478 F   0  0  0  0  0  0  0  0  0  0  0  0
    9.3208    5.4500   23.3173 F   0  0  0  0  0  0  0  0  0  0  0  0
    8.0748    7.1557   23.7700 F   0  0  0  0  0  0  0  0  0  0  0  0
    5.9305    6.8549   22.7758 H   0  0  0  0  0  0  0  0  0  0  0  0
    3.9722    5.6545   21.8681 H   0  0  0  0  0  0  0  0  0  0  0  0
    3.8669    3.1746   22.0101 H   0  0  0  0  0  0  0  0  0  0  0  0
    5.7169    1.9205   23.1017 H   0  0  0  0  0  0  0  0  0  0  0  0
    8.7170    3.4463   24.6303 H   0  0  0  0  0  0  0  0  0  0  0  0
    9.8336    1.7609   23.2597 H   0  0  0  0  0  0  0  0  0  0  0  0
    9.4454    3.1954   22.3010 H   0  0  0  0  0  0  0  0  0  0  0  0
    7.7197    1.9085   21.1683 H   0  0  0  0  0  0  0  0  0  0  0  0
    7.5204   -0.5641   20.9909 N   0  0  0  0  0  0  0  0  0  0  0  0
    7.4905   -2.0342   21.0588 C   0  0  0  0  0  0  0  0  0  0  0  0
    6.4944   -2.6124   22.0506 C   0  0  0  0  0  0  0  0  0  0  0  0
    5.2333   -2.3333   21.6279 F   0  0  0  0  0  0  0  0  0  0  0  0
    6.6346   -3.9702   22.0547 F   0  0  0  0  0  0  0  0  0  0  0  0
    6.6410   -2.2434   23.0667 H   0  0  0  0  0  0  0  0  0  0  0  0
    7.1883   -2.4207   20.0801 H   0  0  0  0  0  0  0  0  0  0  0  0
    8.4746   -2.4355   21.3234 H   0  0  0  0  0  0  0  0  0  0  0  0
    6.7573    0.0449   19.9261 C   0  0  0  0  0  0  0  0  0  0  0  0
    5.5152    0.6282   20.1810 C   0  0  0  0  0  0  0  0  0  0  0  0
    4.8490    1.2858   19.1367 C   0  0  0  0  0  0  0  0  0  0  0  0
    5.4345    1.2937   17.8668 C   0  0  0  0  0  0  0  0  0  0  0  0
    6.5975    0.6823   17.5896 N   0  0  0  0  0  0  0  0  0  0  0  0
    7.2282    0.0607   18.5959 C   0  0  0  0  0  0  0  0  0  0  0  0
    8.1683   -0.4394   18.3622 H   0  0  0  0  0  0  0  0  0  0  0  0
    4.9496    1.7948   17.0323 H   0  0  0  0  0  0  0  0  0  0  0  0
    3.9060    1.7965   19.2968 H   0  0  0  0  0  0  0  0  0  0  0  0
    5.0925    0.5326   21.1815 H   0  0  0  0  0  0  0  0  0  0  0  0
  1  2  2  0
  2  3  1  0
  3  4  1  0
  4  5  1  0
  5  6  1  0
  6  7  1  0
  5  8  1  0
  8  9  2  0
  9 10  1  0
 10 11  2  0
 11 12  1  0
 12 13  2  0
 13 14  1  0
 14 15  1  0
 14 16  1  0
 14 17  1  0
 12 18  1  0
 11 19  1  0
 10 20  1  0
  9 21  1  0
  5 22  1  0
  4 23  1  0
  4 24  1  0
  3 25  1  0
  2 26  1  0
 26 27  1  0
 27 28  1  0
 28 29  1  0
 28 30  1  0
 28 31  1  0
 27 32  1  0
 27 33  1  0
 26 34  1  0
 34 35  2  0
 35 36  1  0
 36 37  2  0
 37 38  1  0
 38 39  2  0
 39 40  1  0
 37 41  1  0
 36 42  1  0
 35 43  1  0
 13  8  1  0
 39 34  1  0
M  END
>  <cnnaffinity>  (1) 
-4.92785

>  <filename>  (1) 
O=C(NCC(O)c1ccccc1C(F)(F)F)N(CC(F)F)c1cccnc1

$$$$
