
     RDKit          3D

 26 27  0  0  0  0  0  0  0  0999 V2000
    4.9138    1.8001   16.9773 H   0  0  0  0  0  0  0  0  0  0  0  0
    5.3862    1.3021   17.8202 C   0  0  0  0  0  0  0  0  0  0  0  0
    6.5489    0.6830   17.5530 N   0  0  0  0  0  0  0  0  0  0  0  0
    7.1567    0.0675   18.5740 C   0  0  0  0  0  0  0  0  0  0  0  0
    8.1144   -0.3958   18.3395 H   0  0  0  0  0  0  0  0  0  0  0  0
    6.6537    0.0137   19.8892 C   0  0  0  0  0  0  0  0  0  0  0  0
    7.3867   -0.6705   20.9695 C   0  0  0  0  0  0  0  0  0  0  0  0
    7.7355   -0.2455   22.2373 C   0  0  0  0  0  0  0  0  0  0  0  0
    7.5867    1.1593   22.7699 C   0  0  0  0  0  0  0  0  0  0  0  0
    7.6345    1.1573   23.8604 H   0  0  0  0  0  0  0  0  0  0  0  0
    6.6136    1.5864   22.4960 H   0  0  0  0  0  0  0  0  0  0  0  0
    8.6395    2.0745   22.1403 C   0  0  0  0  0  0  0  0  0  0  0  0
    8.6015    2.3753   20.9720 O   0  0  0  0  0  0  0  0  0  0  0  0
    9.8024    2.5473   23.1005 C   0  0  0  0  0  0  0  0  0  0  0  0
   10.7291    3.2715   22.4826 F   0  0  0  0  0  0  0  0  0  0  0  0
    9.2923    3.2808   24.1106 F   0  0  0  0  0  0  0  0  0  0  0  0
   10.4088    1.4835   23.6646 F   0  0  0  0  0  0  0  0  0  0  0  0
    8.4604   -1.3301   22.7837 C   0  0  0  0  0  0  0  0  0  0  0  0
    8.9546   -1.3594   23.7462 H   0  0  0  0  0  0  0  0  0  0  0  0
    8.5520   -2.3526   21.9412 N   0  0  0  0  0  0  0  0  0  0  0  0
    7.8992   -1.9199   20.8489 N   0  0  0  0  0  0  0  0  0  0  0  0
    7.7827   -2.5304   20.0531 H   0  0  0  0  0  0  0  0  0  0  0  0
    5.4352    0.6590   20.1401 C   0  0  0  0  0  0  0  0  0  0  0  0
    5.0150    0.6333   21.1485 H   0  0  0  0  0  0  0  0  0  0  0  0
    4.7937    1.3156   19.0890 C   0  0  0  0  0  0  0  0  0  0  0  0
    3.8648    1.8477   19.2467 H   0  0  0  0  0  0  0  0  0  0  0  0
  1  2  1  0
  2  3  2  0
  3  4  1  0
  4  5  1  0
  4  6  2  0
  6  7  1  0
  7  8  2  0
  8  9  1  0
  9 10  1  0
  9 11  1  0
  9 12  1  0
 12 13  2  0
 12 14  1  0
 14 15  1  0
 14 16  1  0
 14 17  1  0
  8 18  1  0
 18 19  1  0
 18 20  2  0
 20 21  1  0
 21 22  1  0
  6 23  1  0
 23 24  1  0
 23 25  2  0
 25 26  1  0
 25  2  1  0
 21  7  1  0
M  END
>  <cnnaffinity>  (1) 
-4.84286

>  <filename>  (1) 
O=C(Cc1cn[nH]c1-c1cccnc1)C(F)(F)F

$$$$
