
     RDKit          3D

 36 38  0  0  0  0  0  0  0  0999 V2000
    4.9380    1.8055   16.9787 H   0  0  0  0  0  0  0  0  0  0  0  0
    5.3980    1.2997   17.8248 C   0  0  0  0  0  0  0  0  0  0  0  0
    6.5605    0.6738   17.5752 N   0  0  0  0  0  0  0  0  0  0  0  0
    7.1602    0.0551   18.5939 C   0  0  0  0  0  0  0  0  0  0  0  0
    8.1023   -0.4462   18.3796 H   0  0  0  0  0  0  0  0  0  0  0  0
    6.6496    0.0421   19.8985 C   0  0  0  0  0  0  0  0  0  0  0  0
    7.4074   -0.6265   20.9559 C   0  0  0  0  0  0  0  0  0  0  0  0
    7.8749   -1.8957   20.7441 N   0  0  0  0  0  0  0  0  0  0  0  0
    8.3753   -2.4496   21.7783 N   0  0  0  0  0  0  0  0  0  0  0  0
    8.3198   -1.4331   23.1258 S   0  0  0  0  0  0  0  0  0  0  0  0
    7.6467   -0.1682   22.2283 C   0  0  0  0  0  0  0  0  0  0  0  0
    7.2978    1.1084   22.8738 C   0  0  0  0  0  0  0  0  0  0  0  0
    7.0166    1.1608   24.0623 O   0  0  0  0  0  0  0  0  0  0  0  0
    7.3293    2.1905   22.0567 N   0  0  0  0  0  0  0  0  0  0  0  0
    7.6406    2.0321   21.1115 H   0  0  0  0  0  0  0  0  0  0  0  0
    6.8219    3.4836   22.4871 C   0  0  0  0  0  0  0  0  0  0  0  0
    7.2271    3.6991   23.4845 H   0  0  0  0  0  0  0  0  0  0  0  0
    7.1943    4.2429   21.7904 H   0  0  0  0  0  0  0  0  0  0  0  0
    5.2785    3.5344   22.5562 C   0  0  0  0  0  0  0  0  0  0  0  0
    4.9390    2.7318   23.2278 H   0  0  0  0  0  0  0  0  0  0  0  0
    4.8784    3.3050   21.5564 H   0  0  0  0  0  0  0  0  0  0  0  0
    4.7501    4.8756   23.0443 C   0  0  0  0  0  0  0  0  0  0  0  0
    4.5878    5.1323   24.4165 C   0  0  0  0  0  0  0  0  0  0  0  0
    4.8145    4.3419   25.1298 H   0  0  0  0  0  0  0  0  0  0  0  0
    4.1434    6.3806   24.8726 C   0  0  0  0  0  0  0  0  0  0  0  0
    4.0231    6.5552   25.9393 H   0  0  0  0  0  0  0  0  0  0  0  0
    3.8596    7.4019   23.9585 C   0  0  0  0  0  0  0  0  0  0  0  0
    3.5125    8.3726   24.3075 H   0  0  0  0  0  0  0  0  0  0  0  0
    4.0264    7.1661   22.5899 C   0  0  0  0  0  0  0  0  0  0  0  0
    3.8161    7.9492   21.8646 H   0  0  0  0  0  0  0  0  0  0  0  0
    4.4702    5.9154   22.1439 C   0  0  0  0  0  0  0  0  0  0  0  0
    4.5982    5.7460   21.0790 H   0  0  0  0  0  0  0  0  0  0  0  0
    5.4168    0.6626   20.1417 C   0  0  0  0  0  0  0  0  0  0  0  0
    4.9771    0.6411   21.1415 H   0  0  0  0  0  0  0  0  0  0  0  0
    4.7887    1.3168   19.0847 C   0  0  0  0  0  0  0  0  0  0  0  0
    3.8570    1.8553   19.2287 H   0  0  0  0  0  0  0  0  0  0  0  0
  1  2  1  0
  2  3  2  0
  3  4  1  0
  4  5  1  0
  4  6  2  0
  6  7  1  0
  7  8  1  0
  8  9  2  0
  9 10  1  0
 10 11  1  0
 11 12  1  0
 12 13  2  0
 12 14  1  0
 14 15  1  0
 14 16  1  0
 16 17  1  0
 16 18  1  0
 16 19  1  0
 19 20  1  0
 19 21  1  0
 19 22  1  0
 22 23  2  0
 23 24  1  0
 23 25  1  0
 25 26  1  0
 25 27  2  0
 27 28  1  0
 27 29  1  0
 29 30  1  0
 29 31  2  0
 31 32  1  0
  6 33  1  0
 33 34  1  0
 33 35  2  0
 35 36  1  0
 35  2  1  0
 11  7  2  0
 31 22  1  0
M  END
>  <cnnaffinity>  (1) 
-5.03086

>  <filename>  (1) 
O=C(NCCc1ccccc1)c1snnc1-c1cccnc1

$$$$
