
     RDKit          3D

 38 39  0  0  0  0  0  0  0  0999 V2000
    6.7662   -0.4083   23.4647 O   0  0  0  0  0  0  0  0  0  0  0  0
    7.0183    0.2745   22.4916 C   0  0  0  0  0  0  0  0  0  0  0  0
    7.4317    1.5805   22.5869 N   0  0  0  0  0  0  0  0  0  0  0  0
    8.0433    2.0584   23.8497 C   0  0  0  0  0  0  0  0  0  0  0  0
    9.4585    1.5820   24.2465 C   0  0  0  0  0  0  0  0  0  0  0  0
    9.5508    1.0955   25.4876 N   0  0  0  0  0  0  0  0  0  0  0  0
   10.7001    0.5683   25.9238 C   0  0  0  0  0  0  0  0  0  0  0  0
   11.8582    0.5487   25.1423 C   0  0  0  0  0  0  0  0  0  0  0  0
   11.8126    1.1429   23.8849 C   0  0  0  0  0  0  0  0  0  0  0  0
   10.6018    1.6764   23.4341 C   0  0  0  0  0  0  0  0  0  0  0  0
   10.4927    2.3156   22.0948 C   0  0  0  0  0  0  0  0  0  0  0  0
    9.9894    1.4745   21.1605 F   0  0  0  0  0  0  0  0  0  0  0  0
    9.6569    3.3789   22.1299 F   0  0  0  0  0  0  0  0  0  0  0  0
   11.6745    2.7465   21.6312 F   0  0  0  0  0  0  0  0  0  0  0  0
   12.7074    1.2243   23.2651 H   0  0  0  0  0  0  0  0  0  0  0  0
   12.7687    0.1040   25.5219 H   0  0  0  0  0  0  0  0  0  0  0  0
   10.6804    0.1413   26.9266 H   0  0  0  0  0  0  0  0  0  0  0  0
    8.0395    3.1486   23.8493 H   0  0  0  0  0  0  0  0  0  0  0  0
    7.3923    1.7424   24.6652 H   0  0  0  0  0  0  0  0  0  0  0  0
    7.8159    1.9280   21.7186 H   0  0  0  0  0  0  0  0  0  0  0  0
    7.0347   -0.2803   21.1771 N   0  0  0  0  0  0  0  0  0  0  0  0
    7.6652   -1.5987   21.0859 C   0  0  0  0  0  0  0  0  0  0  0  0
    9.1883   -1.5328   20.9953 C   0  0  0  0  0  0  0  0  0  0  0  0
    9.6511   -2.8026   20.9151 F   0  0  0  0  0  0  0  0  0  0  0  0
    9.6804   -0.9852   22.1544 F   0  0  0  0  0  0  0  0  0  0  0  0
    9.5781   -0.9683   20.1385 H   0  0  0  0  0  0  0  0  0  0  0  0
    7.2830   -2.1527   20.2241 H   0  0  0  0  0  0  0  0  0  0  0  0
    7.4387   -2.1806   21.9881 H   0  0  0  0  0  0  0  0  0  0  0  0
    6.4429    0.3049   20.0123 C   0  0  0  0  0  0  0  0  0  0  0  0
    5.2096    0.9808   20.0893 C   0  0  0  0  0  0  0  0  0  0  0  0
    4.6554    1.5056   18.9146 C   0  0  0  0  0  0  0  0  0  0  0  0
    5.3512    1.3745   17.7087 C   0  0  0  0  0  0  0  0  0  0  0  0
    6.5169    0.7165   17.6064 N   0  0  0  0  0  0  0  0  0  0  0  0
    7.0278    0.1860   18.7229 C   0  0  0  0  0  0  0  0  0  0  0  0
    7.9606   -0.3602   18.5977 H   0  0  0  0  0  0  0  0  0  0  0  0
    4.9695    1.8181   16.7918 H   0  0  0  0  0  0  0  0  0  0  0  0
    3.7033    2.0292   18.9222 H   0  0  0  0  0  0  0  0  0  0  0  0
    4.7012    1.0809   21.0471 H   0  0  0  0  0  0  0  0  0  0  0  0
  1  2  2  0
  2  3  1  0
  3  4  1  0
  4  5  1  0
  5  6  2  0
  6  7  1  0
  7  8  2  0
  8  9  1  0
  9 10  2  0
 10 11  1  0
 11 12  1  0
 11 13  1  0
 11 14  1  0
  9 15  1  0
  8 16  1  0
  7 17  1  0
  4 18  1  0
  4 19  1  0
  3 20  1  0
  2 21  1  0
 21 22  1  0
 22 23  1  0
 23 24  1  0
 23 25  1  0
 23 26  1  0
 22 27  1  0
 22 28  1  0
 21 29  1  0
 29 30  2  0
 30 31  1  0
 31 32  2  0
 32 33  1  0
 33 34  2  0
 34 35  1  0
 32 36  1  0
 31 37  1  0
 30 38  1  0
 10  5  1  0
 34 29  1  0
M  END
>  <cnnaffinity>  (1) 
-5.69281

>  <filename>  (1) 
O=C(NCc1ncccc1C(F)(F)F)N(CC(F)F)c1cccnc1

$$$$
