
     RDKit          3D

 33 35  0  0  0  0  0  0  0  0999 V2000
    7.0104    0.1151   24.9123 O   0  0  0  0  0  0  0  0  0  0  0  0
    6.6747    1.0100   24.1539 C   0  0  0  0  0  0  0  0  0  0  0  0
    6.1028    2.3134   24.6891 C   0  0  0  0  0  0  0  0  0  0  0  0
    4.6939    2.5586   24.2136 C   0  0  0  0  0  0  0  0  0  0  0  0
    3.6071    2.0889   24.9628 C   0  0  0  0  0  0  0  0  0  0  0  0
    2.2982    2.3119   24.5221 C   0  0  0  0  0  0  0  0  0  0  0  0
    2.0736    3.0302   23.3415 C   0  0  0  0  0  0  0  0  0  0  0  0
    3.1559    3.4980   22.5911 C   0  0  0  0  0  0  0  0  0  0  0  0
    4.4669    3.2614   23.0185 C   0  0  0  0  0  0  0  0  0  0  0  0
    5.9307    3.9617   21.9902 Br  0  0  0  0  0  0  0  0  0  0  0  0
    2.9930    4.0404   21.6617 H   0  0  0  0  0  0  0  0  0  0  0  0
    1.0623    3.2588   23.0225 H   0  0  0  0  0  0  0  0  0  0  0  0
    1.4590    1.9630   25.1136 H   0  0  0  0  0  0  0  0  0  0  0  0
    3.7813    1.5808   25.9049 H   0  0  0  0  0  0  0  0  0  0  0  0
    6.7378    3.1398   24.3684 H   0  0  0  0  0  0  0  0  0  0  0  0
    6.1288    2.2817   25.7744 H   0  0  0  0  0  0  0  0  0  0  0  0
    6.8004    0.8441   22.7982 N   0  0  0  0  0  0  0  0  0  0  0  0
    7.3634   -0.2947   22.2429 C   0  0  0  0  0  0  0  0  0  0  0  0
    7.9916   -1.2166   22.9057 N   0  0  0  0  0  0  0  0  0  0  0  0
    8.4583   -2.1084   21.9749 N   0  0  0  0  0  0  0  0  0  0  0  0
    8.1379   -1.7598   20.7769 N   0  0  0  0  0  0  0  0  0  0  0  0
    7.4139   -0.6255   20.9021 N   0  0  0  0  0  0  0  0  0  0  0  0
    6.7354    0.0243   19.8618 C   0  0  0  0  0  0  0  0  0  0  0  0
    5.5620    0.7218   20.1410 C   0  0  0  0  0  0  0  0  0  0  0  0
    4.9073    1.3485   19.0861 C   0  0  0  0  0  0  0  0  0  0  0  0
    5.4404    1.2836   17.7933 C   0  0  0  0  0  0  0  0  0  0  0  0
    6.5637    0.5992   17.5088 N   0  0  0  0  0  0  0  0  0  0  0  0
    7.1871   -0.0223   18.5285 C   0  0  0  0  0  0  0  0  0  0  0  0
    8.0971   -0.5663   18.3097 H   0  0  0  0  0  0  0  0  0  0  0  0
    4.9146    1.7972   16.9962 H   0  0  0  0  0  0  0  0  0  0  0  0
    3.9840    1.8870   19.2627 H   0  0  0  0  0  0  0  0  0  0  0  0
    5.1609    0.7496   21.1535 H   0  0  0  0  0  0  0  0  0  0  0  0
    6.4861    1.5928   22.1939 H   0  0  0  0  0  0  0  0  0  0  0  0
  1  2  2  0
  2  3  1  0
  3  4  1  0
  4  5  2  0
  5  6  1  0
  6  7  2  0
  7  8  1  0
  8  9  2  0
  9 10  1  0
  8 11  1  0
  7 12  1  0
  6 13  1  0
  5 14  1  0
  3 15  1  0
  3 16  1  0
  2 17  1  0
 17 18  1  0
 18 19  2  0
 19 20  1  0
 20 21  2  0
 21 22  1  0
 22 23  1  0
 23 24  2  0
 24 25  1  0
 25 26  2  0
 26 27  1  0
 27 28  2  0
 28 29  1  0
 26 30  1  0
 25 31  1  0
 24 32  1  0
 17 33  1  0
  9  4  1  0
 22 18  1  0
 28 23  1  0
M  END
>  <cnnaffinity>  (1) 
-5.07993

>  <filename>  (1) 
O=C(Cc1ccccc1Br)Nc1nnnn1-c1cccnc1

$$$$
