
     RDKit          3D

 31 33  0  0  0  0  0  0  0  0999 V2000
    5.0384    1.7631   16.9673 H   0  0  0  0  0  0  0  0  0  0  0  0
    5.4571    1.2647   17.8395 C   0  0  0  0  0  0  0  0  0  0  0  0
    6.6292    0.6371   17.6613 N   0  0  0  0  0  0  0  0  0  0  0  0
    7.1603    0.0226   18.7263 C   0  0  0  0  0  0  0  0  0  0  0  0
    8.1171   -0.4749   18.5653 H   0  0  0  0  0  0  0  0  0  0  0  0
    6.5645    0.0020   19.9884 C   0  0  0  0  0  0  0  0  0  0  0  0
    7.2671   -0.6714   21.0910 C   0  0  0  0  0  0  0  0  0  0  0  0
    8.0078   -2.1241   20.9913 S   0  0  0  0  0  0  0  0  0  0  0  0
    7.2815   -0.0220   22.2874 N   0  0  0  0  0  0  0  0  0  0  0  0
    7.5412   -0.5853   23.0792 H   0  0  0  0  0  0  0  0  0  0  0  0
    7.5198    1.3332   22.4570 C   0  0  0  0  0  0  0  0  0  0  0  0
    7.6193    2.1012   21.5243 O   0  0  0  0  0  0  0  0  0  0  0  0
    7.6022    1.7052   23.8759 C   0  0  0  0  0  0  0  0  0  0  0  0
    7.0817    2.8575   24.3944 C   0  0  0  0  0  0  0  0  0  0  0  0
    6.6169    3.6848   23.8673 H   0  0  0  0  0  0  0  0  0  0  0  0
    7.2255    2.8522   25.7536 N   0  0  0  0  0  0  0  0  0  0  0  0
    7.0447    3.6253   26.3695 H   0  0  0  0  0  0  0  0  0  0  0  0
    7.8492    1.6875   26.1437 C   0  0  0  0  0  0  0  0  0  0  0  0
    8.1643    1.2344   27.4334 C   0  0  0  0  0  0  0  0  0  0  0  0
    7.9567    1.8501   28.3055 H   0  0  0  0  0  0  0  0  0  0  0  0
    8.8274    0.0157   27.5469 C   0  0  0  0  0  0  0  0  0  0  0  0
    9.1249   -0.3307   28.5308 H   0  0  0  0  0  0  0  0  0  0  0  0
    9.1789   -0.7357   26.3964 C   0  0  0  0  0  0  0  0  0  0  0  0
    9.6737   -1.6958   26.5020 H   0  0  0  0  0  0  0  0  0  0  0  0
    8.8752   -0.2678   25.1238 C   0  0  0  0  0  0  0  0  0  0  0  0
    9.2152   -0.8286   24.2556 H   0  0  0  0  0  0  0  0  0  0  0  0
    8.1492    0.9422   24.9830 C   0  0  0  0  0  0  0  0  0  0  0  0
    5.3426    0.6682   20.1660 C   0  0  0  0  0  0  0  0  0  0  0  0
    4.8820    0.7355   21.1534 H   0  0  0  0  0  0  0  0  0  0  0  0
    4.7802    1.3038   19.0632 C   0  0  0  0  0  0  0  0  0  0  0  0
    3.8544    1.8578   19.1539 H   0  0  0  0  0  0  0  0  0  0  0  0
  1  2  1  0
  2  3  2  0
  3  4  1  0
  4  5  1  0
  4  6  2  0
  6  7  1  0
  7  8  2  0
  7  9  1  0
  9 10  1  0
  9 11  1  0
 11 12  2  0
 11 13  1  0
 13 14  2  0
 14 15  1  0
 14 16  1  0
 16 17  1  0
 16 18  1  0
 18 19  2  0
 19 20  1  0
 19 21  1  0
 21 22  1  0
 21 23  2  0
 23 24  1  0
 23 25  1  0
 25 26  1  0
 25 27  2  0
  6 28  1  0
 28 29  1  0
 28 30  2  0
 30 31  1  0
 30  2  1  0
 27 13  1  0
 27 18  1  0
M  END
>  <cnnaffinity>  (1) 
-5.74729

>  <filename>  (1) 
O=C(NC(=S)c1cccnc1)c1c[nH]c2ccccc12

$$$$
