
     RDKit          3D

 28 29  0  0  0  0  0  0  0  0999 V2000
    5.2522    2.0840   17.0022 H   0  0  0  0  0  0  0  0  0  0  0  0
    5.5062    1.3924   17.7994 C   0  0  0  0  0  0  0  0  0  0  0  0
    6.5714    0.6099   17.5774 N   0  0  0  0  0  0  0  0  0  0  0  0
    6.9168   -0.2455   18.5474 C   0  0  0  0  0  0  0  0  0  0  0  0
    7.8288   -0.8170   18.4013 H   0  0  0  0  0  0  0  0  0  0  0  0
    6.2035   -0.4135   19.7626 C   0  0  0  0  0  0  0  0  0  0  0  0
    6.6159   -1.3680   20.7228 N   0  0  0  0  0  0  0  0  0  0  0  0
    6.1001   -1.3490   21.6014 H   0  0  0  0  0  0  0  0  0  0  0  0
    8.3048   -1.6535   20.9291 S   0  0  0  0  0  0  0  0  0  0  0  0
    9.1738    0.0282   20.9644 C   0  0  0  0  0  0  0  0  0  0  0  0
    9.2441    0.7786   20.0263 O   0  0  0  0  0  0  0  0  0  0  0  0
    9.7401    0.2445   22.1747 N   0  0  0  0  0  0  0  0  0  0  0  0
    9.7264   -0.5247   22.8179 H   0  0  0  0  0  0  0  0  0  0  0  0
   10.1991    1.4623   22.6959 C   0  0  0  0  0  0  0  0  0  0  0  0
    9.8714    2.7335   22.2043 C   0  0  0  0  0  0  0  0  0  0  0  0
    9.2454    2.8372   21.3212 H   0  0  0  0  0  0  0  0  0  0  0  0
   10.3482    3.8659   22.8783 C   0  0  0  0  0  0  0  0  0  0  0  0
   10.0842    4.8636   22.5302 H   0  0  0  0  0  0  0  0  0  0  0  0
   11.1891    3.7164   23.9864 C   0  0  0  0  0  0  0  0  0  0  0  0
   11.8219    5.1182   24.7976 Cl  0  0  0  0  0  0  0  0  0  0  0  0
   11.5317    2.4419   24.4514 C   0  0  0  0  0  0  0  0  0  0  0  0
   12.1848    2.3178   25.2986 H   0  0  0  0  0  0  0  0  0  0  0  0
   11.0214    1.3230   23.8151 C   0  0  0  0  0  0  0  0  0  0  0  0
   11.2494    0.3170   24.1575 H   0  0  0  0  0  0  0  0  0  0  0  0
    5.0900    0.4097   19.9715 C   0  0  0  0  0  0  0  0  0  0  0  0
    4.5266    0.3372   20.9015 H   0  0  0  0  0  0  0  0  0  0  0  0
    4.7524    1.3382   18.9767 C   0  0  0  0  0  0  0  0  0  0  0  0
    3.9321    2.0318   19.1045 H   0  0  0  0  0  0  0  0  0  0  0  0
  1  2  1  0
  2  3  2  0
  3  4  1  0
  4  5  1  0
  4  6  2  0
  6  7  1  0
  7  8  1  0
  7  9  1  0
  9 10  1  0
 10 11  2  0
 10 12  1  0
 12 13  1  0
 12 14  1  0
 14 15  2  0
 15 16  1  0
 15 17  1  0
 17 18  1  0
 17 19  2  0
 19 20  1  0
 19 21  1  0
 21 22  1  0
 21 23  2  0
 23 24  1  0
  6 25  1  0
 25 26  1  0
 25 27  2  0
 27 28  1  0
 27  2  1  0
 23 14  1  0
M  END
>  <cnnaffinity>  (1) 
-4.92946

>  <filename>  (1) 
O=C(Nc1ccc(Cl)cc1)SNc1cccnc1

$$$$
