
     RDKit          3D

 36 37  0  0  0  0  0  0  0  0999 V2000
    5.6343   -2.4063   21.1809 O   0  0  0  0  0  0  0  0  0  0  0  0
    6.5622   -1.8176   21.6894 C   0  0  0  0  0  0  0  0  0  0  0  0
    7.1015   -2.1278   22.9336 N   0  0  0  0  0  0  0  0  0  0  0  0
    6.5258   -3.2213   23.7219 C   0  0  0  0  0  0  0  0  0  0  0  0
    5.2247   -2.8916   24.4052 C   0  0  0  0  0  0  0  0  0  0  0  0
    3.9918   -3.4926   24.2353 C   0  0  0  0  0  0  0  0  0  0  0  0
    3.6135   -4.7599   23.5100 C   0  0  0  0  0  0  0  0  0  0  0  0
    3.9435   -4.7158   22.2108 F   0  0  0  0  0  0  0  0  0  0  0  0
    2.2842   -4.9629   23.6018 F   0  0  0  0  0  0  0  0  0  0  0  0
    4.2250   -5.8325   24.0402 F   0  0  0  0  0  0  0  0  0  0  0  0
    3.1020   -2.7586   24.9472 N   0  0  0  0  0  0  0  0  0  0  0  0
    3.6728   -1.7617   25.6229 N   0  0  0  0  0  0  0  0  0  0  0  0
    4.9566   -1.8297   25.3098 C   0  0  0  0  0  0  0  0  0  0  0  0
    5.6517   -1.1398   25.7643 H   0  0  0  0  0  0  0  0  0  0  0  0
    2.0998   -2.8943   25.0343 H   0  0  0  0  0  0  0  0  0  0  0  0
    6.3703   -4.0700   23.0498 H   0  0  0  0  0  0  0  0  0  0  0  0
    7.2748   -3.5397   24.4594 H   0  0  0  0  0  0  0  0  0  0  0  0
    7.3093   -1.2813   23.4403 H   0  0  0  0  0  0  0  0  0  0  0  0
    7.2531   -0.7719   21.0220 N   0  0  0  0  0  0  0  0  0  0  0  0
    8.5854   -0.2999   21.3990 C   0  0  0  0  0  0  0  0  0  0  0  0
    8.5635    0.9820   22.2196 C   0  0  0  0  0  0  0  0  0  0  0  0
    9.8428    1.3983   22.4137 F   0  0  0  0  0  0  0  0  0  0  0  0
    8.0128    0.7221   23.4520 F   0  0  0  0  0  0  0  0  0  0  0  0
    7.9955    1.7941   21.7565 H   0  0  0  0  0  0  0  0  0  0  0  0
    9.1179   -1.0631   21.9735 H   0  0  0  0  0  0  0  0  0  0  0  0
    9.1770   -0.0918   20.4983 H   0  0  0  0  0  0  0  0  0  0  0  0
    6.6163   -0.0844   19.9321 C   0  0  0  0  0  0  0  0  0  0  0  0
    5.4044    0.5848   20.1481 C   0  0  0  0  0  0  0  0  0  0  0  0
    4.8334    1.2964   19.0896 C   0  0  0  0  0  0  0  0  0  0  0  0
    5.4781    1.2980   17.8491 C   0  0  0  0  0  0  0  0  0  0  0  0
    6.6299    0.6486   17.6145 N   0  0  0  0  0  0  0  0  0  0  0  0
    7.1868   -0.0149   18.6364 C   0  0  0  0  0  0  0  0  0  0  0  0
    8.1187   -0.5412   18.4215 H   0  0  0  0  0  0  0  0  0  0  0  0
    5.0570    1.8376   17.0045 H   0  0  0  0  0  0  0  0  0  0  0  0
    3.9064    1.8472   19.2156 H   0  0  0  0  0  0  0  0  0  0  0  0
    4.9417    0.5328   21.1352 H   0  0  0  0  0  0  0  0  0  0  0  0
  1  2  2  0
  2  3  1  0
  3  4  1  0
  4  5  1  0
  5  6  2  0
  6  7  1  0
  7  8  1  0
  7  9  1  0
  7 10  1  0
  6 11  1  0
 11 12  1  0
 12 13  2  0
 13 14  1  0
 11 15  1  0
  4 16  1  0
  4 17  1  0
  3 18  1  0
  2 19  1  0
 19 20  1  0
 20 21  1  0
 21 22  1  0
 21 23  1  0
 21 24  1  0
 20 25  1  0
 20 26  1  0
 19 27  1  0
 27 28  2  0
 28 29  1  0
 29 30  2  0
 30 31  1  0
 31 32  2  0
 32 33  1  0
 30 34  1  0
 29 35  1  0
 28 36  1  0
 13  5  1  0
 32 27  1  0
M  END
>  <cnnaffinity>  (1) 
-5.50568

>  <filename>  (1) 
O=C(NCc1cn[nH]c1C(F)(F)F)N(CC(F)F)c1cccnc1

$$$$
