
     RDKit          3D

 29 30  0  0  0  0  0  0  0  0999 V2000
    4.9371    1.7907   16.9890 H   0  0  0  0  0  0  0  0  0  0  0  0
    5.4007    1.2923   17.8437 C   0  0  0  0  0  0  0  0  0  0  0  0
    6.5651    0.6660   17.6081 N   0  0  0  0  0  0  0  0  0  0  0  0
    7.1730    0.0661   18.6367 C   0  0  0  0  0  0  0  0  0  0  0  0
    8.1097   -0.4301   18.3800 H   0  0  0  0  0  0  0  0  0  0  0  0
    6.6650    0.0472   19.9592 C   0  0  0  0  0  0  0  0  0  0  0  0
    7.3633   -0.6998   21.0489 C   0  0  0  0  0  0  0  0  0  0  0  0
    8.0361   -2.1538   20.8088 S   0  0  0  0  0  0  0  0  0  0  0  0
    7.4543   -0.1404   22.4731 C   0  0  0  0  0  0  0  0  0  0  0  0
    7.4953   -0.8430   23.4656 O   0  0  0  0  0  0  0  0  0  0  0  0
    7.5328    1.4081   22.5781 C   0  0  0  0  0  0  0  0  0  0  0  0
    7.7435    2.0805   21.5882 O   0  0  0  0  0  0  0  0  0  0  0  0
    7.3410    1.8863   23.8455 N   0  0  0  0  0  0  0  0  0  0  0  0
    7.4520    1.2273   24.6018 H   0  0  0  0  0  0  0  0  0  0  0  0
    7.0600    3.2234   24.1835 C   0  0  0  0  0  0  0  0  0  0  0  0
    6.2819    4.0112   23.3296 C   0  0  0  0  0  0  0  0  0  0  0  0
    5.9281    3.5706   22.4037 H   0  0  0  0  0  0  0  0  0  0  0  0
    5.9977    5.3389   23.6582 C   0  0  0  0  0  0  0  0  0  0  0  0
    5.4093    5.9627   22.9904 H   0  0  0  0  0  0  0  0  0  0  0  0
    6.5041    5.8697   24.8482 C   0  0  0  0  0  0  0  0  0  0  0  0
    6.1694    7.5306   25.2442 Cl  0  0  0  0  0  0  0  0  0  0  0  0
    7.2715    5.0888   25.7185 C   0  0  0  0  0  0  0  0  0  0  0  0
    7.6458    5.5318   26.6379 H   0  0  0  0  0  0  0  0  0  0  0  0
    7.5396    3.7519   25.3882 C   0  0  0  0  0  0  0  0  0  0  0  0
    8.1361    3.1278   26.0494 H   0  0  0  0  0  0  0  0  0  0  0  0
    5.4286    0.6759   20.1697 C   0  0  0  0  0  0  0  0  0  0  0  0
    4.9592    0.6502   21.1512 H   0  0  0  0  0  0  0  0  0  0  0  0
    4.7983    1.3169   19.0999 C   0  0  0  0  0  0  0  0  0  0  0  0
    3.8627    1.8421   19.2283 H   0  0  0  0  0  0  0  0  0  0  0  0
  1  2  1  0
  2  3  2  0
  3  4  1  0
  4  5  1  0
  4  6  2  0
  6  7  1  0
  7  8  2  0
  7  9  1  0
  9 10  2  0
  9 11  1  0
 11 12  2  0
 11 13  1  0
 13 14  1  0
 13 15  1  0
 15 16  2  0
 16 17  1  0
 16 18  1  0
 18 19  1  0
 18 20  2  0
 20 21  1  0
 20 22  1  0
 22 23  1  0
 22 24  2  0
 24 25  1  0
  6 26  1  0
 26 27  1  0
 26 28  2  0
 28 29  1  0
 28  2  1  0
 24 15  1  0
M  END
>  <cnnaffinity>  (1) 
-4.57237

>  <filename>  (1) 
O=C(Nc1ccc(Cl)cc1)C(=O)C(=S)c1cccnc1

$$$$
