
     RDKit          3D

 29 31  0  0  0  0  0  0  0  0999 V2000
    4.9190    1.7731   17.0027 H   0  0  0  0  0  0  0  0  0  0  0  0
    5.4066    1.2879   17.8466 C   0  0  0  0  0  0  0  0  0  0  0  0
    6.5722    0.6717   17.5926 N   0  0  0  0  0  0  0  0  0  0  0  0
    7.1792    0.0559   18.6122 C   0  0  0  0  0  0  0  0  0  0  0  0
    8.1243   -0.4288   18.3726 H   0  0  0  0  0  0  0  0  0  0  0  0
    6.6585    0.0052   19.9132 C   0  0  0  0  0  0  0  0  0  0  0  0
    7.3631   -0.6997   20.9883 C   0  0  0  0  0  0  0  0  0  0  0  0
    6.8883   -0.7661   22.1965 N   0  0  0  0  0  0  0  0  0  0  0  0
    7.7135   -1.4772   23.0407 C   0  0  0  0  0  0  0  0  0  0  0  0
    7.3910   -1.7541   24.5032 C   0  0  0  0  0  0  0  0  0  0  0  0
    8.0222   -2.6013   25.1145 O   0  0  0  0  0  0  0  0  0  0  0  0
    6.2855   -0.9875   25.1804 C   0  0  0  0  0  0  0  0  0  0  0  0
    6.0264    0.3691   24.9082 C   0  0  0  0  0  0  0  0  0  0  0  0
    6.6197    0.9037   24.1697 H   0  0  0  0  0  0  0  0  0  0  0  0
    5.0052    1.0438   25.5745 C   0  0  0  0  0  0  0  0  0  0  0  0
    4.7922    2.0856   25.3634 H   0  0  0  0  0  0  0  0  0  0  0  0
    4.2538    0.3535   26.5218 C   0  0  0  0  0  0  0  0  0  0  0  0
    3.2718    1.0002   27.1653 F   0  0  0  0  0  0  0  0  0  0  0  0
    4.4938   -0.9846   26.8284 C   0  0  0  0  0  0  0  0  0  0  0  0
    3.8976   -1.4849   27.5837 H   0  0  0  0  0  0  0  0  0  0  0  0
    5.5148   -1.6483   26.1552 C   0  0  0  0  0  0  0  0  0  0  0  0
    5.7263   -2.6886   26.3885 H   0  0  0  0  0  0  0  0  0  0  0  0
    8.8563   -1.9469   22.4440 C   0  0  0  0  0  0  0  0  0  0  0  0
    9.6376   -2.5257   22.9115 H   0  0  0  0  0  0  0  0  0  0  0  0
    8.9070   -1.4995   20.7954 S   0  0  0  0  0  0  0  0  0  0  0  0
    5.4356    0.6541   20.1634 C   0  0  0  0  0  0  0  0  0  0  0  0
    5.0078    0.6279   21.1684 H   0  0  0  0  0  0  0  0  0  0  0  0
    4.8044    1.3108   19.1104 C   0  0  0  0  0  0  0  0  0  0  0  0
    3.8716    1.8450   19.2621 H   0  0  0  0  0  0  0  0  0  0  0  0
  1  2  1  0
  2  3  2  0
  3  4  1  0
  4  5  1  0
  4  6  2  0
  6  7  1  0
  7  8  2  0
  8  9  1  0
  9 10  1  0
 10 11  2  0
 10 12  1  0
 12 13  2  0
 13 14  1  0
 13 15  1  0
 15 16  1  0
 15 17  2  0
 17 18  1  0
 17 19  1  0
 19 20  1  0
 19 21  2  0
 21 22  1  0
  9 23  2  0
 23 24  1  0
 23 25  1  0
  6 26  1  0
 26 27  1  0
 26 28  2  0
 28 29  1  0
 28  2  1  0
 25  7  1  0
 21 12  1  0
M  END
>  <cnnaffinity>  (1) 
-4.91937

>  <filename>  (1) 
O=C(c1ccc(F)cc1)c1csc(-c2cccnc2)n1

$$$$
