
     RDKit          3D

 35 37  0  0  0  0  0  0  0  0999 V2000
    5.1372    1.8585   16.9492 H   0  0  0  0  0  0  0  0  0  0  0  0
    5.6313    1.3270   17.7561 C   0  0  0  0  0  0  0  0  0  0  0  0
    6.8012    0.7457   17.4471 N   0  0  0  0  0  0  0  0  0  0  0  0
    7.4277    0.0796   18.4266 C   0  0  0  0  0  0  0  0  0  0  0  0
    8.3783   -0.3831   18.1718 H   0  0  0  0  0  0  0  0  0  0  0  0
    6.9184   -0.0745   19.7319 C   0  0  0  0  0  0  0  0  0  0  0  0
    7.5898   -0.8645   20.7870 C   0  0  0  0  0  0  0  0  0  0  0  0
    8.8856   -0.8693   21.1866 C   0  0  0  0  0  0  0  0  0  0  0  0
    9.7149   -0.3321   20.7438 H   0  0  0  0  0  0  0  0  0  0  0  0
    9.0641   -1.5913   22.3468 N   0  0  0  0  0  0  0  0  0  0  0  0
    9.8458   -2.2336   22.4666 H   0  0  0  0  0  0  0  0  0  0  0  0
    7.8496   -2.2245   22.5877 N   0  0  0  0  0  0  0  0  0  0  0  0
    7.7628   -2.7139   23.8840 N   0  0  0  0  0  0  0  0  0  0  0  0
    7.5190   -2.0178   24.5795 H   0  0  0  0  0  0  0  0  0  0  0  0
    7.0174   -3.8756   24.1165 C   0  0  0  0  0  0  0  0  0  0  0  0
    6.6997   -4.6837   23.2894 O   0  0  0  0  0  0  0  0  0  0  0  0
    6.7245   -3.8977   25.4897 N   0  0  0  0  0  0  0  0  0  0  0  0
    7.5807   -3.9336   26.0207 H   0  0  0  0  0  0  0  0  0  0  0  0
    5.6835   -4.6970   26.0091 C   0  0  0  0  0  0  0  0  0  0  0  0
    5.9471   -5.6087   27.0364 C   0  0  0  0  0  0  0  0  0  0  0  0
    6.9593   -5.7173   27.4144 H   0  0  0  0  0  0  0  0  0  0  0  0
    4.9108   -6.3781   27.5767 C   0  0  0  0  0  0  0  0  0  0  0  0
    5.0976   -7.1010   28.3664 H   0  0  0  0  0  0  0  0  0  0  0  0
    3.6104   -6.2074   27.0918 C   0  0  0  0  0  0  0  0  0  0  0  0
    2.3125   -7.1700   27.7458 Cl  0  0  0  0  0  0  0  0  0  0  0  0
    3.3317   -5.2818   26.0806 C   0  0  0  0  0  0  0  0  0  0  0  0
    2.3107   -5.1578   25.7302 H   0  0  0  0  0  0  0  0  0  0  0  0
    4.3764   -4.5289   25.5354 C   0  0  0  0  0  0  0  0  0  0  0  0
    4.2008   -3.7954   24.7529 H   0  0  0  0  0  0  0  0  0  0  0  0
    6.8499   -1.8037   21.6580 C   0  0  0  0  0  0  0  0  0  0  0  0
    5.7041   -2.2018   21.5966 O   0  0  0  0  0  0  0  0  0  0  0  0
    5.6864    0.5378   20.0167 C   0  0  0  0  0  0  0  0  0  0  0  0
    5.2623    0.4171   21.0134 H   0  0  0  0  0  0  0  0  0  0  0  0
    5.0414    1.2696   19.0232 C   0  0  0  0  0  0  0  0  0  0  0  0
    4.1046    1.7835   19.2172 H   0  0  0  0  0  0  0  0  0  0  0  0
  1  2  1  0
  2  3  2  0
  3  4  1  0
  4  5  1  0
  4  6  2  0
  6  7  1  0
  7  8  2  0
  8  9  1  0
  8 10  1  0
 10 11  1  0
 10 12  1  0
 12 13  1  0
 13 14  1  0
 13 15  1  0
 15 16  2  0
 15 17  1  0
 17 18  1  0
 17 19  1  0
 19 20  2  0
 20 21  1  0
 20 22  1  0
 22 23  1  0
 22 24  2  0
 24 25  1  0
 24 26  1  0
 26 27  1  0
 26 28  2  0
 28 29  1  0
 12 30  1  0
 30 31  2  0
  6 32  1  0
 32 33  1  0
 32 34  2  0
 34 35  1  0
 34  2  1  0
 30  7  1  0
 28 19  1  0
M  END
>  <cnnaffinity>  (1) 
-5.07807

>  <filename>  (1) 
O=C(Nc1ccc(Cl)cc1)Nn1[nH]cc(-c2cccnc2)c1=O

$$$$
