
     RDKit          3D

 30 31  0  0  0  0  0  0  0  0999 V2000
   11.4086   -5.1216   27.6403 H   0  0  0  0  0  0  0  0  0  0  0  0
   10.4693   -5.2474   27.4209 O   0  0  0  0  0  0  0  0  0  0  0  0
   10.1761   -4.3310   26.4082 N   0  0  0  0  0  0  0  0  0  0  0  0
    9.2291   -4.0040   26.5494 H   0  0  0  0  0  0  0  0  0  0  0  0
   10.5400   -4.5854   25.0930 C   0  0  0  0  0  0  0  0  0  0  0  0
   11.4548   -5.3047   24.7573 O   0  0  0  0  0  0  0  0  0  0  0  0
    9.7401   -3.8348   24.0715 C   0  0  0  0  0  0  0  0  0  0  0  0
    9.6957   -4.3967   23.1426 H   0  0  0  0  0  0  0  0  0  0  0  0
    9.3147   -2.5602   24.1421 C   0  0  0  0  0  0  0  0  0  0  0  0
    9.5519   -1.9412   25.0070 H   0  0  0  0  0  0  0  0  0  0  0  0
    8.5997   -1.8081   23.0981 C   0  0  0  0  0  0  0  0  0  0  0  0
    8.4826   -0.4614   23.0785 C   0  0  0  0  0  0  0  0  0  0  0  0
    8.8535    0.1832   23.8562 H   0  0  0  0  0  0  0  0  0  0  0  0
    7.7857    0.2404   22.0186 C   0  0  0  0  0  0  0  0  0  0  0  0
    7.5992    1.4415   22.0266 O   0  0  0  0  0  0  0  0  0  0  0  0
    7.3159   -0.5682   20.9397 N   0  0  0  0  0  0  0  0  0  0  0  0
    6.6427    0.0630   19.8207 C   0  0  0  0  0  0  0  0  0  0  0  0
    7.1645    0.0616   18.5104 C   0  0  0  0  0  0  0  0  0  0  0  0
    8.1079   -0.4492   18.3115 H   0  0  0  0  0  0  0  0  0  0  0  0
    6.5571    0.6718   17.4817 N   0  0  0  0  0  0  0  0  0  0  0  0
    5.4023    1.3162   17.7243 C   0  0  0  0  0  0  0  0  0  0  0  0
    4.9432    1.8171   16.8729 H   0  0  0  0  0  0  0  0  0  0  0  0
    4.7913    1.3463   18.9795 C   0  0  0  0  0  0  0  0  0  0  0  0
    3.8624    1.8867   19.1145 H   0  0  0  0  0  0  0  0  0  0  0  0
    5.4260    0.7047   20.0478 C   0  0  0  0  0  0  0  0  0  0  0  0
    5.0137    0.7195   21.0521 H   0  0  0  0  0  0  0  0  0  0  0  0
    7.1214   -1.9300   21.1615 C   0  0  0  0  0  0  0  0  0  0  0  0
    6.2877   -2.6119   20.6157 O   0  0  0  0  0  0  0  0  0  0  0  0
    7.9759   -2.5059   22.0802 N   0  0  0  0  0  0  0  0  0  0  0  0
    7.6537   -3.4440   22.2320 H   0  0  0  0  0  0  0  0  0  0  0  0
  1  2  1  0
  2  3  1  0
  3  4  1  0
  3  5  1  0
  5  6  2  0
  5  7  1  0
  7  8  1  0
  7  9  2  3
  9 10  1  0
  9 11  1  0
 11 12  2  0
 12 13  1  0
 12 14  1  0
 14 15  2  0
 14 16  1  0
 16 17  1  0
 17 18  2  0
 18 19  1  0
 18 20  1  0
 20 21  2  0
 21 22  1  0
 21 23  1  0
 23 24  1  0
 23 25  2  0
 25 26  1  0
 16 27  1  0
 27 28  2  0
 27 29  1  0
 29 30  1  0
 29 11  1  0
 25 17  1  0
M  END
>  <cnnaffinity>  (1) 
-5.386

>  <filename>  (1) 
O=C(C=Cc1cc(=O)n(-c2cccnc2)c(=O)[nH]1)NO

$$$$
