
     RDKit          3D

 30 31  0  0  0  0  0  0  0  0999 V2000
    1.2238   -5.3427   24.1613 H   0  0  0  0  0  0  0  0  0  0  0  0
    1.9057   -4.9366   24.7302 O   0  0  0  0  0  0  0  0  0  0  0  0
    2.8408   -4.6932   23.8081 C   0  0  0  0  0  0  0  0  0  0  0  0
    2.6061   -4.9564   22.6508 O   0  0  0  0  0  0  0  0  0  0  0  0
    4.2140   -4.0852   24.3461 C   0  0  0  0  0  0  0  0  0  0  0  0
    4.5635   -4.2622   25.5141 O   0  0  0  0  0  0  0  0  0  0  0  0
    5.0443   -3.3862   23.3892 C   0  0  0  0  0  0  0  0  0  0  0  0
    4.6194   -3.0959   22.4386 H   0  0  0  0  0  0  0  0  0  0  0  0
    6.3584   -3.1240   23.6376 C   0  0  0  0  0  0  0  0  0  0  0  0
    6.9465   -3.6576   24.7057 O   0  0  0  0  0  0  0  0  0  0  0  0
    6.1978   -3.9362   25.3016 H   0  0  0  0  0  0  0  0  0  0  0  0
    7.2049   -2.2613   22.7626 C   0  0  0  0  0  0  0  0  0  0  0  0
    6.5949   -1.5427   21.7486 N   0  0  0  0  0  0  0  0  0  0  0  0
    7.3156   -0.7453   20.9900 C   0  0  0  0  0  0  0  0  0  0  0  0
    6.6090   -0.0145   19.9173 C   0  0  0  0  0  0  0  0  0  0  0  0
    7.1354    0.0279   18.6159 C   0  0  0  0  0  0  0  0  0  0  0  0
    8.0853   -0.4539   18.4013 H   0  0  0  0  0  0  0  0  0  0  0  0
    6.5543    0.6553   17.5889 N   0  0  0  0  0  0  0  0  0  0  0  0
    5.4050    1.2976   17.8286 C   0  0  0  0  0  0  0  0  0  0  0  0
    4.9538    1.8138   16.9806 H   0  0  0  0  0  0  0  0  0  0  0  0
    4.7869    1.3137   19.0838 C   0  0  0  0  0  0  0  0  0  0  0  0
    3.8592    1.8582   19.2090 H   0  0  0  0  0  0  0  0  0  0  0  0
    5.3822    0.6287   20.1432 C   0  0  0  0  0  0  0  0  0  0  0  0
    4.9077    0.5963   21.1272 H   0  0  0  0  0  0  0  0  0  0  0  0
    8.8137   -0.5890   21.1933 C   0  0  0  0  0  0  0  0  0  0  0  0
    9.6167    0.0806   20.5672 O   0  0  0  0  0  0  0  0  0  0  0  0
    9.3028   -1.3371   22.2660 N   0  0  0  0  0  0  0  0  0  0  0  0
   10.3022   -1.1946   22.3703 H   0  0  0  0  0  0  0  0  0  0  0  0
    8.5487   -2.1551   23.0494 C   0  0  0  0  0  0  0  0  0  0  0  0
    9.0238   -2.6773   23.8738 H   0  0  0  0  0  0  0  0  0  0  0  0
  1  2  1  0
  2  3  1  0
  3  4  2  0
  3  5  1  0
  5  6  2  0
  5  7  1  0
  7  8  1  0
  7  9  2  3
  9 10  1  0
 10 11  1  0
  9 12  1  0
 12 13  1  0
 13 14  2  0
 14 15  1  0
 15 16  2  0
 16 17  1  0
 16 18  1  0
 18 19  2  0
 19 20  1  0
 19 21  1  0
 21 22  1  0
 21 23  2  0
 23 24  1  0
 14 25  1  0
 25 26  2  0
 25 27  1  0
 27 28  1  0
 27 29  1  0
 29 30  1  0
 29 12  2  0
 23 15  1  0
M  END
>  <cnnaffinity>  (1) 
-4.83696

>  <filename>  (1) 
O=C(O)C(=O)C=C(O)c1c[nH]c(=O)c(-c2cccnc2)n1

$$$$
