
     RDKit          3D

 38 40  0  0  0  0  0  0  0  0999 V2000
    5.7706   -2.2886   21.5357 O   0  0  0  0  0  0  0  0  0  0  0  0
    6.7950   -1.6924   21.7973 C   0  0  0  0  0  0  0  0  0  0  0  0
    7.3894   -0.7310   21.0009 N   0  0  0  0  0  0  0  0  0  0  0  0
    6.7350   -0.0506   19.9409 C   0  0  0  0  0  0  0  0  0  0  0  0
    5.5101    0.5779   20.1861 C   0  0  0  0  0  0  0  0  0  0  0  0
    4.8849    1.2509   19.1311 C   0  0  0  0  0  0  0  0  0  0  0  0
    5.4992    1.2641   17.8719 C   0  0  0  0  0  0  0  0  0  0  0  0
    6.6763    0.6654   17.6215 N   0  0  0  0  0  0  0  0  0  0  0  0
    7.2745    0.0324   18.6400 C   0  0  0  0  0  0  0  0  0  0  0  0
    8.2290   -0.4493   18.4397 H   0  0  0  0  0  0  0  0  0  0  0  0
    5.0177    1.7468   17.0220 H   0  0  0  0  0  0  0  0  0  0  0  0
    3.9399    1.7660   19.2731 H   0  0  0  0  0  0  0  0  0  0  0  0
    5.0857    0.5481   21.1903 H   0  0  0  0  0  0  0  0  0  0  0  0
    8.3807   -0.6441   21.1172 H   0  0  0  0  0  0  0  0  0  0  0  0
    7.5493   -1.9064   22.9364 N   0  0  0  0  0  0  0  0  0  0  0  0
    6.9551   -2.5880   24.0801 C   0  0  0  0  0  0  0  0  0  0  0  0
    8.0499   -3.1692   24.9645 C   0  0  0  0  0  0  0  0  0  0  0  0
    8.0979   -2.3041   26.2050 C   0  0  0  0  0  0  0  0  0  0  0  0
    8.9431   -2.3974   27.0701 O   0  0  0  0  0  0  0  0  0  0  0  0
    7.0047   -1.4560   26.1949 N   0  0  0  0  0  0  0  0  0  0  0  0
    6.7047   -0.5318   27.2283 C   0  0  0  0  0  0  0  0  0  0  0  0
    7.7428    0.0808   27.9494 C   0  0  0  0  0  0  0  0  0  0  0  0
    7.4389    1.0150   28.9387 C   0  0  0  0  0  0  0  0  0  0  0  0
    6.1104    1.3313   29.2360 C   0  0  0  0  0  0  0  0  0  0  0  0
    5.0763    0.7046   28.5381 C   0  0  0  0  0  0  0  0  0  0  0  0
    5.3685   -0.2198   27.5330 C   0  0  0  0  0  0  0  0  0  0  0  0
    4.5714   -0.7129   26.9873 H   0  0  0  0  0  0  0  0  0  0  0  0
    4.0393    0.9361   28.7639 H   0  0  0  0  0  0  0  0  0  0  0  0
    5.8846    2.0579   30.0072 H   0  0  0  0  0  0  0  0  0  0  0  0
    8.2527    1.4849   29.4828 H   0  0  0  0  0  0  0  0  0  0  0  0
    8.7704   -0.1987   27.7550 H   0  0  0  0  0  0  0  0  0  0  0  0
    6.1346   -1.6638   25.0308 C   0  0  0  0  0  0  0  0  0  0  0  0
    5.2068   -2.1810   25.3206 H   0  0  0  0  0  0  0  0  0  0  0  0
    5.8599   -0.7061   24.5607 H   0  0  0  0  0  0  0  0  0  0  0  0
    9.0385   -3.1737   24.4952 H   0  0  0  0  0  0  0  0  0  0  0  0
    7.8257   -4.1944   25.2803 H   0  0  0  0  0  0  0  0  0  0  0  0
    6.3039   -3.3710   23.6848 H   0  0  0  0  0  0  0  0  0  0  0  0
    8.1624   -1.1376   23.1447 H   0  0  0  0  0  0  0  0  0  0  0  0
  1  2  2  0
  2  3  1  0
  3  4  1  0
  4  5  2  0
  5  6  1  0
  6  7  2  0
  7  8  1  0
  8  9  2  0
  9 10  1  0
  7 11  1  0
  6 12  1  0
  5 13  1  0
  3 14  1  0
  2 15  1  0
 15 16  1  0
 16 17  1  0
 17 18  1  0
 18 19  2  0
 18 20  1  0
 20 21  1  0
 21 22  2  0
 22 23  1  0
 23 24  2  0
 24 25  1  0
 25 26  2  0
 26 27  1  0
 25 28  1  0
 24 29  1  0
 23 30  1  0
 22 31  1  0
 20 32  1  0
 32 33  1  0
 32 34  1  0
 17 35  1  0
 17 36  1  0
 16 37  1  0
 15 38  1  0
  9  4  1  0
 32 16  1  0
 26 21  1  0
M  END
>  <cnnaffinity>  (1) 
-5.41997

>  <filename>  (1) 
O=C(Nc1cccnc1)NC1CC(=O)N(c2ccccc2)C1

$$$$
