
     RDKit          3D

 40 43  0  0  0  0  0  0  0  0999 V2000
    5.9605   -2.9154   24.7871 O   0  0  0  0  0  0  0  0  0  0  0  0
    6.7217   -2.0466   25.1887 C   0  0  0  0  0  0  0  0  0  0  0  0
    7.7623   -1.5922   24.4215 N   0  0  0  0  0  0  0  0  0  0  0  0
    7.7643   -1.8300   22.9913 C   0  0  0  0  0  0  0  0  0  0  0  0
    9.1118   -1.5049   22.3529 C   0  0  0  0  0  0  0  0  0  0  0  0
    8.7938   -1.1252   20.8986 C   0  0  0  0  0  0  0  0  0  0  0  0
    7.3991   -0.6960   20.9384 N   0  0  0  0  0  0  0  0  0  0  0  0
    6.7384   -0.0386   19.9202 C   0  0  0  0  0  0  0  0  0  0  0  0
    5.4965    0.6020   20.1493 C   0  0  0  0  0  0  0  0  0  0  0  0
    4.8686    1.2634   19.0928 C   0  0  0  0  0  0  0  0  0  0  0  0
    5.4696    1.2728   17.8297 C   0  0  0  0  0  0  0  0  0  0  0  0
    6.6361    0.6587   17.5722 N   0  0  0  0  0  0  0  0  0  0  0  0
    7.2432    0.0308   18.5889 C   0  0  0  0  0  0  0  0  0  0  0  0
    8.1841   -0.4613   18.3493 H   0  0  0  0  0  0  0  0  0  0  0  0
    5.0018    1.7867   16.9954 H   0  0  0  0  0  0  0  0  0  0  0  0
    3.9254    1.7798   19.2453 H   0  0  0  0  0  0  0  0  0  0  0  0
    5.0482    0.5744   21.1418 H   0  0  0  0  0  0  0  0  0  0  0  0
    6.7664   -0.9494   22.2168 C   0  0  0  0  0  0  0  0  0  0  0  0
    6.5875   -0.0166   22.7763 H   0  0  0  0  0  0  0  0  0  0  0  0
    5.8075   -1.4671   22.1051 H   0  0  0  0  0  0  0  0  0  0  0  0
    8.9081   -1.9781   20.2176 H   0  0  0  0  0  0  0  0  0  0  0  0
    9.4540   -0.3272   20.5291 H   0  0  0  0  0  0  0  0  0  0  0  0
    9.5737   -0.6595   22.8780 H   0  0  0  0  0  0  0  0  0  0  0  0
    9.8068   -2.3458   22.4129 H   0  0  0  0  0  0  0  0  0  0  0  0
    7.5026   -2.8786   22.8068 H   0  0  0  0  0  0  0  0  0  0  0  0
    8.1651   -0.7159   24.7479 H   0  0  0  0  0  0  0  0  0  0  0  0
    6.5759   -1.4534   26.5551 C   0  0  0  0  0  0  0  0  0  0  0  0
    5.7570   -2.0677   27.5134 C   0  0  0  0  0  0  0  0  0  0  0  0
    5.4761   -1.4484   28.7441 C   0  0  0  0  0  0  0  0  0  0  0  0
    6.0325   -0.2109   29.0750 C   0  0  0  0  0  0  0  0  0  0  0  0
    6.9190    0.3584   28.1513 C   0  0  0  0  0  0  0  0  0  0  0  0
    7.1799   -0.2269   26.9014 C   0  0  0  0  0  0  0  0  0  0  0  0
    8.0547    0.5703   26.1767 N   0  0  0  0  0  0  0  0  0  0  0  0
    8.3308    1.5738   26.9612 C   0  0  0  0  0  0  0  0  0  0  0  0
    7.6758    1.5119   28.1569 N   0  0  0  0  0  0  0  0  0  0  0  0
    7.8495    2.0891   28.9592 H   0  0  0  0  0  0  0  0  0  0  0  0
    9.0062    2.3848   26.7277 H   0  0  0  0  0  0  0  0  0  0  0  0
    5.8022    0.2852   30.0141 H   0  0  0  0  0  0  0  0  0  0  0  0
    4.8263   -1.9538   29.4549 H   0  0  0  0  0  0  0  0  0  0  0  0
    5.2893   -3.0169   27.2602 H   0  0  0  0  0  0  0  0  0  0  0  0
  1  2  2  0
  2  3  1  0
  3  4  1  0
  4  5  1  0
  5  6  1  0
  6  7  1  0
  7  8  1  0
  8  9  2  0
  9 10  1  0
 10 11  2  0
 11 12  1  0
 12 13  2  0
 13 14  1  0
 11 15  1  0
 10 16  1  0
  9 17  1  0
  7 18  1  0
 18 19  1  0
 18 20  1  0
  6 21  1  0
  6 22  1  0
  5 23  1  0
  5 24  1  0
  4 25  1  0
  3 26  1  0
  2 27  1  0
 27 28  2  0
 28 29  1  0
 29 30  2  0
 30 31  1  0
 31 32  2  0
 32 33  1  0
 33 34  2  0
 34 35  1  0
 35 36  1  0
 34 37  1  0
 30 38  1  0
 29 39  1  0
 28 40  1  0
 18  4  1  0
 32 27  1  0
 13  8  1  0
 35 31  1  0
M  END
>  <cnnaffinity>  (1) 
-5.14577

>  <filename>  (1) 
O=C(NC1CCN(c2cccnc2)C1)c1cccc2[nH]cnc12

$$$$
