
     RDKit          3D

 36 38  0  0  0  0  0  0  0  0999 V2000
    6.7618    0.7372   22.7316 O   0  0  0  0  0  0  0  0  0  0  0  0
    7.3073   -0.2688   22.3286 C   0  0  0  0  0  0  0  0  0  0  0  0
    8.0467   -1.2200   23.2949 C   0  0  0  0  0  0  0  0  0  0  0  0
    7.4218   -2.5289   23.2757 O   0  0  0  0  0  0  0  0  0  0  0  0
    7.6022   -3.3925   24.3099 C   0  0  0  0  0  0  0  0  0  0  0  0
    8.3496   -3.1801   25.2343 O   0  0  0  0  0  0  0  0  0  0  0  0
    6.7193   -4.6043   24.1546 C   0  0  0  0  0  0  0  0  0  0  0  0
    6.3223   -5.2627   25.3087 C   0  0  0  0  0  0  0  0  0  0  0  0
    5.3336   -6.2827   25.2745 C   0  0  0  0  0  0  0  0  0  0  0  0
    4.7534   -6.6423   24.0788 C   0  0  0  0  0  0  0  0  0  0  0  0
    5.2356   -6.0883   22.8606 C   0  0  0  0  0  0  0  0  0  0  0  0
    4.7801   -6.5461   21.6030 C   0  0  0  0  0  0  0  0  0  0  0  0
    5.4299   -6.1640   20.4577 C   0  0  0  0  0  0  0  0  0  0  0  0
    6.4338   -5.2570   20.4321 N   0  0  0  0  0  0  0  0  0  0  0  0
    6.8212   -4.7464   21.5862 C   0  0  0  0  0  0  0  0  0  0  0  0
    6.2749   -5.1042   22.8708 C   0  0  0  0  0  0  0  0  0  0  0  0
    7.6351   -4.0335   21.5255 H   0  0  0  0  0  0  0  0  0  0  0  0
    5.1778   -6.5854   19.4906 H   0  0  0  0  0  0  0  0  0  0  0  0
    3.9243   -7.2038   21.5756 H   0  0  0  0  0  0  0  0  0  0  0  0
    3.9415   -7.3665   24.0333 H   0  0  0  0  0  0  0  0  0  0  0  0
    5.0403   -6.7718   26.1998 H   0  0  0  0  0  0  0  0  0  0  0  0
    6.7678   -4.9845   26.2631 H   0  0  0  0  0  0  0  0  0  0  0  0
    9.0958   -1.3302   22.9872 H   0  0  0  0  0  0  0  0  0  0  0  0
    7.9943   -0.7703   24.2910 H   0  0  0  0  0  0  0  0  0  0  0  0
    7.3500   -0.6418   21.0015 N   0  0  0  0  0  0  0  0  0  0  0  0
    6.6971    0.0227   19.9173 C   0  0  0  0  0  0  0  0  0  0  0  0
    5.4954    0.7129   20.1278 C   0  0  0  0  0  0  0  0  0  0  0  0
    4.8670    1.3268   19.0390 C   0  0  0  0  0  0  0  0  0  0  0  0
    5.4776    1.2640   17.7835 C   0  0  0  0  0  0  0  0  0  0  0  0
    6.6287    0.6070   17.5602 N   0  0  0  0  0  0  0  0  0  0  0  0
    7.2132   -0.0084   18.5982 C   0  0  0  0  0  0  0  0  0  0  0  0
    8.1355   -0.5493   18.3744 H   0  0  0  0  0  0  0  0  0  0  0  0
    5.0270    1.7549   16.9241 H   0  0  0  0  0  0  0  0  0  0  0  0
    3.9248    1.8534   19.1624 H   0  0  0  0  0  0  0  0  0  0  0  0
    5.0863    0.7625   21.1323 H   0  0  0  0  0  0  0  0  0  0  0  0
    7.6247   -1.6010   20.8445 H   0  0  0  0  0  0  0  0  0  0  0  0
  1  2  2  0
  2  3  1  0
  3  4  1  0
  4  5  1  0
  5  6  2  0
  5  7  1  0
  7  8  2  0
  8  9  1  0
  9 10  2  0
 10 11  1  0
 11 12  2  0
 12 13  1  0
 13 14  2  0
 14 15  1  0
 15 16  2  0
 15 17  1  0
 13 18  1  0
 12 19  1  0
 10 20  1  0
  9 21  1  0
  8 22  1  0
  3 23  1  0
  3 24  1  0
  2 25  1  0
 25 26  1  0
 26 27  2  0
 27 28  1  0
 28 29  2  0
 29 30  1  0
 30 31  2  0
 31 32  1  0
 29 33  1  0
 28 34  1  0
 27 35  1  0
 25 36  1  0
 16  7  1  0
 31 26  1  0
 16 11  1  0
M  END
>  <cnnaffinity>  (1) 
-5.11284

>  <filename>  (1) 
O=C(COC(=O)c1cccc2ccncc12)Nc1cccnc1

$$$$
