
     RDKit          3D

 27 28  0  0  0  0  0  0  0  0999 V2000
    4.5910    1.6976   28.4475 H   0  0  0  0  0  0  0  0  0  0  0  0
    4.9958    0.8173   28.3321 O   0  0  0  0  0  0  0  0  0  0  0  0
    5.5284    0.9908   27.1204 C   0  0  0  0  0  0  0  0  0  0  0  0
    5.3741    2.0534   26.5533 O   0  0  0  0  0  0  0  0  0  0  0  0
    6.3186   -0.1894   26.5159 C   0  0  0  0  0  0  0  0  0  0  0  0
    6.5004   -1.2992   27.2255 O   0  0  0  0  0  0  0  0  0  0  0  0
    7.1900   -1.8188   26.7238 H   0  0  0  0  0  0  0  0  0  0  0  0
    6.8106   -0.0663   25.2529 C   0  0  0  0  0  0  0  0  0  0  0  0
    6.6118    0.8389   24.6834 H   0  0  0  0  0  0  0  0  0  0  0  0
    7.5883   -1.1223   24.6238 C   0  0  0  0  0  0  0  0  0  0  0  0
    8.0849   -2.0483   25.2795 O   0  0  0  0  0  0  0  0  0  0  0  0
    7.7583   -1.0760   23.1258 C   0  0  0  0  0  0  0  0  0  0  0  0
    7.0643   -0.3534   22.2885 N   0  0  0  0  0  0  0  0  0  0  0  0
    7.4177   -0.6312   20.9946 C   0  0  0  0  0  0  0  0  0  0  0  0
    6.6707    0.0378   19.9260 C   0  0  0  0  0  0  0  0  0  0  0  0
    7.1830    0.0557   18.6247 C   0  0  0  0  0  0  0  0  0  0  0  0
    8.1253   -0.4352   18.3948 H   0  0  0  0  0  0  0  0  0  0  0  0
    6.5860    0.6572   17.5931 N   0  0  0  0  0  0  0  0  0  0  0  0
    5.4241    1.2829   17.8254 C   0  0  0  0  0  0  0  0  0  0  0  0
    4.9630    1.7813   16.9727 H   0  0  0  0  0  0  0  0  0  0  0  0
    4.8107    1.3107   19.0837 C   0  0  0  0  0  0  0  0  0  0  0  0
    3.8697    1.8354   19.2088 H   0  0  0  0  0  0  0  0  0  0  0  0
    5.4410    0.6821   20.1546 C   0  0  0  0  0  0  0  0  0  0  0  0
    4.9996    0.6874   21.1529 H   0  0  0  0  0  0  0  0  0  0  0  0
    8.4275   -1.5476   20.8632 C   0  0  0  0  0  0  0  0  0  0  0  0
    8.8953   -1.8844   19.9529 H   0  0  0  0  0  0  0  0  0  0  0  0
    8.9078   -2.1331   22.3950 S   0  0  0  0  0  0  0  0  0  0  0  0
  1  2  1  0
  2  3  1  0
  3  4  2  0
  3  5  1  0
  5  6  1  0
  6  7  1  0
  5  8  2  3
  8  9  1  0
  8 10  1  0
 10 11  2  0
 10 12  1  0
 12 13  2  0
 13 14  1  0
 14 15  1  0
 15 16  2  0
 16 17  1  0
 16 18  1  0
 18 19  2  0
 19 20  1  0
 19 21  1  0
 21 22  1  0
 21 23  2  0
 23 24  1  0
 14 25  2  0
 25 26  1  0
 25 27  1  0
 27 12  1  0
 23 15  1  0
M  END
>  <cnnaffinity>  (1) 
-4.58863

>  <filename>  (1) 
O=C(O)C(O)=CC(=O)c1nc(-c2cccnc2)cs1

$$$$
