
     RDKit          3D

 35 37  0  0  0  0  0  0  0  0999 V2000
    5.6201   -1.6584   21.8295 H   0  0  0  0  0  0  0  0  0  0  0  0
    6.6823   -1.5164   21.8738 C   0  0  0  0  0  0  0  0  0  0  0  0
    7.3324   -0.7494   20.9781 C   0  0  0  0  0  0  0  0  0  0  0  0
    6.6849    0.0215   19.9020 C   0  0  0  0  0  0  0  0  0  0  0  0
    7.2153    0.0830   18.5987 C   0  0  0  0  0  0  0  0  0  0  0  0
    8.1556   -0.4115   18.3494 H   0  0  0  0  0  0  0  0  0  0  0  0
    6.6097    0.6990   17.5771 N   0  0  0  0  0  0  0  0  0  0  0  0
    5.4429    1.3166   17.8185 C   0  0  0  0  0  0  0  0  0  0  0  0
    4.9689    1.8031   16.9670 H   0  0  0  0  0  0  0  0  0  0  0  0
    4.8384    1.3347   19.0775 C   0  0  0  0  0  0  0  0  0  0  0  0
    3.8933    1.8417   19.2121 H   0  0  0  0  0  0  0  0  0  0  0  0
    5.4665    0.6801   20.1339 C   0  0  0  0  0  0  0  0  0  0  0  0
    5.0460    0.6873   21.1399 H   0  0  0  0  0  0  0  0  0  0  0  0
    8.7177   -0.6998   21.0549 N   0  0  0  0  0  0  0  0  0  0  0  0
    9.2502   -0.0514   20.5049 H   0  0  0  0  0  0  0  0  0  0  0  0
    9.4789   -1.3962   21.9364 C   0  0  0  0  0  0  0  0  0  0  0  0
   11.1241   -1.2377   21.9685 S   0  0  0  0  0  0  0  0  0  0  0  0
    8.8090   -2.2182   22.7708 N   0  0  0  0  0  0  0  0  0  0  0  0
    9.3466   -2.4681   23.5798 H   0  0  0  0  0  0  0  0  0  0  0  0
    7.3844   -2.2156   22.9823 C   0  0  1  0  0  0  0  0  0  0  0  0
    6.9997   -3.2440   23.0633 H   0  0  0  0  0  0  0  0  0  0  0  0
    7.2333   -1.5937   24.2962 N   0  0  0  0  0  0  0  0  0  0  0  0
    7.5720   -0.6439   24.3014 H   0  0  0  0  0  0  0  0  0  0  0  0
    6.0718   -1.7859   25.0101 C   0  0  0  0  0  0  0  0  0  0  0  0
    5.2889   -2.6815   24.7409 O   0  0  0  0  0  0  0  0  0  0  0  0
    5.8494   -0.8323   26.2029 C   0  0  0  0  0  0  0  0  0  0  0  0
    4.5433   -0.5366   26.6480 C   0  0  0  0  0  0  0  0  0  0  0  0
    3.6673   -0.8685   26.1052 H   0  0  0  0  0  0  0  0  0  0  0  0
    4.3547    0.1927   27.8267 C   0  0  0  0  0  0  0  0  0  0  0  0
    3.3505    0.3880   28.1978 H   0  0  0  0  0  0  0  0  0  0  0  0
    5.3574    0.6687   28.5733 N   0  0  0  0  0  0  0  0  0  0  0  0
    6.6023    0.4140   28.1529 C   0  0  0  0  0  0  0  0  0  0  0  0
    7.4096    0.7819   28.7822 H   0  0  0  0  0  0  0  0  0  0  0  0
    6.8968   -0.2970   26.9849 C   0  0  0  0  0  0  0  0  0  0  0  0
    7.9428   -0.4306   26.7333 H   0  0  0  0  0  0  0  0  0  0  0  0
  1  2  1  0
  2  3  2  0
  3  4  1  0
  4  5  2  0
  5  6  1  0
  5  7  1  0
  7  8  2  0
  8  9  1  0
  8 10  1  0
 10 11  1  0
 10 12  2  0
 12 13  1  0
  3 14  1  0
 14 15  1  0
 14 16  1  0
 16 17  2  0
 16 18  1  0
 18 19  1  0
 18 20  1  0
 20 21  1  1
 20 22  1  0
 22 23  1  0
 22 24  1  0
 24 25  2  0
 24 26  1  0
 26 27  2  0
 27 28  1  0
 27 29  1  0
 29 30  1  0
 29 31  2  0
 31 32  1  0
 32 33  1  0
 32 34  2  0
 34 35  1  0
 20  2  1  0
 34 26  1  0
 12  4  1  0
M  END
>  <cnnaffinity>  (1) 
-4.94313

>  <filename>  (1) 
O=C(N[C@H]1C=C(c2cccnc2)NC(=S)N1)c1ccncc1

$$$$
