
     RDKit          3D

 27 29  0  0  0  0  0  0  0  0999 V2000
    9.4869   -0.1045   20.3250 O   0  0  0  0  0  0  0  0  0  0  0  0
    8.7113   -0.5416   21.1674 C   0  0  0  0  0  0  0  0  0  0  0  0
    7.3474   -0.5247   20.9756 N   0  0  0  0  0  0  0  0  0  0  0  0
    6.6853    0.0284   19.8722 C   0  0  0  0  0  0  0  0  0  0  0  0
    5.4456    0.5953   20.1243 C   0  0  0  0  0  0  0  0  0  0  0  0
    4.8096    1.2591   19.0751 C   0  0  0  0  0  0  0  0  0  0  0  0
    5.4105    1.2943   17.8074 C   0  0  0  0  0  0  0  0  0  0  0  0
    6.5816    0.6912   17.5323 N   0  0  0  0  0  0  0  0  0  0  0  0
    7.2126    0.0759   18.5558 C   0  0  0  0  0  0  0  0  0  0  0  0
    8.1708   -0.3993   18.3622 H   0  0  0  0  0  0  0  0  0  0  0  0
    4.9148    1.8410   17.0139 H   0  0  0  0  0  0  0  0  0  0  0  0
    3.8716    1.7758   19.2408 H   0  0  0  0  0  0  0  0  0  0  0  0
    5.0268    0.5565   21.1294 H   0  0  0  0  0  0  0  0  0  0  0  0
    6.7917   -0.7916   21.7842 H   0  0  0  0  0  0  0  0  0  0  0  0
    9.2079   -1.2239   22.3461 C   0  0  0  0  0  0  0  0  0  0  0  0
    8.5874   -1.3368   23.5801 C   0  0  0  0  0  0  0  0  0  0  0  0
    6.9549   -0.4363   24.0296 Br  0  0  0  0  0  0  0  0  0  0  0  0
    9.2576   -2.2998   24.4581 C   0  0  0  0  0  0  0  0  0  0  0  0
    8.8825   -2.6730   25.6982 N   0  0  0  0  0  0  0  0  0  0  0  0
    9.5359   -3.6974   26.2742 C   0  0  0  0  0  0  0  0  0  0  0  0
   10.5772   -4.3793   25.6437 C   0  0  0  0  0  0  0  0  0  0  0  0
   10.9912   -3.9706   24.3848 C   0  0  0  0  0  0  0  0  0  0  0  0
   10.3257   -2.9043   23.8011 C   0  0  0  0  0  0  0  0  0  0  0  0
   10.6314   -2.2306   22.2119 S   0  0  0  0  0  0  0  0  0  0  0  0
   11.7913   -4.4813   23.8715 H   0  0  0  0  0  0  0  0  0  0  0  0
   11.0612   -5.2069   26.1456 H   0  0  0  0  0  0  0  0  0  0  0  0
    9.2709   -4.0290   27.2713 H   0  0  0  0  0  0  0  0  0  0  0  0
  1  2  2  0
  2  3  1  0
  3  4  1  0
  4  5  2  0
  5  6  1  0
  6  7  2  0
  7  8  1  0
  8  9  2  0
  9 10  1  0
  7 11  1  0
  6 12  1  0
  5 13  1  0
  3 14  1  0
  2 15  1  0
 15 16  2  0
 16 17  1  0
 16 18  1  0
 18 19  2  0
 19 20  1  0
 20 21  2  0
 21 22  1  0
 22 23  2  0
 23 24  1  0
 22 25  1  0
 21 26  1  0
 20 27  1  0
  9  4  1  0
 24 15  1  0
 23 18  1  0
M  END
>  <cnnaffinity>  (1) 
-5.63973

>  <filename>  (1) 
O=C(Nc1cccnc1)c1sc2cccnc2c1Br

$$$$
