
     RDKit          3D

 32 33  0  0  0  0  0  0  0  0999 V2000
    4.9569    1.8196   16.9731 H   0  0  0  0  0  0  0  0  0  0  0  0
    5.3956    1.2941   17.8201 C   0  0  0  0  0  0  0  0  0  0  0  0
    6.5418    0.6426   17.5760 N   0  0  0  0  0  0  0  0  0  0  0  0
    7.1338    0.0222   18.5988 C   0  0  0  0  0  0  0  0  0  0  0  0
    8.0770   -0.4730   18.3754 H   0  0  0  0  0  0  0  0  0  0  0  0
    6.6140    0.0084   19.9013 C   0  0  0  0  0  0  0  0  0  0  0  0
    7.4395   -0.5954   21.0228 C   0  0  0  0  0  0  0  0  0  0  0  0
    8.0888   -1.6997   20.5659 F   0  0  0  0  0  0  0  0  0  0  0  0
    6.5909   -1.0274   22.0080 F   0  0  0  0  0  0  0  0  0  0  0  0
    8.5184    0.3913   21.6597 C   0  0  0  0  0  0  0  0  0  0  0  0
    9.6875    0.3102   21.3265 O   0  0  0  0  0  0  0  0  0  0  0  0
    8.1206    1.3665   22.5247 N   0  0  0  0  0  0  0  0  0  0  0  0
    7.1825    1.5454   22.8365 H   0  0  0  0  0  0  0  0  0  0  0  0
    9.0834    2.3198   23.0129 C   0  0  0  0  0  0  0  0  0  0  0  0
    9.8767    1.8359   23.6022 H   0  0  0  0  0  0  0  0  0  0  0  0
    9.5610    2.8862   22.1989 H   0  0  0  0  0  0  0  0  0  0  0  0
    8.3163    3.1761   23.8207 O   0  0  0  0  0  0  0  0  0  0  0  0
    8.9732    4.1948   24.4598 C   0  0  0  0  0  0  0  0  0  0  0  0
    8.1719    5.0276   25.2584 C   0  0  0  0  0  0  0  0  0  0  0  0
    7.1071    4.8221   25.3095 H   0  0  0  0  0  0  0  0  0  0  0  0
    8.7529    6.0876   25.9533 C   0  0  0  0  0  0  0  0  0  0  0  0
    8.1296    6.7344   26.5683 H   0  0  0  0  0  0  0  0  0  0  0  0
   10.1306    6.3280   25.8606 C   0  0  0  0  0  0  0  0  0  0  0  0
   10.5774    7.1555   26.4013 H   0  0  0  0  0  0  0  0  0  0  0  0
   10.9258    5.5036   25.0645 C   0  0  0  0  0  0  0  0  0  0  0  0
   11.9973    5.6807   24.9824 H   0  0  0  0  0  0  0  0  0  0  0  0
   10.3531    4.4365   24.3616 C   0  0  0  0  0  0  0  0  0  0  0  0
   10.9697    3.7974   23.7395 H   0  0  0  0  0  0  0  0  0  0  0  0
    5.3909    0.6552   20.1365 C   0  0  0  0  0  0  0  0  0  0  0  0
    4.9235    0.6390   21.1215 H   0  0  0  0  0  0  0  0  0  0  0  0
    4.7782    1.3189   19.0744 C   0  0  0  0  0  0  0  0  0  0  0  0
    3.8550    1.8744   19.2076 H   0  0  0  0  0  0  0  0  0  0  0  0
  1  2  1  0
  2  3  2  0
  3  4  1  0
  4  5  1  0
  4  6  2  0
  6  7  1  0
  7  8  1  0
  7  9  1  0
  7 10  1  0
 10 11  2  0
 10 12  1  0
 12 13  1  0
 12 14  1  0
 14 15  1  0
 14 16  1  0
 14 17  1  0
 17 18  1  0
 18 19  2  0
 19 20  1  0
 19 21  1  0
 21 22  1  0
 21 23  2  0
 23 24  1  0
 23 25  1  0
 25 26  1  0
 25 27  2  0
 27 28  1  0
  6 29  1  0
 29 30  1  0
 29 31  2  0
 31 32  1  0
 31  2  1  0
 27 18  1  0
M  END
>  <cnnaffinity>  (1) 
-4.73917

>  <filename>  (1) 
O=C(NCOc1ccccc1)C(F)(F)c1cccnc1

$$$$
