
     RDKit          3D

 29 30  0  0  0  0  0  0  0  0999 V2000
    6.5269   -7.0190   27.3278 H   0  0  0  0  0  0  0  0  0  0  0  0
    6.7574   -6.1220   27.6398 O   0  0  0  0  0  0  0  0  0  0  0  0
    7.2510   -5.4270   26.5417 N   0  0  0  0  0  0  0  0  0  0  0  0
    8.1234   -4.9803   26.7841 H   0  0  0  0  0  0  0  0  0  0  0  0
    6.4223   -4.6749   25.7146 C   0  0  0  0  0  0  0  0  0  0  0  0
    5.2234   -4.8196   25.6268 O   0  0  0  0  0  0  0  0  0  0  0  0
    7.2400   -3.7685   24.8508 C   0  0  0  0  0  0  0  0  0  0  0  0
    8.3063   -3.7343   25.0710 H   0  0  0  0  0  0  0  0  0  0  0  0
    6.7185   -3.0676   23.8279 C   0  0  0  0  0  0  0  0  0  0  0  0
    5.6435   -3.1285   23.6448 H   0  0  0  0  0  0  0  0  0  0  0  0
    7.4460   -2.2011   22.8757 C   0  0  0  0  0  0  0  0  0  0  0  0
    8.7740   -2.0580   23.0161 N   0  0  0  0  0  0  0  0  0  0  0  0
    9.4097   -1.2512   22.1580 C   0  0  0  0  0  0  0  0  0  0  0  0
   10.4828   -1.1537   22.3119 H   0  0  0  0  0  0  0  0  0  0  0  0
    8.7711   -0.5680   21.1238 C   0  0  0  0  0  0  0  0  0  0  0  0
    9.3374    0.0873   20.4716 H   0  0  0  0  0  0  0  0  0  0  0  0
    7.3831   -0.7123   20.9685 C   0  0  0  0  0  0  0  0  0  0  0  0
    6.6443    0.0132   19.8917 C   0  0  0  0  0  0  0  0  0  0  0  0
    7.1530    0.0676   18.5819 C   0  0  0  0  0  0  0  0  0  0  0  0
    8.0958   -0.4260   18.3471 H   0  0  0  0  0  0  0  0  0  0  0  0
    6.5522    0.6814   17.5537 N   0  0  0  0  0  0  0  0  0  0  0  0
    5.3927    1.3104   17.8067 C   0  0  0  0  0  0  0  0  0  0  0  0
    4.9273    1.8151   16.9619 H   0  0  0  0  0  0  0  0  0  0  0  0
    4.7865    1.3326   19.0696 C   0  0  0  0  0  0  0  0  0  0  0  0
    3.8483    1.8674   19.2109 H   0  0  0  0  0  0  0  0  0  0  0  0
    5.4217    0.6705   20.1227 C   0  0  0  0  0  0  0  0  0  0  0  0
    4.9926    0.6745   21.1259 H   0  0  0  0  0  0  0  0  0  0  0  0
    6.7180   -1.5583   21.8585 C   0  0  0  0  0  0  0  0  0  0  0  0
    5.6494   -1.7205   21.7612 H   0  0  0  0  0  0  0  0  0  0  0  0
  1  2  1  0
  2  3  1  0
  3  4  1  0
  3  5  1  0
  5  6  2  0
  5  7  1  0
  7  8  1  0
  7  9  2  3
  9 10  1  0
  9 11  1  0
 11 12  2  0
 12 13  1  0
 13 14  1  0
 13 15  2  0
 15 16  1  0
 15 17  1  0
 17 18  1  0
 18 19  2  0
 19 20  1  0
 19 21  1  0
 21 22  2  0
 22 23  1  0
 22 24  1  0
 24 25  1  0
 24 26  2  0
 26 27  1  0
 17 28  2  0
 28 29  1  0
 28 11  1  0
 26 18  1  0
M  END
>  <cnnaffinity>  (1) 
-4.71923

>  <filename>  (1) 
O=C(C=Cc1cc(-c2cccnc2)ccn1)NO

$$$$
