
     RDKit          3D

 34 36  0  0  0  0  0  0  0  0999 V2000
    5.1890    1.7706   16.9935 H   0  0  0  0  0  0  0  0  0  0  0  0
    5.5275    1.2578   17.8902 C   0  0  0  0  0  0  0  0  0  0  0  0
    6.6713    0.5727   17.7724 N   0  0  0  0  0  0  0  0  0  0  0  0
    7.1251   -0.0533   18.8566 C   0  0  0  0  0  0  0  0  0  0  0  0
    8.0668   -0.5837   18.7153 H   0  0  0  0  0  0  0  0  0  0  0  0
    6.4895   -0.0326   20.1053 C   0  0  0  0  0  0  0  0  0  0  0  0
    7.0948   -0.7626   21.2510 C   0  0  0  0  0  0  0  0  0  0  0  0
    6.4498   -1.0581   22.2369 O   0  0  0  0  0  0  0  0  0  0  0  0
    8.5366   -1.2187   21.1415 C   0  0  0  0  0  0  0  0  0  0  0  0
    8.5554   -2.1586   20.5842 H   0  0  0  0  0  0  0  0  0  0  0  0
    9.2936   -1.2928   22.4903 C   0  0  0  0  0  0  0  0  0  0  0  0
    9.8873   -2.2083   22.6234 H   0  0  0  0  0  0  0  0  0  0  0  0
    8.7066   -1.1195   23.3973 H   0  0  0  0  0  0  0  0  0  0  0  0
   10.0799   -0.1579   22.0347 N   0  0  0  0  0  0  0  0  0  0  0  0
   11.0874    0.5372   22.6206 C   0  0  0  0  0  0  0  0  0  0  0  0
   11.5331    1.6454   22.0062 N   0  0  0  0  0  0  0  0  0  0  0  0
   12.4983    2.3397   22.6452 C   0  0  0  0  0  0  0  0  0  0  0  0
   12.9432    3.7630   22.1680 C   0  0  0  0  0  0  0  0  0  0  0  0
   12.3739    4.7269   22.9264 F   0  0  0  0  0  0  0  0  0  0  0  0
   12.6723    4.0605   20.8969 F   0  0  0  0  0  0  0  0  0  0  0  0
   14.2799    3.9165   22.3269 F   0  0  0  0  0  0  0  0  0  0  0  0
   13.1221    1.8803   23.8157 C   0  0  0  0  0  0  0  0  0  0  0  0
   13.9734    2.4169   24.1881 H   0  0  0  0  0  0  0  0  0  0  0  0
   12.6380    0.7346   24.4503 C   0  0  0  0  0  0  0  0  0  0  0  0
   13.0694    0.3749   25.3870 H   0  0  0  0  0  0  0  0  0  0  0  0
   11.5843    0.0692   23.8566 C   0  0  0  0  0  0  0  0  0  0  0  0
   11.1021   -0.7842   24.3139 H   0  0  0  0  0  0  0  0  0  0  0  0
    9.5876   -0.1725   20.6856 C   0  0  0  0  0  0  0  0  0  0  0  0
    9.2586    0.8082   20.3228 H   0  0  0  0  0  0  0  0  0  0  0  0
   10.2704   -0.5917   19.9423 H   0  0  0  0  0  0  0  0  0  0  0  0
    5.2702    0.6618   20.2108 C   0  0  0  0  0  0  0  0  0  0  0  0
    4.7134    0.6846   21.1491 H   0  0  0  0  0  0  0  0  0  0  0  0
    4.7980    1.3244   19.0808 C   0  0  0  0  0  0  0  0  0  0  0  0
    3.8787    1.8950   19.0981 H   0  0  0  0  0  0  0  0  0  0  0  0
  1  2  1  0
  2  3  2  0
  3  4  1  0
  4  5  1  0
  4  6  2  0
  6  7  1  0
  7  8  2  0
  7  9  1  0
  9 10  1  0
  9 11  1  0
 11 12  1  0
 11 13  1  0
 11 14  1  0
 14 15  1  0
 15 16  2  0
 16 17  1  0
 17 18  1  0
 18 19  1  0
 18 20  1  0
 18 21  1  0
 17 22  2  0
 22 23  1  0
 22 24  1  0
 24 25  1  0
 24 26  2  0
 26 27  1  0
 14 28  1  0
 28 29  1  0
 28 30  1  0
  6 31  1  0
 31 32  1  0
 31 33  2  0
 33 34  1  0
 33  2  1  0
 28  9  1  0
 26 15  1  0
M  END
>  <cnnaffinity>  (1) 
-4.77751

>  <filename>  (1) 
O=C(c1cccnc1)C1CN(c2cccc(C(F)(F)F)n2)C1

$$$$
