
     RDKit          3D

 32 34  0  0  0  0  0  0  0  0999 V2000
    8.5682   -3.7444   21.3286 H   0  0  0  0  0  0  0  0  0  0  0  0
    8.3224   -2.7265   21.6098 C   0  0  0  0  0  0  0  0  0  0  0  0
    7.7492   -1.9868   20.6585 N   0  0  0  0  0  0  0  0  0  0  0  0
    7.3927   -0.7304   20.9623 C   0  0  0  0  0  0  0  0  0  0  0  0
    6.6489   -0.0085   19.9119 C   0  0  0  0  0  0  0  0  0  0  0  0
    7.1672    0.0340   18.6113 C   0  0  0  0  0  0  0  0  0  0  0  0
    8.1168   -0.4424   18.3710 H   0  0  0  0  0  0  0  0  0  0  0  0
    6.5744    0.6653   17.5928 N   0  0  0  0  0  0  0  0  0  0  0  0
    5.4113    1.2855   17.8457 C   0  0  0  0  0  0  0  0  0  0  0  0
    4.9327    1.7785   17.0010 H   0  0  0  0  0  0  0  0  0  0  0  0
    4.8074    1.2983   19.1077 C   0  0  0  0  0  0  0  0  0  0  0  0
    3.8794    1.8394   19.2566 H   0  0  0  0  0  0  0  0  0  0  0  0
    5.4338    0.6406   20.1625 C   0  0  0  0  0  0  0  0  0  0  0  0
    4.9915    0.6425   21.1613 H   0  0  0  0  0  0  0  0  0  0  0  0
    7.6729   -0.1622   22.2271 C   0  0  0  0  0  0  0  0  0  0  0  0
    7.4122    1.2961   22.4703 C   0  0  0  0  0  0  0  0  0  0  0  0
    7.7638    2.1198   21.6490 O   0  0  0  0  0  0  0  0  0  0  0  0
    6.7309    1.7114   23.7619 C   0  0  0  0  0  0  0  0  0  0  0  0
    6.9085    3.0234   24.2474 C   0  0  0  0  0  0  0  0  0  0  0  0
    7.5331    3.7181   23.6918 H   0  0  0  0  0  0  0  0  0  0  0  0
    6.2851    3.4461   25.4211 C   0  0  0  0  0  0  0  0  0  0  0  0
    6.4170    4.4589   25.7930 H   0  0  0  0  0  0  0  0  0  0  0  0
    5.4672    2.5519   26.1186 C   0  0  0  0  0  0  0  0  0  0  0  0
    4.6866    3.0741   27.5801 Cl  0  0  0  0  0  0  0  0  0  0  0  0
    5.2627    1.2492   25.6608 C   0  0  0  0  0  0  0  0  0  0  0  0
    4.6242    0.5712   26.2214 H   0  0  0  0  0  0  0  0  0  0  0  0
    5.8945    0.8362   24.4871 C   0  0  0  0  0  0  0  0  0  0  0  0
    5.7356   -0.1834   24.1442 H   0  0  0  0  0  0  0  0  0  0  0  0
    8.3007   -0.9429   23.2090 C   0  0  0  0  0  0  0  0  0  0  0  0
    8.5241   -0.5207   24.1920 H   0  0  0  0  0  0  0  0  0  0  0  0
    8.6262   -2.2567   22.8923 C   0  0  0  0  0  0  0  0  0  0  0  0
    9.1191   -2.9021   23.6088 H   0  0  0  0  0  0  0  0  0  0  0  0
  1  2  1  0
  2  3  2  0
  3  4  1  0
  4  5  1  0
  5  6  2  0
  6  7  1  0
  6  8  1  0
  8  9  2  0
  9 10  1  0
  9 11  1  0
 11 12  1  0
 11 13  2  0
 13 14  1  0
  4 15  2  0
 15 16  1  0
 16 17  2  0
 16 18  1  0
 18 19  2  0
 19 20  1  0
 19 21  1  0
 21 22  1  0
 21 23  2  0
 23 24  1  0
 23 25  1  0
 25 26  1  0
 25 27  2  0
 27 28  1  0
 15 29  1  0
 29 30  1  0
 29 31  2  0
 31 32  1  0
 31  2  1  0
 13  5  1  0
 27 18  1  0
M  END
>  <cnnaffinity>  (1) 
-5.00878

>  <filename>  (1) 
O=C(c1ccc(Cl)cc1)c1cccnc1-c1cccnc1

$$$$
