
     RDKit          3D

 32 34  0  0  0  0  0  0  0  0999 V2000
    4.9227    1.8265   16.9471 H   0  0  0  0  0  0  0  0  0  0  0  0
    5.3777    1.3357   17.8031 C   0  0  0  0  0  0  0  0  0  0  0  0
    6.5428    0.7124   17.5718 N   0  0  0  0  0  0  0  0  0  0  0  0
    7.1325    0.1121   18.6064 C   0  0  0  0  0  0  0  0  0  0  0  0
    8.0585   -0.4290   18.4133 H   0  0  0  0  0  0  0  0  0  0  0  0
    6.6196    0.1362   19.9099 C   0  0  0  0  0  0  0  0  0  0  0  0
    7.3709   -0.5954   20.9494 C   0  0  0  0  0  0  0  0  0  0  0  0
    8.0255   -1.6413   20.5436 N   0  0  0  0  0  0  0  0  0  0  0  0
    8.4965   -2.5000   21.4930 C   0  0  0  0  0  0  0  0  0  0  0  0
    8.7495   -3.6680   21.3211 O   0  0  0  0  0  0  0  0  0  0  0  0
    8.6847   -1.9890   22.7882 N   0  0  0  0  0  0  0  0  0  0  0  0
    9.0796   -2.7160   23.3618 H   0  0  0  0  0  0  0  0  0  0  0  0
    8.0431   -0.8688   23.2616 C   0  0  0  0  0  0  0  0  0  0  0  0
    8.1040   -0.5287   24.7696 C   0  0  0  0  0  0  0  0  0  0  0  0
    8.2103   -1.4254   25.5850 O   0  0  0  0  0  0  0  0  0  0  0  0
    8.0405    0.9223   25.1617 C   0  0  0  0  0  0  0  0  0  0  0  0
    8.6416    1.9132   24.3592 C   0  0  0  0  0  0  0  0  0  0  0  0
    9.1451    1.6388   23.4329 H   0  0  0  0  0  0  0  0  0  0  0  0
    8.5968    3.2545   24.7340 C   0  0  0  0  0  0  0  0  0  0  0  0
    9.0357    4.0324   24.1191 H   0  0  0  0  0  0  0  0  0  0  0  0
    7.9379    3.5935   25.9133 C   0  0  0  0  0  0  0  0  0  0  0  0
    7.8721    4.8838   26.2714 F   0  0  0  0  0  0  0  0  0  0  0  0
    7.3368    2.6400   26.7331 C   0  0  0  0  0  0  0  0  0  0  0  0
    6.8141    2.9546   27.6301 H   0  0  0  0  0  0  0  0  0  0  0  0
    7.4045    1.2990   26.3589 C   0  0  0  0  0  0  0  0  0  0  0  0
    6.9652    0.5308   26.9913 H   0  0  0  0  0  0  0  0  0  0  0  0
    7.3452   -0.1603   22.3120 C   0  0  0  0  0  0  0  0  0  0  0  0
    6.8107    0.7365   22.5604 H   0  0  0  0  0  0  0  0  0  0  0  0
    5.3834    0.7510   20.1343 C   0  0  0  0  0  0  0  0  0  0  0  0
    4.9151    0.7061   21.1188 H   0  0  0  0  0  0  0  0  0  0  0  0
    4.7545    1.3658   19.0544 C   0  0  0  0  0  0  0  0  0  0  0  0
    3.8051    1.8738   19.1701 H   0  0  0  0  0  0  0  0  0  0  0  0
  1  2  1  0
  2  3  2  0
  3  4  1  0
  4  5  1  0
  4  6  2  0
  6  7  1  0
  7  8  2  0
  8  9  1  0
  9 10  2  0
  9 11  1  0
 11 12  1  0
 11 13  1  0
 13 14  1  0
 14 15  2  0
 14 16  1  0
 16 17  2  0
 17 18  1  0
 17 19  1  0
 19 20  1  0
 19 21  2  0
 21 22  1  0
 21 23  1  0
 23 24  1  0
 23 25  2  0
 25 26  1  0
 13 27  2  0
 27 28  1  0
  6 29  1  0
 29 30  1  0
 29 31  2  0
 31 32  1  0
 31  2  1  0
 27  7  1  0
 25 16  1  0
M  END
>  <cnnaffinity>  (1) 
-5.21192

>  <filename>  (1) 
O=C(c1ccc(F)cc1)c1cc(-c2cccnc2)nc(=O)[nH]1

$$$$
