
     RDKit          3D

 30 31  0  0  0  0  0  0  0  0999 V2000
    5.1398   -6.4950   22.2321 H   0  0  0  0  0  0  0  0  0  0  0  0
    5.4300   -6.5362   23.1628 O   0  0  0  0  0  0  0  0  0  0  0  0
    6.4194   -5.5742   23.3314 N   0  0  0  0  0  0  0  0  0  0  0  0
    7.2829   -5.9614   23.6782 H   0  0  0  0  0  0  0  0  0  0  0  0
    6.1838   -4.2627   23.6485 C   0  0  0  0  0  0  0  0  0  0  0  0
    5.1631   -3.6497   23.4215 O   0  0  0  0  0  0  0  0  0  0  0  0
    7.4378   -3.5696   24.1343 C   0  0  0  0  0  0  0  0  0  0  0  0
    7.1391   -2.7067   24.7220 H   0  0  0  0  0  0  0  0  0  0  0  0
    8.0848   -4.2115   24.7333 H   0  0  0  0  0  0  0  0  0  0  0  0
    8.1681   -3.1928   22.8675 C   0  0  0  0  0  0  0  0  0  0  0  0
    8.6108   -4.0785   22.1680 O   0  0  0  0  0  0  0  0  0  0  0  0
    8.3239   -1.7391   22.5180 C   0  0  0  0  0  0  0  0  0  0  0  0
    9.0496   -1.2969   23.2070 H   0  0  0  0  0  0  0  0  0  0  0  0
    7.0041   -0.9201   22.3799 C   0  0  0  0  0  0  0  0  0  0  0  0
    6.9716    0.0131   22.9613 H   0  0  0  0  0  0  0  0  0  0  0  0
    6.0728   -1.4845   22.5357 H   0  0  0  0  0  0  0  0  0  0  0  0
    7.3499   -0.7264   20.9826 N   0  0  0  0  0  0  0  0  0  0  0  0
    6.7113   -0.0598   19.9670 C   0  0  0  0  0  0  0  0  0  0  0  0
    7.2225    0.0052   18.6357 C   0  0  0  0  0  0  0  0  0  0  0  0
    8.1736   -0.4727   18.3977 H   0  0  0  0  0  0  0  0  0  0  0  0
    6.6111    0.6324   17.6215 N   0  0  0  0  0  0  0  0  0  0  0  0
    5.4483    1.2540   17.8859 C   0  0  0  0  0  0  0  0  0  0  0  0
    4.9761    1.7659   17.0518 H   0  0  0  0  0  0  0  0  0  0  0  0
    4.8510    1.2635   19.1538 C   0  0  0  0  0  0  0  0  0  0  0  0
    3.9125    1.7966   19.3075 H   0  0  0  0  0  0  0  0  0  0  0  0
    5.4863    0.6035   20.2079 C   0  0  0  0  0  0  0  0  0  0  0  0
    5.0548    0.6017   21.2090 H   0  0  0  0  0  0  0  0  0  0  0  0
    8.6063   -1.4433   21.0224 C   0  0  0  0  0  0  0  0  0  0  0  0
    8.6370   -2.3209   20.3757 H   0  0  0  0  0  0  0  0  0  0  0  0
    9.4812   -0.8147   20.8133 H   0  0  0  0  0  0  0  0  0  0  0  0
  1  2  1  0
  2  3  1  0
  3  4  1  0
  3  5  1  0
  5  6  2  0
  5  7  1  0
  7  8  1  0
  7  9  1  0
  7 10  1  0
 10 11  2  0
 10 12  1  0
 12 13  1  0
 12 14  1  0
 14 15  1  0
 14 16  1  0
 14 17  1  0
 17 18  1  0
 18 19  2  0
 19 20  1  0
 19 21  1  0
 21 22  2  0
 22 23  1  0
 22 24  1  0
 24 25  1  0
 24 26  2  0
 26 27  1  0
 17 28  1  0
 28 29  1  0
 28 30  1  0
 28 12  1  0
 26 18  1  0
M  END
>  <cnnaffinity>  (1) 
-4.93363

>  <filename>  (1) 
O=C(CC(=O)C1CN(c2cccnc2)C1)NO

$$$$
