
     RDKit          3D

 47 49  0  0  0  0  0  0  0  0999 V2000
    8.5823   -1.7710   24.8591 O   0  0  0  0  0  0  0  0  0  0  0  0
    8.0329   -0.9473   24.1420 C   0  0  0  0  0  0  0  0  0  0  0  0
    6.5989   -0.4935   24.3756 C   0  0  0  0  0  0  0  0  0  0  0  0
    6.5354    0.8249   25.1709 C   0  0  0  0  0  0  0  0  0  0  0  0
    7.1758    0.7773   26.5703 C   0  0  0  0  0  0  0  0  0  0  0  0
    7.1342    2.1449   27.2133 C   0  0  0  0  0  0  0  0  0  0  0  0
    8.1091    3.0998   26.8704 C   0  0  0  0  0  0  0  0  0  0  0  0
    8.0537    4.4001   27.3748 C   0  0  0  0  0  0  0  0  0  0  0  0
    7.0449    4.7629   28.2715 C   0  0  0  0  0  0  0  0  0  0  0  0
    6.0759    3.8314   28.6458 C   0  0  0  0  0  0  0  0  0  0  0  0
    6.1080    2.5478   28.0863 C   0  0  0  0  0  0  0  0  0  0  0  0
    4.7394    1.5073   28.3974 Cl  0  0  0  0  0  0  0  0  0  0  0  0
    5.2879    4.0925   29.3472 H   0  0  0  0  0  0  0  0  0  0  0  0
    6.9935    5.7793   28.6555 H   0  0  0  0  0  0  0  0  0  0  0  0
    8.7856    5.1306   27.0493 H   0  0  0  0  0  0  0  0  0  0  0  0
    8.9101    2.8259   26.1821 H   0  0  0  0  0  0  0  0  0  0  0  0
    6.6533    0.0466   27.2022 H   0  0  0  0  0  0  0  0  0  0  0  0
    8.2272    0.4587   26.5052 H   0  0  0  0  0  0  0  0  0  0  0  0
    5.4840    1.1244   25.2587 H   0  0  0  0  0  0  0  0  0  0  0  0
    7.0312    1.6188   24.5901 H   0  0  0  0  0  0  0  0  0  0  0  0
    6.1032   -0.3285   23.4176 H   0  0  0  0  0  0  0  0  0  0  0  0
    6.0718   -1.3010   24.8901 H   0  0  0  0  0  0  0  0  0  0  0  0
    8.7091   -0.3042   23.1381 N   0  0  0  0  0  0  0  0  0  0  0  0
   10.1700   -0.2445   23.1639 C   0  0  0  0  0  0  0  0  0  0  0  0
   10.4880    0.9301   22.2437 C   0  0  0  0  0  0  0  0  0  0  0  0
    9.3312    0.9628   21.2404 C   0  0  0  0  0  0  0  0  0  0  0  0
    8.1181    0.3259   21.9509 C   0  0  0  0  0  0  0  0  0  0  0  0
    7.3610   -0.6779   21.0370 C   0  0  0  0  0  0  0  0  0  0  0  0
    6.6304   -0.0166   19.8821 C   0  0  0  0  0  0  0  0  0  0  0  0
    5.4110    0.6443   20.1006 C   0  0  0  0  0  0  0  0  0  0  0  0
    4.7953    1.3130   19.0408 C   0  0  0  0  0  0  0  0  0  0  0  0
    5.4147    1.3083   17.7872 C   0  0  0  0  0  0  0  0  0  0  0  0
    6.5615    0.6603   17.5388 N   0  0  0  0  0  0  0  0  0  0  0  0
    7.1421    0.0236   18.5686 C   0  0  0  0  0  0  0  0  0  0  0  0
    8.0708   -0.4955   18.3268 H   0  0  0  0  0  0  0  0  0  0  0  0
    4.9676    1.8510   16.9531 H   0  0  0  0  0  0  0  0  0  0  0  0
    3.8667    1.8555   19.1780 H   0  0  0  0  0  0  0  0  0  0  0  0
    4.9447    0.6455   21.0908 H   0  0  0  0  0  0  0  0  0  0  0  0
    6.6365   -1.2384   21.6366 H   0  0  0  0  0  0  0  0  0  0  0  0
    8.0832   -1.4170   20.6677 H   0  0  0  0  0  0  0  0  0  0  0  0
    7.4146    1.1144   22.2655 H   0  0  0  0  0  0  0  0  0  0  0  0
    9.5922    0.3690   20.3561 H   0  0  0  0  0  0  0  0  0  0  0  0
    9.1138    1.9774   20.8962 H   0  0  0  0  0  0  0  0  0  0  0  0
   11.4589    0.8150   21.7543 H   0  0  0  0  0  0  0  0  0  0  0  0
   10.5217    1.8559   22.8306 H   0  0  0  0  0  0  0  0  0  0  0  0
   10.5941   -1.2018   22.8276 H   0  0  0  0  0  0  0  0  0  0  0  0
   10.5211   -0.0492   24.1833 H   0  0  0  0  0  0  0  0  0  0  0  0
  1  2  2  0
  2  3  1  0
  3  4  1  0
  4  5  1  0
  5  6  1  0
  6  7  2  0
  7  8  1  0
  8  9  2  0
  9 10  1  0
 10 11  2  0
 11 12  1  0
 10 13  1  0
  9 14  1  0
  8 15  1  0
  7 16  1  0
  5 17  1  0
  5 18  1  0
  4 19  1  0
  4 20  1  0
  3 21  1  0
  3 22  1  0
  2 23  1  0
 23 24  1  0
 24 25  1  0
 25 26  1  0
 26 27  1  0
 27 28  1  0
 28 29  1  0
 29 30  2  0
 30 31  1  0
 31 32  2  0
 32 33  1  0
 33 34  2  0
 34 35  1  0
 32 36  1  0
 31 37  1  0
 30 38  1  0
 28 39  1  0
 28 40  1  0
 27 41  1  0
 26 42  1  0
 26 43  1  0
 25 44  1  0
 25 45  1  0
 24 46  1  0
 24 47  1  0
 11  6  1  0
 27 23  1  0
 34 29  1  0
M  END
>  <cnnaffinity>  (1) 
-5.62498

>  <filename>  (1) 
O=C(CCCc1ccccc1Cl)N1CCCC1Cc1cccnc1

$$$$
