
     RDKit          3D

 35 37  0  0  0  0  0  0  0  0999 V2000
    7.9640   -2.7411   23.4343 O   0  0  0  0  0  0  0  0  0  0  0  0
    7.0875   -3.1412   22.7150 C   0  0  0  0  0  0  0  0  0  0  0  0
    6.3729   -4.4466   22.9502 C   0  0  0  0  0  0  0  0  0  0  0  0
    5.1153   -4.2149   23.7217 C   0  0  0  0  0  0  0  0  0  0  0  0
    3.8071   -4.4327   23.3926 C   0  0  0  0  0  0  0  0  0  0  0  0
    3.0151   -3.9237   24.4727 C   0  0  0  0  0  0  0  0  0  0  0  0
    1.6263   -3.8319   24.6950 C   0  0  0  0  0  0  0  0  0  0  0  0
    1.1945   -3.3020   25.9022 C   0  0  0  0  0  0  0  0  0  0  0  0
   -0.5127   -3.1649   26.2149 Cl  0  0  0  0  0  0  0  0  0  0  0  0
    2.1045   -2.8464   26.8898 C   0  0  0  0  0  0  0  0  0  0  0  0
    3.4765   -2.8969   26.6640 C   0  0  0  0  0  0  0  0  0  0  0  0
    3.9191   -3.4242   25.4427 C   0  0  0  0  0  0  0  0  0  0  0  0
    5.1921   -3.6041   24.9519 N   0  0  0  0  0  0  0  0  0  0  0  0
    6.0061   -3.1058   25.2835 H   0  0  0  0  0  0  0  0  0  0  0  0
    4.1986   -2.5426   27.3947 H   0  0  0  0  0  0  0  0  0  0  0  0
    1.7036   -2.4604   27.8228 H   0  0  0  0  0  0  0  0  0  0  0  0
    0.9233   -4.1678   23.9385 H   0  0  0  0  0  0  0  0  0  0  0  0
    3.4372   -4.8677   22.4714 H   0  0  0  0  0  0  0  0  0  0  0  0
    6.1397   -4.9184   21.9975 H   0  0  0  0  0  0  0  0  0  0  0  0
    7.0606   -5.0749   23.5209 H   0  0  0  0  0  0  0  0  0  0  0  0
    6.5160   -2.4153   21.6414 N   0  0  0  0  0  0  0  0  0  0  0  0
    7.3627   -0.9745   21.4686 S   0  0  0  0  0  0  0  0  0  0  0  0
    6.9965   -0.2056   22.6361 O   0  0  0  0  0  0  0  0  0  0  0  0
    8.6969   -1.3134   21.0398 O   0  0  0  0  0  0  0  0  0  0  0  0
    6.5122   -0.3040   20.1236 C   0  0  0  0  0  0  0  0  0  0  0  0
    5.3800    0.5001   20.2911 C   0  0  0  0  0  0  0  0  0  0  0  0
    4.8959    1.1326   19.1522 C   0  0  0  0  0  0  0  0  0  0  0  0
    5.5557    0.9368   17.9331 C   0  0  0  0  0  0  0  0  0  0  0  0
    6.6173    0.1297   17.7943 N   0  0  0  0  0  0  0  0  0  0  0  0
    7.0926   -0.4851   18.8765 C   0  0  0  0  0  0  0  0  0  0  0  0
    7.9751   -1.1039   18.7282 H   0  0  0  0  0  0  0  0  0  0  0  0
    5.2088    1.4424   17.0304 H   0  0  0  0  0  0  0  0  0  0  0  0
    4.0436    1.8008   19.2000 H   0  0  0  0  0  0  0  0  0  0  0  0
    4.9192    0.6550   21.2712 H   0  0  0  0  0  0  0  0  0  0  0  0
    5.6095   -2.0819   21.9615 H   0  0  0  0  0  0  0  0  0  0  0  0
  1  2  2  0
  2  3  1  0
  3  4  1  0
  4  5  2  0
  5  6  1  0
  6  7  2  0
  7  8  1  0
  8  9  1  0
  8 10  2  0
 10 11  1  0
 11 12  2  0
 12 13  1  0
 13 14  1  0
 11 15  1  0
 10 16  1  0
  7 17  1  0
  5 18  1  0
  3 19  1  0
  3 20  1  0
  2 21  1  0
 21 22  1  0
 22 23  2  0
 22 24  2  0
 22 25  1  0
 25 26  2  0
 26 27  1  0
 27 28  2  0
 28 29  1  0
 29 30  2  0
 30 31  1  0
 28 32  1  0
 27 33  1  0
 26 34  1  0
 21 35  1  0
 13  4  1  0
 30 25  1  0
 12  6  1  0
M  END
>  <cnnaffinity>  (1) 
-5.29282

>  <filename>  (1) 
O=C(Cc1cc2cc(Cl)ccc2[nH]1)NS(=O)(=O)c1cccnc1

$$$$
