
     RDKit          3D

 38 40  0  0  0  0  0  0  0  0999 V2000
    5.0621    1.7355   16.9894 H   0  0  0  0  0  0  0  0  0  0  0  0
    5.4862    1.2536   17.8683 C   0  0  0  0  0  0  0  0  0  0  0  0
    6.6412    0.5965   17.6854 N   0  0  0  0  0  0  0  0  0  0  0  0
    7.1821   -0.0033   18.7470 C   0  0  0  0  0  0  0  0  0  0  0  0
    8.1183   -0.5345   18.5830 H   0  0  0  0  0  0  0  0  0  0  0  0
    6.6242    0.0374   20.0295 C   0  0  0  0  0  0  0  0  0  0  0  0
    7.4395   -0.6486   21.0750 C   0  0  0  0  0  0  0  0  0  0  0  0
    8.2605   -1.5054   20.7896 O   0  0  0  0  0  0  0  0  0  0  0  0
    7.2552   -0.2400   22.3698 N   0  0  0  0  0  0  0  0  0  0  0  0
    7.0043    1.1250   22.8766 C   0  0  0  0  0  0  0  0  0  0  0  0
    5.9560    1.3903   23.0537 H   0  0  0  0  0  0  0  0  0  0  0  0
    7.4810    1.9275   22.2929 H   0  0  0  0  0  0  0  0  0  0  0  0
    7.7846    0.7365   24.1652 C   0  0  0  0  0  0  0  0  0  0  0  0
    7.0745    0.5543   24.9833 H   0  0  0  0  0  0  0  0  0  0  0  0
    8.8302    1.6443   24.5825 N   0  0  0  0  0  0  0  0  0  0  0  0
    9.7962    1.4660   24.3704 H   0  0  0  0  0  0  0  0  0  0  0  0
    8.4855    2.8730   25.0799 C   0  0  0  0  0  0  0  0  0  0  0  0
    7.3491    3.1629   25.3990 O   0  0  0  0  0  0  0  0  0  0  0  0
    9.5650    3.7075   25.1656 N   0  0  0  0  0  0  0  0  0  0  0  0
   10.4125    3.3642   24.7538 H   0  0  0  0  0  0  0  0  0  0  0  0
    9.6441    4.8815   25.9283 C   0  0  0  0  0  0  0  0  0  0  0  0
    8.7627    5.1674   26.9796 C   0  0  0  0  0  0  0  0  0  0  0  0
    7.9174    4.5085   27.1436 H   0  0  0  0  0  0  0  0  0  0  0  0
    8.9830    6.2881   27.7829 C   0  0  0  0  0  0  0  0  0  0  0  0
    8.3034    6.5152   28.6001 H   0  0  0  0  0  0  0  0  0  0  0  0
   10.0482    7.1485   27.4964 C   0  0  0  0  0  0  0  0  0  0  0  0
   10.2810    8.5707   28.4673 Cl  0  0  0  0  0  0  0  0  0  0  0  0
   10.9096    6.8922   26.4253 C   0  0  0  0  0  0  0  0  0  0  0  0
   11.7083    7.5897   26.1909 H   0  0  0  0  0  0  0  0  0  0  0  0
   10.7045    5.7513   25.6456 C   0  0  0  0  0  0  0  0  0  0  0  0
   11.3385    5.5398   24.7915 H   0  0  0  0  0  0  0  0  0  0  0  0
    8.1848   -0.5723   23.4647 C   0  0  0  0  0  0  0  0  0  0  0  0
    7.9418   -1.4963   24.0006 H   0  0  0  0  0  0  0  0  0  0  0  0
    9.2347   -0.6136   23.1420 H   0  0  0  0  0  0  0  0  0  0  0  0
    5.4010    0.7036   20.2083 C   0  0  0  0  0  0  0  0  0  0  0  0
    4.9162    0.7496   21.1862 H   0  0  0  0  0  0  0  0  0  0  0  0
    4.8232    1.3185   19.0992 C   0  0  0  0  0  0  0  0  0  0  0  0
    3.8889    1.8632   19.1823 H   0  0  0  0  0  0  0  0  0  0  0  0
  1  2  1  0
  2  3  2  0
  3  4  1  0
  4  5  1  0
  4  6  2  0
  6  7  1  0
  7  8  2  0
  7  9  1  0
  9 10  1  0
 10 11  1  0
 10 12  1  0
 10 13  1  0
 13 14  1  0
 13 15  1  0
 15 16  1  0
 15 17  1  0
 17 18  2  0
 17 19  1  0
 19 20  1  0
 19 21  1  0
 21 22  2  0
 22 23  1  0
 22 24  1  0
 24 25  1  0
 24 26  2  0
 26 27  1  0
 26 28  1  0
 28 29  1  0
 28 30  2  0
 30 31  1  0
 13 32  1  0
 32 33  1  0
 32 34  1  0
  6 35  1  0
 35 36  1  0
 35 37  2  0
 37 38  1  0
 37  2  1  0
 32  9  1  0
 30 21  1  0
M  END
>  <cnnaffinity>  (1) 
-4.72857

>  <filename>  (1) 
O=C(Nc1ccc(Cl)cc1)NC1CN(C(=O)c2cccnc2)C1

$$$$
