
     RDKit          3D

 35 37  0  0  0  0  0  0  0  0999 V2000
    4.9406    1.8419   16.9549 H   0  0  0  0  0  0  0  0  0  0  0  0
    5.4172    1.3182   17.7837 C   0  0  0  0  0  0  0  0  0  0  0  0
    6.5784    0.7035   17.5159 N   0  0  0  0  0  0  0  0  0  0  0  0
    7.1872    0.0705   18.5284 C   0  0  0  0  0  0  0  0  0  0  0  0
    8.1323   -0.4038   18.2699 H   0  0  0  0  0  0  0  0  0  0  0  0
    6.6853   -0.0027   19.8484 C   0  0  0  0  0  0  0  0  0  0  0  0
    7.4199   -0.6915   21.0056 C   0  0  2  0  0  0  0  0  0  0  0  0
    8.2348   -1.3097   20.6048 H   0  0  0  0  0  0  0  0  0  0  0  0
    6.5454   -1.6680   21.8148 C   0  0  0  0  0  0  0  0  0  0  0  0
    5.8705   -2.5873   21.3995 O   0  0  0  0  0  0  0  0  0  0  0  0
    6.6887   -1.3709   23.1315 N   0  0  0  0  0  0  0  0  0  0  0  0
    6.1981   -1.9604   23.7784 H   0  0  0  0  0  0  0  0  0  0  0  0
    7.6979   -0.3958   23.4597 C   0  0  0  0  0  0  0  0  0  0  0  0
    7.3579    0.3427   24.1970 H   0  0  0  0  0  0  0  0  0  0  0  0
    8.6127   -0.8625   23.8576 H   0  0  0  0  0  0  0  0  0  0  0  0
    7.9650    0.2811   22.0825 C   0  0  1  0  0  0  0  0  0  0  0  0
    7.3599    1.1986   22.0641 H   0  0  0  0  0  0  0  0  0  0  0  0
    9.3536    0.6543   21.8774 N   0  0  0  0  0  0  0  0  0  0  0  0
    9.9345    0.1383   21.2398 H   0  0  0  0  0  0  0  0  0  0  0  0
    9.9684    1.5760   22.6735 C   0  0  0  0  0  0  0  0  0  0  0  0
    9.3448    2.3153   23.4196 O   0  0  0  0  0  0  0  0  0  0  0  0
   11.5019    1.6209   22.5832 C   0  0  0  0  0  0  0  0  0  0  0  0
   12.1599    2.8128   22.9363 C   0  0  0  0  0  0  0  0  0  0  0  0
   11.5902    3.7115   23.1402 H   0  0  0  0  0  0  0  0  0  0  0  0
   13.5522    2.8406   23.0423 C   0  0  0  0  0  0  0  0  0  0  0  0
   14.0533    3.7581   23.3522 H   0  0  0  0  0  0  0  0  0  0  0  0
   14.3277    1.7727   22.8148 N   0  0  0  0  0  0  0  0  0  0  0  0
   13.7231    0.6508   22.4223 C   0  0  0  0  0  0  0  0  0  0  0  0
   14.3751   -0.1981   22.2198 H   0  0  0  0  0  0  0  0  0  0  0  0
   12.3373    0.5273   22.2694 C   0  0  0  0  0  0  0  0  0  0  0  0
   11.9672   -0.4272   21.9106 H   0  0  0  0  0  0  0  0  0  0  0  0
    5.4638    0.6386   20.0928 C   0  0  0  0  0  0  0  0  0  0  0  0
    5.0267    0.6260   21.0949 H   0  0  0  0  0  0  0  0  0  0  0  0
    4.8216    1.3058   19.0475 C   0  0  0  0  0  0  0  0  0  0  0  0
    3.8903    1.8341   19.2065 H   0  0  0  0  0  0  0  0  0  0  0  0
  1  2  1  0
  2  3  2  0
  3  4  1  0
  4  5  1  0
  4  6  2  0
  6  7  1  0
  7  8  1  6
  7  9  1  0
  9 10  2  0
  9 11  1  0
 11 12  1  0
 11 13  1  0
 13 14  1  0
 13 15  1  0
 13 16  1  0
 16 17  1  1
 16 18  1  0
 18 19  1  0
 18 20  1  0
 20 21  2  0
 20 22  1  0
 22 23  2  0
 23 24  1  0
 23 25  1  0
 25 26  1  0
 25 27  2  0
 27 28  1  0
 28 29  1  0
 28 30  2  0
 30 31  1  0
  6 32  1  0
 32 33  1  0
 32 34  2  0
 34 35  1  0
 34  2  1  0
 16  7  1  0
 30 22  1  0
M  END
>  <cnnaffinity>  (1) 
-5.34028

>  <filename>  (1) 
O=C(N[C@@H]1CNC(=O)[C@H]1c1cccnc1)c1ccncc1

$$$$
