
     RDKit          3D

 37 39  0  0  0  0  0  0  0  0999 V2000
    7.2794   -4.6139   21.2368 O   0  0  0  0  0  0  0  0  0  0  0  0
    7.1138   -4.1870   22.3683 C   0  0  0  0  0  0  0  0  0  0  0  0
    7.8366   -3.1408   22.8815 N   0  0  0  0  0  0  0  0  0  0  0  0
    8.8083   -2.3823   22.1003 C   0  0  0  0  0  0  0  0  0  0  0  0
    8.2468   -1.5342   20.9744 C   0  0  0  0  0  0  0  0  0  0  0  0
    7.3032   -0.5958   21.0756 C   0  0  0  0  0  0  0  0  0  0  0  0
    6.6406    0.0621   19.9289 C   0  0  0  0  0  0  0  0  0  0  0  0
    5.4151    0.7177   20.1387 C   0  0  0  0  0  0  0  0  0  0  0  0
    4.7763    1.3426   19.0689 C   0  0  0  0  0  0  0  0  0  0  0  0
    5.3908    1.3031   17.8133 C   0  0  0  0  0  0  0  0  0  0  0  0
    6.5505    0.6703   17.5755 N   0  0  0  0  0  0  0  0  0  0  0  0
    7.1506    0.0690   18.6116 C   0  0  0  0  0  0  0  0  0  0  0  0
    8.0991   -0.4166   18.3742 H   0  0  0  0  0  0  0  0  0  0  0  0
    4.9395    1.8049   16.9612 H   0  0  0  0  0  0  0  0  0  0  0  0
    3.8365    1.8699   19.1934 H   0  0  0  0  0  0  0  0  0  0  0  0
    4.9712    0.7226   21.1348 H   0  0  0  0  0  0  0  0  0  0  0  0
    6.9318   -0.2811   22.0538 H   0  0  0  0  0  0  0  0  0  0  0  0
    8.6237   -1.7731   19.9833 H   0  0  0  0  0  0  0  0  0  0  0  0
    9.5202   -3.0843   21.6613 H   0  0  0  0  0  0  0  0  0  0  0  0
    9.3814   -1.7722   22.8131 H   0  0  0  0  0  0  0  0  0  0  0  0
    7.4430   -2.7161   23.7053 H   0  0  0  0  0  0  0  0  0  0  0  0
    6.0746   -4.7552   23.3211 C   0  0  0  0  0  0  0  0  0  0  0  0
    4.7932   -4.9292   22.8263 C   0  0  0  0  0  0  0  0  0  0  0  0
    3.7523   -5.4381   23.6411 C   0  0  0  0  0  0  0  0  0  0  0  0
    3.9946   -5.7878   24.9493 C   0  0  0  0  0  0  0  0  0  0  0  0
    5.2998   -5.6539   25.5031 C   0  0  0  0  0  0  0  0  0  0  0  0
    5.6066   -6.0334   26.8418 C   0  0  0  0  0  0  0  0  0  0  0  0
    6.8950   -5.9203   27.2981 C   0  0  0  0  0  0  0  0  0  0  0  0
    7.9271   -5.4587   26.5465 N   0  0  0  0  0  0  0  0  0  0  0  0
    7.6649   -5.1009   25.3054 C   0  0  0  0  0  0  0  0  0  0  0  0
    6.3643   -5.1485   24.6869 C   0  0  0  0  0  0  0  0  0  0  0  0
    8.5057   -4.7482   24.7103 H   0  0  0  0  0  0  0  0  0  0  0  0
    7.1549   -6.2010   28.3151 H   0  0  0  0  0  0  0  0  0  0  0  0
    4.8339   -6.4275   27.4947 H   0  0  0  0  0  0  0  0  0  0  0  0
    3.2076   -6.2086   25.5687 H   0  0  0  0  0  0  0  0  0  0  0  0
    2.7639   -5.5701   23.2109 H   0  0  0  0  0  0  0  0  0  0  0  0
    4.5672   -4.6628   21.7953 H   0  0  0  0  0  0  0  0  0  0  0  0
  1  2  2  0
  2  3  1  0
  3  4  1  0
  4  5  1  0
  5  6  2  3
  6  7  1  0
  7  8  2  0
  8  9  1  0
  9 10  2  0
 10 11  1  0
 11 12  2  0
 12 13  1  0
 10 14  1  0
  9 15  1  0
  8 16  1  0
  6 17  1  0
  5 18  1  0
  4 19  1  0
  4 20  1  0
  3 21  1  0
  2 22  1  0
 22 23  2  0
 23 24  1  0
 24 25  2  0
 25 26  1  0
 26 27  2  0
 27 28  1  0
 28 29  2  0
 29 30  1  0
 30 31  2  0
 30 32  1  0
 28 33  1  0
 27 34  1  0
 25 35  1  0
 24 36  1  0
 23 37  1  0
 12  7  1  0
 31 22  1  0
 31 26  1  0
M  END
>  <cnnaffinity>  (1) 
-5.19771

>  <filename>  (1) 
O=C(NCC=Cc1cccnc1)c1cccc2ccncc12

$$$$
