
     RDKit          3D

 29 31  0  0  0  0  0  0  0  0999 V2000
    7.0918    0.0717   25.0912 O   0  0  0  0  0  0  0  0  0  0  0  0
    6.7290    1.0293   24.4117 C   0  0  0  0  0  0  0  0  0  0  0  0
    6.7669    0.9165   23.0257 N   0  0  0  0  0  0  0  0  0  0  0  0
    7.3800   -0.1507   22.3999 C   0  0  0  0  0  0  0  0  0  0  0  0
    7.4299   -0.4802   21.0939 C   0  0  0  0  0  0  0  0  0  0  0  0
    6.7141    0.1552   19.9679 C   0  0  0  0  0  0  0  0  0  0  0  0
    5.4974    0.8152   20.1880 C   0  0  0  0  0  0  0  0  0  0  0  0
    4.8376    1.3666   19.0842 C   0  0  0  0  0  0  0  0  0  0  0  0
    5.4259    1.2913   17.8145 C   0  0  0  0  0  0  0  0  0  0  0  0
    6.5787    0.6309   17.5874 N   0  0  0  0  0  0  0  0  0  0  0  0
    7.1916    0.0646   18.6457 C   0  0  0  0  0  0  0  0  0  0  0  0
    8.1072   -0.4891   18.4617 H   0  0  0  0  0  0  0  0  0  0  0  0
    4.9206    1.7777   16.9853 H   0  0  0  0  0  0  0  0  0  0  0  0
    3.8806    1.8699   19.1966 H   0  0  0  0  0  0  0  0  0  0  0  0
    5.0705    0.8730   21.1889 H   0  0  0  0  0  0  0  0  0  0  0  0
    8.2880   -1.6640   21.0748 C   0  0  0  0  0  0  0  0  0  0  0  0
    8.6448   -2.0665   22.2729 N   0  0  0  0  0  0  0  0  0  0  0  0
    8.0866   -1.1196   23.0778 N   0  0  0  0  0  0  0  0  0  0  0  0
    8.1535   -1.0985   24.0907 H   0  0  0  0  0  0  0  0  0  0  0  0
    8.6148   -2.1609   20.1795 H   0  0  0  0  0  0  0  0  0  0  0  0
    6.4576    1.6915   22.4468 H   0  0  0  0  0  0  0  0  0  0  0  0
    6.3371    2.2920   25.0525 C   0  0  0  0  0  0  0  0  0  0  0  0
    5.7312    3.3059   24.3622 C   0  0  0  0  0  0  0  0  0  0  0  0
    5.2593    3.2537   22.5051 Br  0  0  0  0  0  0  0  0  0  0  0  0
    5.5822    4.3809   25.2946 C   0  0  0  0  0  0  0  0  0  0  0  0
    6.1420    3.9663   26.4714 C   0  0  0  0  0  0  0  0  0  0  0  0
    6.5806    2.6759   26.3602 O   0  0  0  0  0  0  0  0  0  0  0  0
    6.2394    4.5689   27.3655 H   0  0  0  0  0  0  0  0  0  0  0  0
    5.1350    5.3435   25.0941 H   0  0  0  0  0  0  0  0  0  0  0  0
  1  2  2  0
  2  3  1  0
  3  4  1  0
  4  5  2  0
  5  6  1  0
  6  7  2  0
  7  8  1  0
  8  9  2  0
  9 10  1  0
 10 11  2  0
 11 12  1  0
  9 13  1  0
  8 14  1  0
  7 15  1  0
  5 16  1  0
 16 17  2  0
 17 18  1  0
 18 19  1  0
 16 20  1  0
  3 21  1  0
  2 22  1  0
 22 23  2  0
 23 24  1  0
 23 25  1  0
 25 26  2  0
 26 27  1  0
 26 28  1  0
 25 29  1  0
 18  4  1  0
 27 22  1  0
 11  6  1  0
M  END
>  <cnnaffinity>  (1) 
-5.06919

>  <filename>  (1) 
O=C(Nc1[nH]ncc1-c1cccnc1)c1occc1Br

$$$$
