
     RDKit          3D

 43 46  0  0  0  0  0  0  0  0999 V2000
    6.9149   -2.3982   22.9772 O   0  0  0  0  0  0  0  0  0  0  0  0
    7.8000   -1.6945   23.4447 C   0  0  0  0  0  0  0  0  0  0  0  0
    8.1658   -1.8259   24.7894 N   0  0  0  0  0  0  0  0  0  0  0  0
    7.8820   -3.0499   25.5484 C   0  0  0  0  0  0  0  0  0  0  0  0
    8.7073   -2.8444   26.8518 C   0  0  0  0  0  0  0  0  0  0  0  0
    8.7751   -1.3583   26.9607 C   0  0  0  0  0  0  0  0  0  0  0  0
    9.4550   -0.5870   27.9291 C   0  0  0  0  0  0  0  0  0  0  0  0
    9.2060   -0.4367   28.2364 C   0  0  0  0  0  0  0  0  0  0  0  0
    9.4353    1.4529   26.1624 N   0  0  0  0  0  0  0  0  0  0  0  0
    8.9033    0.4892   25.6729 C   0  0  0  0  0  0  0  0  0  0  0  0
    8.5423   -0.8333   25.7028 C   0  0  0  0  0  0  0  0  0  0  0  0
    9.7033    2.3421   25.7392 H   0  0  0  0  0  0  0  0  0  0  0  0
    8.4281    0.1653   28.7508 H   0  0  0  0  0  0  0  0  0  0  0  0
    9.9030   -1.1411   28.8712 H   0  0  0  0  0  0  0  0  0  0  0  0
    9.7207   -3.2368   26.7271 H   0  0  0  0  0  0  0  0  0  0  0  0
    8.2301   -3.3408   27.6959 H   0  0  0  0  0  0  0  0  0  0  0  0
    8.1388   -3.9419   24.9632 H   0  0  0  0  0  0  0  0  0  0  0  0
    6.8077   -3.0923   25.7618 H   0  0  0  0  0  0  0  0  0  0  0  0
    8.5190   -0.7477   22.7538 N   0  0  0  0  0  0  0  0  0  0  0  0
    9.9637   -0.5154   22.8993 C   0  0  0  0  0  0  0  0  0  0  0  0
   10.3119    0.1725   21.5834 C   0  0  0  0  0  0  0  0  0  0  0  0
    9.0585    1.0061   21.3073 C   0  0  0  0  0  0  0  0  0  0  0  0
    7.9025    0.0778   21.7094 C   0  0  0  0  0  0  0  0  0  0  0  0
    7.3754   -0.7696   20.5300 C   0  0  0  0  0  0  0  0  0  0  0  0
    6.6514    0.0334   19.4676 C   0  0  0  0  0  0  0  0  0  0  0  0
    5.4552    0.7103   19.7636 C   0  0  0  0  0  0  0  0  0  0  0  0
    4.8148    1.4313   18.7540 C   0  0  0  0  0  0  0  0  0  0  0  0
    5.3929    1.4654   17.4810 C   0  0  0  0  0  0  0  0  0  0  0  0
    6.5317    0.8304   17.1714 N   0  0  0  0  0  0  0  0  0  0  0  0
    7.1335    0.1418   18.1509 C   0  0  0  0  0  0  0  0  0  0  0  0
    8.0578   -0.3649   17.8701 H   0  0  0  0  0  0  0  0  0  0  0  0
    4.9255    2.0275   16.6755 H   0  0  0  0  0  0  0  0  0  0  0  0
    3.8938    1.9735   18.9403 H   0  0  0  0  0  0  0  0  0  0  0  0
    5.0358    0.6682   20.7722 H   0  0  0  0  0  0  0  0  0  0  0  0
    6.7096   -1.5285   20.9459 H   0  0  0  0  0  0  0  0  0  0  0  0
    8.2287   -1.3111   20.0994 H   0  0  0  0  0  0  0  0  0  0  0  0
    7.0627    0.6573   22.1286 H   0  0  0  0  0  0  0  0  0  0  0  0
    8.9638    1.3141   20.2640 H   0  0  0  0  0  0  0  0  0  0  0  0
    9.0514    1.9127   21.9251 H   0  0  0  0  0  0  0  0  0  0  0  0
   11.2296    0.7648   21.6422 H   0  0  0  0  0  0  0  0  0  0  0  0
   10.4583   -0.5825   20.8004 H   0  0  0  0  0  0  0  0  0  0  0  0
   10.5059   -1.4535   23.0580 H   0  0  0  0  0  0  0  0  0  0  0  0
   10.1856    0.1400   23.7510 H   0  0  0  0  0  0  0  0  0  0  0  0
  1  2  2  0
  2  3  1  0
  3  4  1  0
  4  5  1  0
  5  6  1  0
  6  7  2  0
  7  8  1  0
  8  9  2  0
  9 10  1  0
 10 11  2  0
 10 12  1  0
  8 13  1  0
  7 14  1  0
  5 15  1  0
  5 16  1  0
  4 17  1  0
  4 18  1  0
  2 19  1  0
 19 20  1  0
 20 21  1  0
 21 22  1  0
 22 23  1  0
 23 24  1  0
 24 25  1  0
 25 26  2  0
 26 27  1  0
 27 28  2  0
 28 29  1  0
 29 30  2  0
 30 31  1  0
 28 32  1  0
 27 33  1  0
 26 34  1  0
 24 35  1  0
 24 36  1  0
 23 37  1  0
 22 38  1  0
 22 39  1  0
 21 40  1  0
 21 41  1  0
 20 42  1  0
 20 43  1  0
 11  3  1  0
 23 19  1  0
 30 25  1  0
 11  6  1  0
M  END
>  <cnnaffinity>  (1) 
-5.48303

>  <filename>  (1) 
O=C(N1CCc2ccncc21)N1CCCC1Cc1cccnc1

$$$$
