
     RDKit          3D

 34 36  0  0  0  0  0  0  0  0999 V2000
    6.1762   -0.7560   24.7595 O   0  0  0  0  0  0  0  0  0  0  0  0
    7.2461   -1.2183   25.1223 C   0  0  0  0  0  0  0  0  0  0  0  0
    7.5969   -1.4154   26.5867 C   0  0  0  0  0  0  0  0  0  0  0  0
    6.9912   -2.6657   27.1954 C   0  0  0  0  0  0  0  0  0  0  0  0
    5.7033   -2.6034   27.7499 C   0  0  0  0  0  0  0  0  0  0  0  0
    5.1017   -3.7054   28.3586 C   0  0  0  0  0  0  0  0  0  0  0  0
    5.7998   -4.9126   28.3915 C   0  0  0  0  0  0  0  0  0  0  0  0
    5.0625   -6.3052   29.1142 Cl  0  0  0  0  0  0  0  0  0  0  0  0
    7.0767   -5.0288   27.8442 C   0  0  0  0  0  0  0  0  0  0  0  0
    7.6556   -3.9023   27.2533 C   0  0  0  0  0  0  0  0  0  0  0  0
    9.2626   -4.0718   26.5999 Cl  0  0  0  0  0  0  0  0  0  0  0  0
    7.6141   -5.9706   27.8833 H   0  0  0  0  0  0  0  0  0  0  0  0
    4.1176   -3.6370   28.8115 H   0  0  0  0  0  0  0  0  0  0  0  0
    5.1758   -1.6550   27.7208 H   0  0  0  0  0  0  0  0  0  0  0  0
    8.6845   -1.4036   26.7132 H   0  0  0  0  0  0  0  0  0  0  0  0
    7.1921   -0.5334   27.0909 H   0  0  0  0  0  0  0  0  0  0  0  0
    8.2273   -1.5467   24.2385 N   0  0  0  0  0  0  0  0  0  0  0  0
    8.1099   -1.3815   22.8783 C   0  0  0  0  0  0  0  0  0  0  0  0
    8.8608   -1.9445   21.9824 N   0  0  0  0  0  0  0  0  0  0  0  0
    8.3927   -1.5067   20.7604 N   0  0  0  0  0  0  0  0  0  0  0  0
    7.3870   -0.7026   20.9809 C   0  0  0  0  0  0  0  0  0  0  0  0
    6.6313   -0.0012   19.9459 C   0  0  0  0  0  0  0  0  0  0  0  0
    5.4115    0.6529   20.1713 C   0  0  0  0  0  0  0  0  0  0  0  0
    4.8111    1.3016   19.0938 C   0  0  0  0  0  0  0  0  0  0  0  0
    5.4434    1.2772   17.8437 C   0  0  0  0  0  0  0  0  0  0  0  0
    6.6031    0.6410   17.6134 N   0  0  0  0  0  0  0  0  0  0  0  0
    7.1728    0.0197   18.6474 C   0  0  0  0  0  0  0  0  0  0  0  0
    8.1143   -0.4903   18.4510 H   0  0  0  0  0  0  0  0  0  0  0  0
    4.9963    1.7858   16.9921 H   0  0  0  0  0  0  0  0  0  0  0  0
    3.8757    1.8368   19.2150 H   0  0  0  0  0  0  0  0  0  0  0  0
    4.9411    0.6630   21.1601 H   0  0  0  0  0  0  0  0  0  0  0  0
    7.1818   -0.5729   22.3290 N   0  0  0  0  0  0  0  0  0  0  0  0
    6.3916   -0.3244   22.9124 H   0  0  0  0  0  0  0  0  0  0  0  0
    8.9917   -2.1278   24.5386 H   0  0  0  0  0  0  0  0  0  0  0  0
  1  2  2  0
  2  3  1  0
  3  4  1  0
  4  5  2  0
  5  6  1  0
  6  7  2  0
  7  8  1  0
  7  9  1  0
  9 10  2  0
 10 11  1  0
  9 12  1  0
  6 13  1  0
  5 14  1  0
  3 15  1  0
  3 16  1  0
  2 17  1  0
 17 18  1  0
 18 19  2  0
 19 20  1  0
 20 21  2  0
 21 22  1  0
 22 23  2  0
 23 24  1  0
 24 25  2  0
 25 26  1  0
 26 27  2  0
 27 28  1  0
 25 29  1  0
 24 30  1  0
 23 31  1  0
 21 32  1  0
 32 33  1  0
 17 34  1  0
 10  4  1  0
 32 18  1  0
 27 22  1  0
M  END
>  <cnnaffinity>  (1) 
-5.41794

>  <filename>  (1) 
O=C(Cc1ccc(Cl)cc1Cl)Nc1nnc(-c2cccnc2)[nH]1

$$$$
