
     RDKit          3D

 39 41  0  0  0  0  0  0  0  0999 V2000
    5.4086    1.7143   16.8677 H   0  0  0  0  0  0  0  0  0  0  0  0
    5.7744    1.2097   17.7620 C   0  0  0  0  0  0  0  0  0  0  0  0
    6.9361    0.5492   17.6362 N   0  0  0  0  0  0  0  0  0  0  0  0
    7.4177   -0.0729   18.7225 C   0  0  0  0  0  0  0  0  0  0  0  0
    8.3722   -0.5851   18.6008 H   0  0  0  0  0  0  0  0  0  0  0  0
    6.7597   -0.1078   19.9636 C   0  0  0  0  0  0  0  0  0  0  0  0
    7.3455   -0.8765   21.0945 C   0  0  0  0  0  0  0  0  0  0  0  0
    8.7223   -0.7712   21.2598 N   0  0  0  0  0  0  0  0  0  0  0  0
    9.2643   -1.3653   22.2928 C   0  0  0  0  0  0  0  0  0  0  0  0
   10.5612   -1.2409   22.5815 O   0  0  0  0  0  0  0  0  0  0  0  0
   11.4595   -0.4910   21.7394 C   0  0  0  0  0  0  0  0  0  0  0  0
   11.3665   -0.8568   20.7118 H   0  0  0  0  0  0  0  0  0  0  0  0
   12.4434   -0.7672   22.1287 H   0  0  0  0  0  0  0  0  0  0  0  0
   11.2636    1.0303   21.7882 C   0  0  0  0  0  0  0  0  0  0  0  0
   10.1891    1.2153   21.7029 H   0  0  0  0  0  0  0  0  0  0  0  0
   11.7083    1.4672   20.8742 H   0  0  0  0  0  0  0  0  0  0  0  0
   11.7819    1.6464   23.0158 N   0  0  0  0  0  0  0  0  0  0  0  0
   13.2599    1.7359   23.0764 C   0  0  0  0  0  0  0  0  0  0  0  0
   13.6210    1.3056   24.0190 H   0  0  0  0  0  0  0  0  0  0  0  0
   13.7215    1.1397   22.2798 H   0  0  0  0  0  0  0  0  0  0  0  0
   13.6475    3.2346   22.9339 C   0  0  0  0  0  0  0  0  0  0  0  0
   14.4286    3.3967   22.1880 H   0  0  0  0  0  0  0  0  0  0  0  0
   14.0365    3.6359   23.8728 H   0  0  0  0  0  0  0  0  0  0  0  0
   12.3273    3.9285   22.5732 C   0  0  0  0  0  0  0  0  0  0  0  0
   12.2474    4.9624   22.9199 H   0  0  0  0  0  0  0  0  0  0  0  0
   12.1843    3.9387   21.4845 H   0  0  0  0  0  0  0  0  0  0  0  0
   11.2989    3.0114   23.2417 C   0  0  0  0  0  0  0  0  0  0  0  0
   10.2720    3.1420   22.8833 H   0  0  0  0  0  0  0  0  0  0  0  0
   11.2756    3.2036   24.3255 H   0  0  0  0  0  0  0  0  0  0  0  0
    8.4981   -2.2483   23.2826 C   0  0  0  0  0  0  0  0  0  0  0  0
    8.8954   -2.8642   24.2544 O   0  0  0  0  0  0  0  0  0  0  0  0
    7.1425   -2.3211   22.9693 N   0  0  0  0  0  0  0  0  0  0  0  0
    6.6374   -2.8586   23.6690 H   0  0  0  0  0  0  0  0  0  0  0  0
    6.5629   -1.6463   21.9041 C   0  0  0  0  0  0  0  0  0  0  0  0
    5.5000   -1.7942   21.7340 H   0  0  0  0  0  0  0  0  0  0  0  0
    5.5455    0.5956   20.0759 C   0  0  0  0  0  0  0  0  0  0  0  0
    5.0075    0.6419   21.0251 H   0  0  0  0  0  0  0  0  0  0  0  0
    5.0550    1.2713   18.9586 C   0  0  0  0  0  0  0  0  0  0  0  0
    4.1430    1.8572   19.0051 H   0  0  0  0  0  0  0  0  0  0  0  0
  1  2  1  0
  2  3  2  0
  3  4  1  0
  4  5  1  0
  4  6  2  0
  6  7  1  0
  7  8  1  0
  8  9  2  0
  9 10  1  0
 10 11  1  0
 11 12  1  0
 11 13  1  0
 11 14  1  0
 14 15  1  0
 14 16  1  0
 14 17  1  0
 17 18  1  0
 18 19  1  0
 18 20  1  0
 18 21  1  0
 21 22  1  0
 21 23  1  0
 21 24  1  0
 24 25  1  0
 24 26  1  0
 24 27  1  0
 27 28  1  0
 27 29  1  0
  9 30  1  0
 30 31  2  0
 30 32  1  0
 32 33  1  0
 32 34  1  0
 34 35  1  0
  6 36  1  0
 36 37  1  0
 36 38  2  0
 38 39  1  0
 38  2  1  0
 34  7  2  0
 27 17  1  0
M  END
>  <cnnaffinity>  (1) 
-4.86027

>  <filename>  (1) 
O=c1[nH]cc(-c2cccnc2)nc1OCCN1CCCC1

$$$$
