
     RDKit          3D

 43 46  0  0  0  0  0  0  0  0999 V2000
    6.6226    2.3044   22.8998 O   0  0  0  0  0  0  0  0  0  0  0  0
    7.1589    3.2745   23.3810 C   0  0  0  0  0  0  0  0  0  0  0  0
    6.5465    4.3296   24.2292 C   0  0  0  0  0  0  0  0  0  0  0  0
    7.4843    5.2124   24.7667 C   0  0  0  0  0  0  0  0  0  0  0  0
    7.1414    6.1980   25.7044 C   0  0  0  0  0  0  0  0  0  0  0  0
    5.7926    6.2994   26.0602 C   0  0  0  0  0  0  0  0  0  0  0  0
    4.8200    5.4520   25.5026 C   0  0  0  0  0  0  0  0  0  0  0  0
    5.2017    4.4721   24.5915 C   0  0  0  0  0  0  0  0  0  0  0  0
    4.2877    3.6561   24.0738 F   0  0  0  0  0  0  0  0  0  0  0  0
    3.7712    5.5233   25.7724 H   0  0  0  0  0  0  0  0  0  0  0  0
    5.4931    7.0491   26.7883 H   0  0  0  0  0  0  0  0  0  0  0  0
    7.8695    6.8669   26.1559 H   0  0  0  0  0  0  0  0  0  0  0  0
    9.0785    4.5658   24.3989 S   0  0  0  0  0  0  0  0  0  0  0  0
    9.4685    3.7577   25.5445 O   0  0  0  0  0  0  0  0  0  0  0  0
   10.0044    5.5403   23.8637 O   0  0  0  0  0  0  0  0  0  0  0  0
    8.4951    3.5795   23.1740 N   0  0  0  0  0  0  0  0  0  0  0  0
    9.4177    2.6662   22.4908 C   0  0  0  0  0  0  0  0  0  0  0  0
    9.5575    1.3043   23.1628 C   0  0  0  0  0  0  0  0  0  0  0  0
   10.1739    1.1672   24.4154 C   0  0  0  0  0  0  0  0  0  0  0  0
   10.1442   -0.0564   25.0918 C   0  0  0  0  0  0  0  0  0  0  0  0
   10.6178   -0.1181   26.7598 Cl  0  0  0  0  0  0  0  0  0  0  0  0
    9.6699   -1.2132   24.4753 C   0  0  0  0  0  0  0  0  0  0  0  0
    9.1557   -1.1140   23.1841 C   0  0  0  0  0  0  0  0  0  0  0  0
    9.0468    0.1356   22.5555 C   0  0  0  0  0  0  0  0  0  0  0  0
    8.4922    0.2693   21.3172 O   0  0  0  0  0  0  0  0  0  0  0  0
    7.4599   -0.6355   20.9229 C   0  0  0  0  0  0  0  0  0  0  0  0
    6.6527    0.0337   19.8485 C   0  0  0  0  0  0  0  0  0  0  0  0
    5.4558    0.7105   20.1081 C   0  0  0  0  0  0  0  0  0  0  0  0
    4.8118    1.3547   19.0474 C   0  0  0  0  0  0  0  0  0  0  0  0
    5.3990    1.3096   17.7794 C   0  0  0  0  0  0  0  0  0  0  0  0
    6.5464    0.6647   17.5147 N   0  0  0  0  0  0  0  0  0  0  0  0
    7.1495    0.0531   18.5401 C   0  0  0  0  0  0  0  0  0  0  0  0
    8.0865   -0.4531   18.3102 H   0  0  0  0  0  0  0  0  0  0  0  0
    4.9333    1.8134   16.9338 H   0  0  0  0  0  0  0  0  0  0  0  0
    3.8830    1.8970   19.1858 H   0  0  0  0  0  0  0  0  0  0  0  0
    5.0618    0.7566   21.1263 H   0  0  0  0  0  0  0  0  0  0  0  0
    6.8227   -0.8886   21.7844 H   0  0  0  0  0  0  0  0  0  0  0  0
    7.9262   -1.5531   20.5371 H   0  0  0  0  0  0  0  0  0  0  0  0
    8.8154   -1.9931   22.6498 H   0  0  0  0  0  0  0  0  0  0  0  0
    9.6845   -2.1661   24.9998 H   0  0  0  0  0  0  0  0  0  0  0  0
   10.6306    2.0139   24.9120 H   0  0  0  0  0  0  0  0  0  0  0  0
   10.3925    3.1679   22.4293 H   0  0  0  0  0  0  0  0  0  0  0  0
    9.0540    2.5350   21.4666 H   0  0  0  0  0  0  0  0  0  0  0  0
  1  2  2  0
  2  3  1  0
  3  4  2  0
  4  5  1  0
  5  6  2  0
  6  7  1  0
  7  8  2  0
  8  9  1  0
  7 10  1  0
  6 11  1  0
  5 12  1  0
  4 13  1  0
 13 14  2  0
 13 15  2  0
 13 16  1  0
 16 17  1  0
 17 18  1  0
 18 19  2  0
 19 20  1  0
 20 21  1  0
 20 22  2  0
 22 23  1  0
 23 24  2  0
 24 25  1  0
 25 26  1  0
 26 27  1  0
 27 28  2  0
 28 29  1  0
 29 30  2  0
 30 31  1  0
 31 32  2  0
 32 33  1  0
 30 34  1  0
 29 35  1  0
 28 36  1  0
 26 37  1  0
 26 38  1  0
 23 39  1  0
 22 40  1  0
 19 41  1  0
 17 42  1  0
 17 43  1  0
 16  2  1  0
 24 18  1  0
 32 27  1  0
  8  3  1  0
M  END
>  <cnnaffinity>  (1) 
-5.92782

>  <filename>  (1) 
O=C1c2c(F)cccc2S(=O)(=O)N1Cc1cc(Cl)ccc1OCc1cccnc1

$$$$
