
     RDKit          3D

 44 48  0  0  0  0  0  0  0  0999 V2000
   13.6609    1.1232   24.4116 O   0  0  0  0  0  0  0  0  0  0  0  0
   12.8288    1.7038   23.7551 C   0  0  0  0  0  0  0  0  0  0  0  0
   11.3563    1.6690   23.9175 C   0  0  0  0  0  0  0  0  0  0  0  0
   10.8421    1.9693   22.6802 C   0  0  0  0  0  0  0  0  0  0  0  0
    9.5006    1.6634   22.3171 N   0  0  0  0  0  0  0  0  0  0  0  0
    9.2037    0.7078   21.3873 N   0  0  0  0  0  0  0  0  0  0  0  0
    7.9812    0.3520   21.7108 C   0  0  0  0  0  0  0  0  0  0  0  0
    7.2107   -0.6712   20.9242 C   0  0  0  0  0  0  0  0  0  0  0  0
    6.5009   -0.0590   19.7255 C   0  0  0  0  0  0  0  0  0  0  0  0
    5.3676    0.7369   19.9295 C   0  0  0  0  0  0  0  0  0  0  0  0
    4.8044    1.3993   18.8384 C   0  0  0  0  0  0  0  0  0  0  0  0
    5.3983    1.2474   17.5820 C   0  0  0  0  0  0  0  0  0  0  0  0
    6.4750    0.4774   17.3599 N   0  0  0  0  0  0  0  0  0  0  0  0
    7.0019   -0.1537   18.4173 C   0  0  0  0  0  0  0  0  0  0  0  0
    7.8824   -0.7672   18.2242 H   0  0  0  0  0  0  0  0  0  0  0  0
    4.9928    1.7715   16.7182 H   0  0  0  0  0  0  0  0  0  0  0  0
    3.9311    2.0327   18.9497 H   0  0  0  0  0  0  0  0  0  0  0  0
    4.9514    0.8401   20.9338 H   0  0  0  0  0  0  0  0  0  0  0  0
    7.9065   -1.4564   20.6110 H   0  0  0  0  0  0  0  0  0  0  0  0
    6.4909   -1.1088   21.6235 H   0  0  0  0  0  0  0  0  0  0  0  0
    7.4640    0.9838   22.7955 N   0  0  0  0  0  0  0  0  0  0  0  0
    8.4160    1.8248   23.1461 C   0  0  0  0  0  0  0  0  0  0  0  0
    8.3824    2.8114   24.2412 C   0  0  0  0  0  0  0  0  0  0  0  0
    8.0592    2.4440   25.5515 C   0  0  0  0  0  0  0  0  0  0  0  0
    8.2661    3.3306   26.6317 C   0  0  0  0  0  0  0  0  0  0  0  0
    8.7806    4.5966   26.4056 C   0  0  0  0  0  0  0  0  0  0  0  0
    9.0058    5.4454   27.4244 F   0  0  0  0  0  0  0  0  0  0  0  0
    9.0427    5.0140   25.0900 C   0  0  0  0  0  0  0  0  0  0  0  0
    8.7976    4.1553   24.0025 C   0  0  0  0  0  0  0  0  0  0  0  0
    9.0372    4.9339   22.8220 C   0  0  0  0  0  0  0  0  0  0  0  0
    9.4718    6.1636   23.2170 C   0  0  0  0  0  0  0  0  0  0  0  0
    9.4689    6.2202   24.5958 N   0  0  0  0  0  0  0  0  0  0  0  0
    9.8111    6.9777   25.1660 H   0  0  0  0  0  0  0  0  0  0  0  0
    9.7858    7.0078   22.6162 H   0  0  0  0  0  0  0  0  0  0  0  0
    8.8212    4.5775   21.8261 H   0  0  0  0  0  0  0  0  0  0  0  0
    8.0245    3.0386   27.6486 H   0  0  0  0  0  0  0  0  0  0  0  0
    7.6519    1.4527   25.7426 H   0  0  0  0  0  0  0  0  0  0  0  0
   12.0173    3.0871   20.5624 C   0  0  0  0  0  0  0  0  0  0  0  0
   12.0383    2.5520   21.7708 C   0  0  0  0  0  0  0  0  0  0  0  0
   13.1844    2.4649   22.6230 N   0  0  0  0  0  0  0  0  0  0  0  0
   14.1029    2.2580   22.2669 H   0  0  0  0  0  0  0  0  0  0  0  0
   12.9014    3.5512   20.1114 H   0  0  0  0  0  0  0  0  0  0  0  0
   11.0825    3.0706   20.0261 H   0  0  0  0  0  0  0  0  0  0  0  0
   10.8406    1.3522   24.8066 H   0  0  0  0  0  0  0  0  0  0  0  0
  1  2  2  0
  2  3  1  0
  3  4  2  0
  4  5  1  0
  5  6  1  0
  6  7  2  0
  7  8  1  0
  8  9  1  0
  9 10  2  0
 10 11  1  0
 11 12  2  0
 12 13  1  0
 13 14  2  0
 14 15  1  0
 12 16  1  0
 11 17  1  0
 10 18  1  0
  8 19  1  0
  8 20  1  0
  7 21  1  0
 21 22  2  0
 22 23  1  0
 23 24  2  0
 24 25  1  0
 25 26  2  0
 26 27  1  0
 26 28  1  0
 28 29  2  0
 29 30  1  0
 30 31  2  0
 31 32  1  0
 32 33  1  0
 31 34  1  0
 30 35  1  0
 25 36  1  0
 24 37  1  0
  4 38  1  0
 38 39  2  0
 39 40  1  0
 40 41  1  0
 39 42  1  0
 38 43  1  0
  3 44  1  0
 40  2  1  0
 22  5  1  0
 29 23  1  0
 14  9  1  0
 32 28  1  0
M  END
>  <cnnaffinity>  (1) 
-6.29995

>  <filename>  (1) 
O=c1cc(-n2nc(Cc3cccnc3)nc2-c2ccc(F)c3[nH]ccc23)cc[nH]1

$$$$
