
     RDKit          3D

 35 37  0  0  0  0  0  0  0  0999 V2000
    4.9402    1.8004   16.9780 H   0  0  0  0  0  0  0  0  0  0  0  0
    5.3995    1.2875   17.8228 C   0  0  0  0  0  0  0  0  0  0  0  0
    6.5620    0.6629   17.5777 N   0  0  0  0  0  0  0  0  0  0  0  0
    7.1557    0.0261   18.5920 C   0  0  0  0  0  0  0  0  0  0  0  0
    8.1168   -0.4373   18.3580 H   0  0  0  0  0  0  0  0  0  0  0  0
    6.6302   -0.0141   19.8945 C   0  0  0  0  0  0  0  0  0  0  0  0
    7.3552   -0.6638   20.9913 C   0  0  0  0  0  0  0  0  0  0  0  0
    7.7478   -0.0428   22.1653 C   0  0  0  0  0  0  0  0  0  0  0  0
    7.5926    1.7173   22.4537 S   0  0  0  0  0  0  0  0  0  0  0  0
    9.0532    2.2269   21.4507 C   0  0  0  0  0  0  0  0  0  0  0  0
    8.9012    1.7872   20.4627 H   0  0  0  0  0  0  0  0  0  0  0  0
    8.9798    3.3168   21.3630 H   0  0  0  0  0  0  0  0  0  0  0  0
   10.3592    1.7837   22.0765 C   0  0  0  0  0  0  0  0  0  0  0  0
   10.7951    2.3982   23.2605 C   0  0  0  0  0  0  0  0  0  0  0  0
   10.1941    3.2070   23.6714 H   0  0  0  0  0  0  0  0  0  0  0  0
   11.9324    1.9406   23.9297 C   0  0  0  0  0  0  0  0  0  0  0  0
   12.2264    2.4209   24.8575 H   0  0  0  0  0  0  0  0  0  0  0  0
   12.6685    0.8666   23.4138 C   0  0  0  0  0  0  0  0  0  0  0  0
   13.5616    0.5180   23.9285 H   0  0  0  0  0  0  0  0  0  0  0  0
   12.2388    0.2356   22.2412 C   0  0  0  0  0  0  0  0  0  0  0  0
   12.7902   -0.6154   21.8425 H   0  0  0  0  0  0  0  0  0  0  0  0
   11.0810    0.6794   21.5910 C   0  0  0  0  0  0  0  0  0  0  0  0
   10.6775    0.1084   20.7583 H   0  0  0  0  0  0  0  0  0  0  0  0
    8.4452   -0.8306   23.1340 C   0  0  0  0  0  0  0  0  0  0  0  0
    8.7905   -0.3036   24.0242 H   0  0  0  0  0  0  0  0  0  0  0  0
    8.7229   -2.1523   22.9360 C   0  0  0  0  0  0  0  0  0  0  0  0
    9.2472   -2.7771   23.6492 H   0  0  0  0  0  0  0  0  0  0  0  0
    8.2994   -2.8104   21.7093 C   0  0  0  0  0  0  0  0  0  0  0  0
    8.4160   -3.9881   21.4141 O   0  0  0  0  0  0  0  0  0  0  0  0
    7.6917   -1.9724   20.7935 N   0  0  0  0  0  0  0  0  0  0  0  0
    7.3799   -2.5113   19.9982 H   0  0  0  0  0  0  0  0  0  0  0  0
    5.4147    0.6373   20.1357 C   0  0  0  0  0  0  0  0  0  0  0  0
    4.9911    0.6411   21.1392 H   0  0  0  0  0  0  0  0  0  0  0  0
    4.7936    1.2992   19.0813 C   0  0  0  0  0  0  0  0  0  0  0  0
    3.8719    1.8443   19.2290 H   0  0  0  0  0  0  0  0  0  0  0  0
  1  2  1  0
  2  3  2  0
  3  4  1  0
  4  5  1  0
  4  6  2  0
  6  7  1  0
  7  8  2  0
  8  9  1  0
  9 10  1  0
 10 11  1  0
 10 12  1  0
 10 13  1  0
 13 14  2  0
 14 15  1  0
 14 16  1  0
 16 17  1  0
 16 18  2  0
 18 19  1  0
 18 20  1  0
 20 21  1  0
 20 22  2  0
 22 23  1  0
  8 24  1  0
 24 25  1  0
 24 26  2  0
 26 27  1  0
 26 28  1  0
 28 29  2  0
 28 30  1  0
 30 31  1  0
  6 32  1  0
 32 33  1  0
 32 34  2  0
 34 35  1  0
 34  2  1  0
 30  7  1  0
 22 13  1  0
M  END
>  <cnnaffinity>  (1) 
-5.78427

>  <filename>  (1) 
O=c1ccc(SCc2ccccc2)c(-c2cccnc2)[nH]1

$$$$
