
     RDKit          3D

 41 43  0  0  0  0  0  0  0  0999 V2000
    8.6680   -3.5180   21.6616 H   0  0  0  0  0  0  0  0  0  0  0  0
    8.2756   -2.5511   21.9127 C   0  0  0  0  0  0  0  0  0  0  0  0
    8.7271   -1.8609   22.9771 C   0  0  0  0  0  0  0  0  0  0  0  0
    9.5366   -2.2392   23.9749 O   0  0  0  0  0  0  0  0  0  0  0  0
    9.9949   -3.6000   24.0457 C   0  0  0  0  0  0  0  0  0  0  0  0
   10.6817   -3.6024   24.8941 H   0  0  0  0  0  0  0  0  0  0  0  0
   10.5902   -3.8299   23.1576 H   0  0  0  0  0  0  0  0  0  0  0  0
    8.9118   -4.6636   24.2727 C   0  0  0  0  0  0  0  0  0  0  0  0
    9.3816   -5.6585   24.1186 H   0  0  0  0  0  0  0  0  0  0  0  0
    8.1341   -4.5597   23.5066 H   0  0  0  0  0  0  0  0  0  0  0  0
    8.2814   -4.5511   25.5797 N   0  0  0  0  0  0  0  0  0  0  0  0
    9.1357   -4.8738   26.7165 C   0  0  0  0  0  0  0  0  0  0  0  0
    9.9159   -4.1128   26.8492 H   0  0  0  0  0  0  0  0  0  0  0  0
    9.6461   -5.8514   26.5928 H   0  0  0  0  0  0  0  0  0  0  0  0
    8.1587   -4.9172   27.8992 C   0  0  0  0  0  0  0  0  0  0  0  0
    8.1888   -3.9630   28.4176 H   0  0  0  0  0  0  0  0  0  0  0  0
    8.4389   -5.7032   28.6079 H   0  0  0  0  0  0  0  0  0  0  0  0
    6.7635   -5.1261   27.2673 C   0  0  0  0  0  0  0  0  0  0  0  0
    6.2295   -5.9735   27.7082 H   0  0  0  0  0  0  0  0  0  0  0  0
    6.1413   -4.2362   27.4199 H   0  0  0  0  0  0  0  0  0  0  0  0
    7.0631   -5.3260   25.7755 C   0  0  0  0  0  0  0  0  0  0  0  0
    7.2022   -6.4070   25.5604 H   0  0  0  0  0  0  0  0  0  0  0  0
    6.2480   -4.9597   25.1367 H   0  0  0  0  0  0  0  0  0  0  0  0
    8.3257   -0.5632   23.1707 N   0  0  0  0  0  0  0  0  0  0  0  0
    8.6535    0.0059   23.9248 H   0  0  0  0  0  0  0  0  0  0  0  0
    7.6022    0.1905   22.2795 C   0  0  0  0  0  0  0  0  0  0  0  0
    7.3589    1.3454   22.5517 O   0  0  0  0  0  0  0  0  0  0  0  0
    7.2505   -0.4917   21.1117 N   0  0  0  0  0  0  0  0  0  0  0  0
    6.6375    0.1897   20.0096 C   0  0  0  0  0  0  0  0  0  0  0  0
    7.1780    0.1260   18.7050 C   0  0  0  0  0  0  0  0  0  0  0  0
    8.1256   -0.3879   18.5481 H   0  0  0  0  0  0  0  0  0  0  0  0
    6.5953    0.6665   17.6273 N   0  0  0  0  0  0  0  0  0  0  0  0
    5.4294    1.3064   17.8174 C   0  0  0  0  0  0  0  0  0  0  0  0
    4.9766    1.7300   16.9259 H   0  0  0  0  0  0  0  0  0  0  0  0
    4.8129    1.4378   19.0682 C   0  0  0  0  0  0  0  0  0  0  0  0
    3.8682    1.9664   19.1469 H   0  0  0  0  0  0  0  0  0  0  0  0
    5.4412    0.8903   20.1937 C   0  0  0  0  0  0  0  0  0  0  0  0
    5.0366    1.0048   21.1998 H   0  0  0  0  0  0  0  0  0  0  0  0
    7.1157   -1.9629   21.1718 C   0  0  0  0  0  0  0  0  0  0  0  0
    6.1443   -2.2285   21.6453 H   0  0  0  0  0  0  0  0  0  0  0  0
    7.0615   -2.3574   20.1483 H   0  0  0  0  0  0  0  0  0  0  0  0
  1  2  1  0
  2  3  2  0
  3  4  1  0
  4  5  1  0
  5  6  1  0
  5  7  1  0
  5  8  1  0
  8  9  1  0
  8 10  1  0
  8 11  1  0
 11 12  1  0
 12 13  1  0
 12 14  1  0
 12 15  1  0
 15 16  1  0
 15 17  1  0
 15 18  1  0
 18 19  1  0
 18 20  1  0
 18 21  1  0
 21 22  1  0
 21 23  1  0
  3 24  1  0
 24 25  1  0
 24 26  1  0
 26 27  2  0
 26 28  1  0
 28 29  1  0
 29 30  2  0
 30 31  1  0
 30 32  1  0
 32 33  2  0
 33 34  1  0
 33 35  1  0
 35 36  1  0
 35 37  2  0
 37 38  1  0
 28 39  1  0
 39 40  1  0
 39 41  1  0
 39  2  1  0
 21 11  1  0
 37 29  1  0
M  END
>  <cnnaffinity>  (1) 
-4.89898

>  <filename>  (1) 
O=C1NC(OCCN2CCCC2)=CCN1c1cccnc1

$$$$
