
     RDKit          3D

 32 34  0  0  0  0  0  0  0  0999 V2000
    4.8434    1.8604   16.7100 H   0  0  0  0  0  0  0  0  0  0  0  0
    5.3107    1.3549   17.5527 C   0  0  0  0  0  0  0  0  0  0  0  0
    6.4186    0.6508   17.2748 N   0  0  0  0  0  0  0  0  0  0  0  0
    7.0548    0.0692   18.2981 C   0  0  0  0  0  0  0  0  0  0  0  0
    7.9346   -0.5208   18.0346 H   0  0  0  0  0  0  0  0  0  0  0  0
    6.6424    0.1648   19.6366 C   0  0  0  0  0  0  0  0  0  0  0  0
    7.4893   -0.3950   20.6933 C   0  0  0  0  0  0  0  0  0  0  0  0
    8.8621   -0.3134   20.7295 C   0  0  0  0  0  0  0  0  0  0  0  0
    9.3861    0.2464   19.9619 H   0  0  0  0  0  0  0  0  0  0  0  0
    9.5737   -0.9114   21.8056 C   0  0  0  0  0  0  0  0  0  0  0  0
   10.6625   -0.8515   21.8534 H   0  0  0  0  0  0  0  0  0  0  0  0
    8.9020   -1.5787   22.8079 C   0  0  0  0  0  0  0  0  0  0  0  0
    9.6392   -2.1402   23.8179 O   0  0  0  0  0  0  0  0  0  0  0  0
    9.3111   -3.3924   24.3140 C   0  0  0  0  0  0  0  0  0  0  0  0
    9.3850   -3.5308   25.7023 C   0  0  0  0  0  0  0  0  0  0  0  0
    9.5660   -2.6378   26.2815 H   0  0  0  0  0  0  0  0  0  0  0  0
    9.2116   -4.7762   26.3043 C   0  0  0  0  0  0  0  0  0  0  0  0
    9.3081   -4.9093   27.3789 H   0  0  0  0  0  0  0  0  0  0  0  0
    8.9252   -5.8628   25.4845 C   0  0  0  0  0  0  0  0  0  0  0  0
    8.7684   -7.0605   26.0617 F   0  0  0  0  0  0  0  0  0  0  0  0
    8.7939   -5.7429   24.1008 C   0  0  0  0  0  0  0  0  0  0  0  0
    8.5283   -6.6261   23.5353 H   0  0  0  0  0  0  0  0  0  0  0  0
    8.9901   -4.4851   23.5029 C   0  0  0  0  0  0  0  0  0  0  0  0
    8.9013   -4.3434   22.4282 H   0  0  0  0  0  0  0  0  0  0  0  0
    7.4154   -1.6074   22.8325 C   0  0  0  0  0  0  0  0  0  0  0  0
    6.6857   -2.1043   23.6740 O   0  0  0  0  0  0  0  0  0  0  0  0
    6.8347   -1.0143   21.7298 N   0  0  0  0  0  0  0  0  0  0  0  0
    5.8291   -1.1042   21.7637 H   0  0  0  0  0  0  0  0  0  0  0  0
    5.4289    0.8306   19.8953 C   0  0  0  0  0  0  0  0  0  0  0  0
    5.0417    0.8918   20.9142 H   0  0  0  0  0  0  0  0  0  0  0  0
    4.7628    1.4441   18.8378 C   0  0  0  0  0  0  0  0  0  0  0  0
    3.8471    2.0023   18.9958 H   0  0  0  0  0  0  0  0  0  0  0  0
  1  2  1  0
  2  3  2  0
  3  4  1  0
  4  5  1  0
  4  6  2  0
  6  7  1  0
  7  8  2  0
  8  9  1  0
  8 10  1  0
 10 11  1  0
 10 12  2  0
 12 13  1  0
 13 14  1  0
 14 15  2  0
 15 16  1  0
 15 17  1  0
 17 18  1  0
 17 19  2  0
 19 20  1  0
 19 21  1  0
 21 22  1  0
 21 23  2  0
 23 24  1  0
 12 25  1  0
 25 26  2  0
 25 27  1  0
 27 28  1  0
  6 29  1  0
 29 30  1  0
 29 31  2  0
 31 32  1  0
 31  2  1  0
 27  7  1  0
 23 14  1  0
M  END
>  <cnnaffinity>  (1) 
-4.52503

>  <filename>  (1) 
O=c1[nH]c(-c2cccnc2)ccc1Oc1ccc(F)cc1

$$$$
