
     RDKit          3D

 35 38  0  0  0  0  0  0  0  0999 V2000
    4.9137    1.7920   17.0016 H   0  0  0  0  0  0  0  0  0  0  0  0
    5.3934    1.2924   17.8408 C   0  0  0  0  0  0  0  0  0  0  0  0
    6.5550    0.6804   17.5648 N   0  0  0  0  0  0  0  0  0  0  0  0
    7.1818    0.0674   18.5740 C   0  0  0  0  0  0  0  0  0  0  0  0
    8.1276   -0.4213   18.3510 H   0  0  0  0  0  0  0  0  0  0  0  0
    6.6890    0.0207   19.9005 C   0  0  0  0  0  0  0  0  0  0  0  0
    7.4181   -0.6147   20.9414 N   0  0  0  0  0  0  0  0  0  0  0  0
    7.6831   -1.9733   21.0065 C   0  0  0  0  0  0  0  0  0  0  0  0
    7.0439   -2.8978   20.5779 O   0  0  0  0  0  0  0  0  0  0  0  0
    8.8464   -2.0860   21.7359 N   0  0  0  0  0  0  0  0  0  0  0  0
    9.2767   -2.9664   21.9258 H   0  0  0  0  0  0  0  0  0  0  0  0
    9.0796   -1.0127   22.5348 C   0  0  0  0  0  0  0  0  0  0  0  0
    9.8877   -1.0094   23.4275 O   0  0  0  0  0  0  0  0  0  0  0  0
    8.0870    0.0728   22.0582 C   0  0  2  0  0  0  0  0  0  0  0  0
    8.7044    0.9147   21.7206 H   0  0  0  0  0  0  0  0  0  0  0  0
    7.0833    0.5287   23.0991 C   0  0  0  0  0  0  0  0  0  0  0  0
    6.4992   -0.3748   23.9627 C   0  0  0  0  0  0  0  0  0  0  0  0
    6.7434   -1.4335   23.9042 H   0  0  0  0  0  0  0  0  0  0  0  0
    5.6273   -0.0523   24.9532 N   0  0  0  0  0  0  0  0  0  0  0  0
    5.2800    1.2091   25.0705 C   0  0  0  0  0  0  0  0  0  0  0  0
    4.5867    1.4547   25.8750 H   0  0  0  0  0  0  0  0  0  0  0  0
    5.7403    2.2513   24.2078 C   0  0  0  0  0  0  0  0  0  0  0  0
    5.3071    3.6040   24.3389 C   0  0  0  0  0  0  0  0  0  0  0  0
    4.6239    3.8613   25.1467 H   0  0  0  0  0  0  0  0  0  0  0  0
    5.7413    4.5590   23.4514 C   0  0  0  0  0  0  0  0  0  0  0  0
    5.4076    5.5883   23.5524 H   0  0  0  0  0  0  0  0  0  0  0  0
    6.6170    4.2123   22.3888 C   0  0  0  0  0  0  0  0  0  0  0  0
    6.9441    4.9741   21.6835 H   0  0  0  0  0  0  0  0  0  0  0  0
    7.0551    2.9120   22.2487 C   0  0  0  0  0  0  0  0  0  0  0  0
    7.7027    2.6493   21.4173 H   0  0  0  0  0  0  0  0  0  0  0  0
    6.6527    1.8977   23.1673 C   0  0  0  0  0  0  0  0  0  0  0  0
    5.4686    0.6479   20.1698 C   0  0  0  0  0  0  0  0  0  0  0  0
    5.0751    0.6169   21.1881 H   0  0  0  0  0  0  0  0  0  0  0  0
    4.8163    1.2992   19.1162 C   0  0  0  0  0  0  0  0  0  0  0  0
    3.8831    1.8257   19.2657 H   0  0  0  0  0  0  0  0  0  0  0  0
  1  2  1  0
  2  3  2  0
  3  4  1  0
  4  5  1  0
  4  6  2  0
  6  7  1  0
  7  8  1  0
  8  9  2  0
  8 10  1  0
 10 11  1  0
 10 12  1  0
 12 13  2  0
 12 14  1  0
 14 15  1  6
 14 16  1  0
 16 17  2  0
 17 18  1  0
 17 19  1  0
 19 20  2  0
 20 21  1  0
 20 22  1  0
 22 23  2  0
 23 24  1  0
 23 25  1  0
 25 26  1  0
 25 27  2  0
 27 28  1  0
 27 29  1  0
 29 30  1  0
 29 31  2  0
  6 32  1  0
 32 33  1  0
 32 34  2  0
 34 35  1  0
 34  2  1  0
 14  7  1  0
 31 16  1  0
 31 22  1  0
M  END
>  <cnnaffinity>  (1) 
-4.75105

>  <filename>  (1) 
O=C1NC(=O)N(c2cccnc2)[C@H]1c1cncc2ccccc12

$$$$
