
     RDKit          3D

 31 33  0  0  0  0  0  0  0  0999 V2000
    4.9711    1.7717   16.9778 H   0  0  0  0  0  0  0  0  0  0  0  0
    5.4325    1.2614   17.8214 C   0  0  0  0  0  0  0  0  0  0  0  0
    6.5861    0.6190   17.5702 N   0  0  0  0  0  0  0  0  0  0  0  0
    7.1918    0.0176   18.5983 C   0  0  0  0  0  0  0  0  0  0  0  0
    8.1280   -0.4902   18.3760 H   0  0  0  0  0  0  0  0  0  0  0  0
    6.6959    0.0327   19.9245 C   0  0  0  0  0  0  0  0  0  0  0  0
    7.3982   -0.6065   20.9783 N   0  0  0  0  0  0  0  0  0  0  0  0
    7.4776   -0.2820   22.3608 C   0  0  0  0  0  0  0  0  0  0  0  0
    6.9335    0.6508   22.9048 O   0  0  0  0  0  0  0  0  0  0  0  0
    8.3128   -1.3479   22.9100 C   0  0  0  0  0  0  0  0  0  0  0  0
    8.7214   -1.2106   24.2872 C   0  0  0  0  0  0  0  0  0  0  0  0
    9.2050   -0.0031   24.6171 N   0  0  0  0  0  0  0  0  0  0  0  0
    9.6787    0.1942   25.8435 C   0  0  0  0  0  0  0  0  0  0  0  0
   10.0619    1.1904   26.0587 H   0  0  0  0  0  0  0  0  0  0  0  0
    9.6962   -0.7954   26.8347 C   0  0  0  0  0  0  0  0  0  0  0  0
   10.1154   -0.5715   27.8121 H   0  0  0  0  0  0  0  0  0  0  0  0
    9.1714   -2.0445   26.5260 C   0  0  0  0  0  0  0  0  0  0  0  0
    9.1910   -2.8487   27.2652 H   0  0  0  0  0  0  0  0  0  0  0  0
    8.6555   -2.2482   25.2402 C   0  0  0  0  0  0  0  0  0  0  0  0
    8.0752   -3.5582   24.8081 C   0  0  0  0  0  0  0  0  0  0  0  0
    8.9258   -4.2071   23.9768 F   0  0  0  0  0  0  0  0  0  0  0  0
    6.9268   -3.4069   24.1260 F   0  0  0  0  0  0  0  0  0  0  0  0
    7.8242   -4.3935   25.8273 F   0  0  0  0  0  0  0  0  0  0  0  0
    8.6579   -2.1958   21.9080 C   0  0  0  0  0  0  0  0  0  0  0  0
    9.2344   -3.1145   21.9271 H   0  0  0  0  0  0  0  0  0  0  0  0
    8.2317   -1.6901   20.6984 N   0  0  0  0  0  0  0  0  0  0  0  0
    7.8698   -2.3085   19.9755 H   0  0  0  0  0  0  0  0  0  0  0  0
    5.4781    0.6841   20.1712 C   0  0  0  0  0  0  0  0  0  0  0  0
    5.0624    0.7011   21.1799 H   0  0  0  0  0  0  0  0  0  0  0  0
    4.8404    1.2978   19.0890 C   0  0  0  0  0  0  0  0  0  0  0  0
    3.8997    1.8174   19.2203 H   0  0  0  0  0  0  0  0  0  0  0  0
  1  2  1  0
  2  3  2  0
  3  4  1  0
  4  5  1  0
  4  6  2  0
  6  7  1  0
  7  8  1  0
  8  9  2  0
  8 10  1  0
 10 11  1  0
 11 12  2  0
 12 13  1  0
 13 14  1  0
 13 15  2  0
 15 16  1  0
 15 17  1  0
 17 18  1  0
 17 19  2  0
 19 20  1  0
 20 21  1  0
 20 22  1  0
 20 23  1  0
 10 24  2  0
 24 25  1  0
 24 26  1  0
 26 27  1  0
  6 28  1  0
 28 29  1  0
 28 30  2  0
 30 31  1  0
 30  2  1  0
 26  7  1  0
 19 11  1  0
M  END
>  <cnnaffinity>  (1) 
-5.46605

>  <filename>  (1) 
O=c1c(-c2ncccc2C(F)(F)F)c[nH]n1-c1cccnc1

$$$$
