
     RDKit          3D

 35 37  0  0  0  0  0  0  0  0999 V2000
    6.5598    0.8910   23.5607 H   0  0  0  0  0  0  0  0  0  0  0  0
    6.5466    1.6036   22.9078 O   0  0  0  0  0  0  0  0  0  0  0  0
    7.6676    1.3405   22.0743 C   0  0  1  0  0  0  0  0  0  0  0  0
    7.4244    1.7585   21.0874 H   0  0  0  0  0  0  0  0  0  0  0  0
    8.9619    2.0228   22.5168 C   0  0  0  0  0  0  0  0  0  0  0  0
    9.0935    2.7654   23.7016 C   0  0  0  0  0  0  0  0  0  0  0  0
    8.2440    2.8739   24.3737 H   0  0  0  0  0  0  0  0  0  0  0  0
   10.3075    3.3918   24.0135 C   0  0  0  0  0  0  0  0  0  0  0  0
   10.3736    3.9774   24.9270 H   0  0  0  0  0  0  0  0  0  0  0  0
   11.4137    3.2726   23.1634 C   0  0  0  0  0  0  0  0  0  0  0  0
   12.3573    3.7529   23.4177 H   0  0  0  0  0  0  0  0  0  0  0  0
   11.2906    2.5376   21.9769 C   0  0  0  0  0  0  0  0  0  0  0  0
   12.1373    2.4290   21.3047 H   0  0  0  0  0  0  0  0  0  0  0  0
   10.0716    1.9347   21.6545 C   0  0  0  0  0  0  0  0  0  0  0  0
    9.9723    1.3664   20.7327 H   0  0  0  0  0  0  0  0  0  0  0  0
    7.7979   -0.1730   21.9454 C   0  0  0  0  0  0  0  0  0  0  0  0
    8.4141   -0.9530   22.9759 C   0  0  0  0  0  0  0  0  0  0  0  0
    8.7586   -0.4351   23.8742 H   0  0  0  0  0  0  0  0  0  0  0  0
    8.5689   -2.3036   22.8471 C   0  0  0  0  0  0  0  0  0  0  0  0
    9.0174   -2.9354   23.5996 H   0  0  0  0  0  0  0  0  0  0  0  0
    8.1548   -2.9934   21.6313 C   0  0  0  0  0  0  0  0  0  0  0  0
    8.2978   -4.1785   21.3671 O   0  0  0  0  0  0  0  0  0  0  0  0
    7.5519   -2.1738   20.6931 N   0  0  0  0  0  0  0  0  0  0  0  0
    7.3055   -2.6942   19.8678 H   0  0  0  0  0  0  0  0  0  0  0  0
    7.2912   -0.8356   20.8473 C   0  0  0  0  0  0  0  0  0  0  0  0
    6.5320   -0.1738   19.7869 C   0  0  0  0  0  0  0  0  0  0  0  0
    7.0565   -0.1607   18.4850 C   0  0  0  0  0  0  0  0  0  0  0  0
    7.9757   -0.7059   18.2642 H   0  0  0  0  0  0  0  0  0  0  0  0
    6.5303    0.5430   17.4775 N   0  0  0  0  0  0  0  0  0  0  0  0
    5.4226    1.2589   17.7327 C   0  0  0  0  0  0  0  0  0  0  0  0
    5.0213    1.8290   16.8956 H   0  0  0  0  0  0  0  0  0  0  0  0
    4.8040    1.3000   18.9883 C   0  0  0  0  0  0  0  0  0  0  0  0
    3.9225    1.9165   19.1249 H   0  0  0  0  0  0  0  0  0  0  0  0
    5.3724    0.5804   20.0427 C   0  0  0  0  0  0  0  0  0  0  0  0
    4.9556    0.6389   21.0513 H   0  0  0  0  0  0  0  0  0  0  0  0
  1  2  1  0
  2  3  1  0
  3  4  1  6
  3  5  1  0
  5  6  2  0
  6  7  1  0
  6  8  1  0
  8  9  1  0
  8 10  2  0
 10 11  1  0
 10 12  1  0
 12 13  1  0
 12 14  2  0
 14 15  1  0
  3 16  1  0
 16 17  1  0
 17 18  1  0
 17 19  2  0
 19 20  1  0
 19 21  1  0
 21 22  2  0
 21 23  1  0
 23 24  1  0
 23 25  1  0
 25 26  1  0
 26 27  2  0
 27 28  1  0
 27 29  1  0
 29 30  2  0
 30 31  1  0
 30 32  1  0
 32 33  1  0
 32 34  2  0
 34 35  1  0
 14  5  1  0
 25 16  2  0
 34 26  1  0
M  END
>  <cnnaffinity>  (1) 
-5.24032

>  <filename>  (1) 
O=c1ccc([C@@H](O)c2ccccc2)c(-c2cccnc2)[nH]1

$$$$
