
     RDKit          3D

 33 36  0  0  0  0  0  0  0  0999 V2000
    4.8831    1.8351   17.0280 H   0  0  0  0  0  0  0  0  0  0  0  0
    5.4154    1.3057   17.8154 C   0  0  0  0  0  0  0  0  0  0  0  0
    6.5735    0.7235   17.4623 N   0  0  0  0  0  0  0  0  0  0  0  0
    7.2578    0.0760   18.4146 C   0  0  0  0  0  0  0  0  0  0  0  0
    8.1945   -0.3885   18.1203 H   0  0  0  0  0  0  0  0  0  0  0  0
    6.8158   -0.0425   19.7537 C   0  0  0  0  0  0  0  0  0  0  0  0
    7.5493   -0.7663   20.7718 N   0  0  0  0  0  0  0  0  0  0  0  0
    8.8597   -0.5331   21.1617 C   0  0  0  0  0  0  0  0  0  0  0  0
    9.6357    0.2182   20.6308 O   0  0  0  0  0  0  0  0  0  0  0  0
    9.0631   -1.4393   22.3999 C   0  0  0  0  0  0  0  0  0  0  0  0
   10.0818   -1.6481   23.0007 O   0  0  0  0  0  0  0  0  0  0  0  0
    7.8171   -1.9975   22.6702 N   0  0  0  0  0  0  0  0  0  0  0  0
    7.5020   -2.8445   23.7852 C   0  0  0  0  0  0  0  0  0  0  0  0
    6.4487   -3.7907   23.6600 C   0  0  0  0  0  0  0  0  0  0  0  0
    5.8762   -3.8099   22.7471 H   0  0  0  0  0  0  0  0  0  0  0  0
    6.1653   -4.6748   24.6925 C   0  0  0  0  0  0  0  0  0  0  0  0
    5.3225   -5.3561   24.6119 H   0  0  0  0  0  0  0  0  0  0  0  0
    6.9789   -4.6794   25.8479 C   0  0  0  0  0  0  0  0  0  0  0  0
    7.1150   -5.5123   27.0149 C   0  0  0  0  0  0  0  0  0  0  0  0
    6.5029   -6.3634   27.2738 H   0  0  0  0  0  0  0  0  0  0  0  0
    8.1708   -5.0385   27.7380 C   0  0  0  0  0  0  0  0  0  0  0  0
    8.6158   -5.4420   28.6382 H   0  0  0  0  0  0  0  0  0  0  0  0
    8.7033   -3.9405   27.0926 N   0  0  0  0  0  0  0  0  0  0  0  0
    9.4707   -3.3610   27.3819 H   0  0  0  0  0  0  0  0  0  0  0  0
    8.0026   -3.7054   25.9415 C   0  0  0  0  0  0  0  0  0  0  0  0
    8.2546   -2.7502   24.9488 C   0  0  0  0  0  0  0  0  0  0  0  0
    9.0221   -1.9972   25.0726 H   0  0  0  0  0  0  0  0  0  0  0  0
    6.9375   -1.6601   21.6513 C   0  0  0  0  0  0  0  0  0  0  0  0
    5.8192   -2.0758   21.4912 O   0  0  0  0  0  0  0  0  0  0  0  0
    5.5907    0.5400   20.0943 C   0  0  0  0  0  0  0  0  0  0  0  0
    5.2036    0.4165   21.1051 H   0  0  0  0  0  0  0  0  0  0  0  0
    4.8858    1.2417   19.1091 C   0  0  0  0  0  0  0  0  0  0  0  0
    3.9430    1.7321   19.3355 H   0  0  0  0  0  0  0  0  0  0  0  0
  1  2  1  0
  2  3  2  0
  3  4  1  0
  4  5  1  0
  4  6  2  0
  6  7  1  0
  7  8  1  0
  8  9  2  0
  8 10  1  0
 10 11  2  0
 10 12  1  0
 12 13  1  0
 13 14  2  0
 14 15  1  0
 14 16  1  0
 16 17  1  0
 16 18  2  0
 18 19  1  0
 19 20  1  0
 19 21  2  0
 21 22  1  0
 21 23  1  0
 23 24  1  0
 23 25  1  0
 25 26  2  0
 26 27  1  0
 12 28  1  0
 28 29  2  0
  6 30  1  0
 30 31  1  0
 30 32  2  0
 32 33  1  0
 32  2  1  0
 28  7  1  0
 26 13  1  0
 25 18  1  0
M  END
>  <cnnaffinity>  (1) 
-5.24399

>  <filename>  (1) 
O=C1C(=O)N(c2ccc3cc[nH]c3c2)C(=O)N1c1cccnc1

$$$$
