
     RDKit          3D

 33 35  0  0  0  0  0  0  0  0999 V2000
    5.0141    1.8011   16.9164 H   0  0  0  0  0  0  0  0  0  0  0  0
    5.4546    1.3107   17.7786 C   0  0  0  0  0  0  0  0  0  0  0  0
    6.6243    0.6863   17.5541 N   0  0  0  0  0  0  0  0  0  0  0  0
    7.1942    0.0629   18.5894 C   0  0  0  0  0  0  0  0  0  0  0  0
    8.1614   -0.4108   18.4292 H   0  0  0  0  0  0  0  0  0  0  0  0
    6.6113   -0.0176   19.8700 C   0  0  0  0  0  0  0  0  0  0  0  0
    7.2956   -0.7583   20.8827 N   0  0  0  0  0  0  0  0  0  0  0  0
    8.6563   -0.7150   20.7942 N   0  0  0  0  0  0  0  0  0  0  0  0
    9.3843   -1.2642   21.7161 C   0  0  0  0  0  0  0  0  0  0  0  0
   10.8668   -0.9373   21.6208 C   0  0  0  0  0  0  0  0  0  0  0  0
   11.0948   -0.6816   20.5792 H   0  0  0  0  0  0  0  0  0  0  0  0
   11.4600   -1.8225   21.8883 H   0  0  0  0  0  0  0  0  0  0  0  0
   11.1896    0.2198   22.5556 C   0  0  0  0  0  0  0  0  0  0  0  0
   11.2576   -0.0435   23.9343 C   0  0  0  0  0  0  0  0  0  0  0  0
   11.0659   -1.0569   24.2710 H   0  0  0  0  0  0  0  0  0  0  0  0
   11.4890    0.9699   24.8572 C   0  0  0  0  0  0  0  0  0  0  0  0
   11.4792    0.7190   25.9108 H   0  0  0  0  0  0  0  0  0  0  0  0
   11.6796    2.2786   24.4078 C   0  0  0  0  0  0  0  0  0  0  0  0
   11.9207    3.0891   25.0657 H   0  0  0  0  0  0  0  0  0  0  0  0
   11.5747    2.5777   23.0611 C   0  0  0  0  0  0  0  0  0  0  0  0
   11.6655    3.5868   22.6786 H   0  0  0  0  0  0  0  0  0  0  0  0
   11.3298    1.5551   22.1507 C   0  0  0  0  0  0  0  0  0  0  0  0
   11.2507    2.0805   20.5098 Cl  0  0  0  0  0  0  0  0  0  0  0  0
    8.8095   -2.0671   22.8507 C   0  0  0  0  0  0  0  0  0  0  0  0
    9.4896   -2.5997   23.7258 O   0  0  0  0  0  0  0  0  0  0  0  0
    7.3597   -2.1514   22.8125 C   0  0  0  0  0  0  0  0  0  0  0  0
    6.8849   -2.7154   23.6035 H   0  0  0  0  0  0  0  0  0  0  0  0
    6.6688   -1.5072   21.8462 C   0  0  0  0  0  0  0  0  0  0  0  0
    5.5872   -1.5406   21.7611 H   0  0  0  0  0  0  0  0  0  0  0  0
    5.4051    0.6584   20.1039 C   0  0  0  0  0  0  0  0  0  0  0  0
    4.9771    0.6856   21.1071 H   0  0  0  0  0  0  0  0  0  0  0  0
    4.8224    1.3374   19.0266 C   0  0  0  0  0  0  0  0  0  0  0  0
    3.8929    1.8845   19.1441 H   0  0  0  0  0  0  0  0  0  0  0  0
  1  2  1  0
  2  3  2  0
  3  4  1  0
  4  5  1  0
  4  6  2  0
  6  7  1  0
  7  8  1  0
  8  9  2  0
  9 10  1  0
 10 11  1  0
 10 12  1  0
 10 13  1  0
 13 14  2  0
 14 15  1  0
 14 16  1  0
 16 17  1  0
 16 18  2  0
 18 19  1  0
 18 20  1  0
 20 21  1  0
 20 22  2  0
 22 23  1  0
  9 24  1  0
 24 25  2  0
 24 26  1  0
 26 27  1  0
 26 28  2  0
 28 29  1  0
  6 30  1  0
 30 31  1  0
 30 32  2  0
 32 33  1  0
 32  2  1  0
 28  7  1  0
 22 13  1  0
M  END
>  <cnnaffinity>  (1) 
-5.4954

>  <filename>  (1) 
O=c1ccn(-c2cccnc2)nc1Cc1ccccc1Cl

$$$$
