
     RDKit          3D

 33 35  0  0  0  0  0  0  0  0999 V2000
    4.9087    1.7817   16.9935 H   0  0  0  0  0  0  0  0  0  0  0  0
    5.3984    1.2968   17.8335 C   0  0  0  0  0  0  0  0  0  0  0  0
    6.5621    0.6834   17.5639 N   0  0  0  0  0  0  0  0  0  0  0  0
    7.1840    0.0781   18.5834 C   0  0  0  0  0  0  0  0  0  0  0  0
    8.1206   -0.4320   18.3683 H   0  0  0  0  0  0  0  0  0  0  0  0
    6.6780    0.0331   19.8972 C   0  0  0  0  0  0  0  0  0  0  0  0
    7.3785   -0.6623   20.9528 N   0  0  0  0  0  0  0  0  0  0  0  0
    8.6656   -0.2768   21.2837 C   0  0  0  0  0  0  0  0  0  0  0  0
    9.0646    0.5573   20.7036 H   0  0  0  0  0  0  0  0  0  0  0  0
    9.3594   -0.9061   22.2720 C   0  0  0  0  0  0  0  0  0  0  0  0
   10.3572   -0.5689   22.5189 H   0  0  0  0  0  0  0  0  0  0  0  0
    8.7461   -1.9776   22.9920 C   0  0  0  0  0  0  0  0  0  0  0  0
    9.4371   -2.6045   24.0151 N   0  0  0  0  0  0  0  0  0  0  0  0
   10.4351   -2.6349   23.9111 H   0  0  0  0  0  0  0  0  0  0  0  0
    8.9079   -3.1971   25.1730 C   0  0  0  0  0  0  0  0  0  0  0  0
    9.5470   -4.2982   25.7672 C   0  0  0  0  0  0  0  0  0  0  0  0
   10.4545   -4.7015   25.3300 H   0  0  0  0  0  0  0  0  0  0  0  0
    9.0120   -4.9022   26.9120 C   0  0  0  0  0  0  0  0  0  0  0  0
    9.4948   -5.7593   27.3717 H   0  0  0  0  0  0  0  0  0  0  0  0
    7.8408   -4.3920   27.4795 C   0  0  0  0  0  0  0  0  0  0  0  0
    7.1543   -5.1403   28.8958 Cl  0  0  0  0  0  0  0  0  0  0  0  0
    7.2090   -3.2824   26.9170 C   0  0  0  0  0  0  0  0  0  0  0  0
    6.3046   -2.8866   27.3658 H   0  0  0  0  0  0  0  0  0  0  0  0
    7.7455   -2.6915   25.7732 C   0  0  0  0  0  0  0  0  0  0  0  0
    7.2680   -1.8250   25.3347 H   0  0  0  0  0  0  0  0  0  0  0  0
    7.4922   -2.3835   22.6556 C   0  0  0  0  0  0  0  0  0  0  0  0
    6.9991   -3.1994   23.1432 H   0  0  0  0  0  0  0  0  0  0  0  0
    6.7297   -1.7603   21.6234 C   0  0  0  0  0  0  0  0  0  0  0  0
    5.6182   -2.1377   21.2930 O   0  0  0  0  0  0  0  0  0  0  0  0
    5.4499    0.6531   20.1589 C   0  0  0  0  0  0  0  0  0  0  0  0
    5.0185    0.6120   21.1627 H   0  0  0  0  0  0  0  0  0  0  0  0
    4.8090    1.3139   19.1047 C   0  0  0  0  0  0  0  0  0  0  0  0
    3.8723    1.8438   19.2615 H   0  0  0  0  0  0  0  0  0  0  0  0
  1  2  1  0
  2  3  2  0
  3  4  1  0
  4  5  1  0
  4  6  2  0
  6  7  1  0
  7  8  1  0
  8  9  1  0
  8 10  2  0
 10 11  1  0
 10 12  1  0
 12 13  1  0
 13 14  1  0
 13 15  1  0
 15 16  2  0
 16 17  1  0
 16 18  1  0
 18 19  1  0
 18 20  2  0
 20 21  1  0
 20 22  1  0
 22 23  1  0
 22 24  2  0
 24 25  1  0
 12 26  2  0
 26 27  1  0
 26 28  1  0
 28 29  2  0
  6 30  1  0
 30 31  1  0
 30 32  2  0
 32 33  1  0
 32  2  1  0
 28  7  1  0
 24 15  1  0
M  END
>  <cnnaffinity>  (1) 
-5.0203

>  <filename>  (1) 
O=c1cc(Nc2ccc(Cl)cc2)ccn1-c1cccnc1

$$$$
