
     RDKit          3D

 34 36  0  0  0  0  0  0  0  0999 V2000
    4.9325    1.7934   16.9876 H   0  0  0  0  0  0  0  0  0  0  0  0
    5.3998    1.2986   17.8360 C   0  0  0  0  0  0  0  0  0  0  0  0
    6.5651    0.6803   17.5830 N   0  0  0  0  0  0  0  0  0  0  0  0
    7.1603    0.0518   18.6006 C   0  0  0  0  0  0  0  0  0  0  0  0
    8.1077   -0.4353   18.3729 H   0  0  0  0  0  0  0  0  0  0  0  0
    6.6400    0.0178   19.9004 C   0  0  0  0  0  0  0  0  0  0  0  0
    7.3720   -0.7314   20.9168 C   0  0  0  0  0  0  0  0  0  0  0  0
    7.7703   -1.9552   20.7373 N   0  0  0  0  0  0  0  0  0  0  0  0
    8.3261   -2.2855   21.9413 N   0  0  0  0  0  0  0  0  0  0  0  0
    8.7377   -3.1753   22.1522 H   0  0  0  0  0  0  0  0  0  0  0  0
    8.3163   -1.2836   22.8563 C   0  0  0  0  0  0  0  0  0  0  0  0
    8.7700   -1.3216   23.9878 O   0  0  0  0  0  0  0  0  0  0  0  0
    7.6834   -0.2525   22.1676 N   0  0  0  0  0  0  0  0  0  0  0  0
    7.5200    1.0988   22.7047 C   0  0  0  0  0  0  0  0  0  0  0  0
    7.0571    1.6898   21.9067 H   0  0  0  0  0  0  0  0  0  0  0  0
    6.5916    1.1017   23.9285 C   0  0  0  0  0  0  0  0  0  0  0  0
    7.0264    0.4296   24.6815 H   0  0  0  0  0  0  0  0  0  0  0  0
    5.6227    0.6753   23.6414 H   0  0  0  0  0  0  0  0  0  0  0  0
    6.4153    2.5229   24.4971 C   0  0  0  0  0  0  0  0  0  0  0  0
    5.8737    3.1500   23.7710 H   0  0  0  0  0  0  0  0  0  0  0  0
    5.7861    2.4973   25.3943 H   0  0  0  0  0  0  0  0  0  0  0  0
    7.7717    3.1766   24.8177 C   0  0  0  0  0  0  0  0  0  0  0  0
    8.2520    2.6219   25.6376 H   0  0  0  0  0  0  0  0  0  0  0  0
    7.6311    4.2014   25.1882 H   0  0  0  0  0  0  0  0  0  0  0  0
    8.7023    3.1644   23.5922 C   0  0  0  0  0  0  0  0  0  0  0  0
    9.6793    3.5884   23.8498 H   0  0  0  0  0  0  0  0  0  0  0  0
    8.2866    3.8246   22.8141 H   0  0  0  0  0  0  0  0  0  0  0  0
    8.8781    1.7422   23.0277 C   0  0  0  0  0  0  0  0  0  0  0  0
    9.3903    1.0931   23.7515 H   0  0  0  0  0  0  0  0  0  0  0  0
    9.4857    1.7569   22.1167 H   0  0  0  0  0  0  0  0  0  0  0  0
    5.4234    0.6618   20.1522 C   0  0  0  0  0  0  0  0  0  0  0  0
    4.9848    0.6419   21.1545 H   0  0  0  0  0  0  0  0  0  0  0  0
    4.7929    1.3147   19.0971 C   0  0  0  0  0  0  0  0  0  0  0  0
    3.8638    1.8489   19.2449 H   0  0  0  0  0  0  0  0  0  0  0  0
  1  2  1  0
  2  3  2  0
  3  4  1  0
  4  5  1  0
  4  6  2  0
  6  7  1  0
  7  8  2  0
  8  9  1  0
  9 10  1  0
  9 11  1  0
 11 12  2  0
 11 13  1  0
 13 14  1  0
 14 15  1  0
 14 16  1  0
 16 17  1  0
 16 18  1  0
 16 19  1  0
 19 20  1  0
 19 21  1  0
 19 22  1  0
 22 23  1  0
 22 24  1  0
 22 25  1  0
 25 26  1  0
 25 27  1  0
 25 28  1  0
 28 29  1  0
 28 30  1  0
  6 31  1  0
 31 32  1  0
 31 33  2  0
 33 34  1  0
 33  2  1  0
 13  7  1  0
 28 14  1  0
M  END
>  <cnnaffinity>  (1) 
-4.90096

>  <filename>  (1) 
O=c1[nH]nc(-c2cccnc2)n1C1CCCCC1

$$$$
