
     RDKit          3D

 30 32  0  0  0  0  0  0  0  0999 V2000
    5.0986    2.4249   16.4319 H   0  0  0  0  0  0  0  0  0  0  0  0
    5.3663    1.8555   17.3202 C   0  0  0  0  0  0  0  0  0  0  0  0
    6.5083    1.1543   17.2419 N   0  0  0  0  0  0  0  0  0  0  0  0
    6.8630    0.4352   18.3121 C   0  0  0  0  0  0  0  0  0  0  0  0
    7.7848   -0.1348   18.2014 H   0  0  0  0  0  0  0  0  0  0  0  0
    6.1278    0.3846   19.5109 C   0  0  0  0  0  0  0  0  0  0  0  0
    6.5755   -0.4593   20.6518 C   0  0  0  0  0  0  0  0  0  0  0  0
    6.6300    0.3405   22.2110 S   0  0  0  0  0  0  0  0  0  0  0  0
    7.1346   -0.9754   23.2376 C   0  0  0  0  0  0  0  0  0  0  0  0
    7.4762   -0.6073   24.6445 C   0  0  0  0  0  0  0  0  0  0  0  0
    6.4928   -0.6440   25.6439 C   0  0  0  0  0  0  0  0  0  0  0  0
    5.4795   -0.9049   25.3599 H   0  0  0  0  0  0  0  0  0  0  0  0
    6.8110   -0.3638   26.9776 C   0  0  0  0  0  0  0  0  0  0  0  0
    6.0217   -0.3377   27.7229 H   0  0  0  0  0  0  0  0  0  0  0  0
    8.1367   -0.1163   27.3414 C   0  0  0  0  0  0  0  0  0  0  0  0
    8.4096    0.0781   28.3758 H   0  0  0  0  0  0  0  0  0  0  0  0
    9.1386   -0.1304   26.3667 C   0  0  0  0  0  0  0  0  0  0  0  0
   10.7840    0.0425   26.8473 Cl  0  0  0  0  0  0  0  0  0  0  0  0
    8.8076   -0.3238   25.0157 C   0  0  0  0  0  0  0  0  0  0  0  0
   10.0363   -0.1971   23.8072 Cl  0  0  0  0  0  0  0  0  0  0  0  0
    7.2656   -2.2578   22.8485 C   0  0  0  0  0  0  0  0  0  0  0  0
    7.4835   -3.0094   23.5955 H   0  0  0  0  0  0  0  0  0  0  0  0
    7.2426   -2.7311   21.4623 C   0  0  0  0  0  0  0  0  0  0  0  0
    7.5218   -3.8891   21.1828 O   0  0  0  0  0  0  0  0  0  0  0  0
    6.8940   -1.7467   20.4368 C   0  0  0  0  0  0  0  0  0  0  0  0
    6.8684   -2.1271   19.4242 H   0  0  0  0  0  0  0  0  0  0  0  0
    4.9227    1.0976   19.5619 C   0  0  0  0  0  0  0  0  0  0  0  0
    4.3022    1.0197   20.4541 H   0  0  0  0  0  0  0  0  0  0  0  0
    4.5441    1.8561   18.4525 C   0  0  0  0  0  0  0  0  0  0  0  0
    3.6399    2.4521   18.4463 H   0  0  0  0  0  0  0  0  0  0  0  0
  1  2  1  0
  2  3  2  0
  3  4  1  0
  4  5  1  0
  4  6  2  0
  6  7  1  0
  7  8  1  0
  8  9  1  0
  9 10  1  0
 10 11  2  0
 11 12  1  0
 11 13  1  0
 13 14  1  0
 13 15  2  0
 15 16  1  0
 15 17  1  0
 17 18  1  0
 17 19  2  0
 19 20  1  0
  9 21  2  0
 21 22  1  0
 21 23  1  0
 23 24  2  0
 23 25  1  0
 25 26  1  0
  6 27  1  0
 27 28  1  0
 27 29  2  0
 29 30  1  0
 29  2  1  0
 25  7  2  0
 19 10  1  0
M  END
>  <cnnaffinity>  (1) 
-5.16075

>  <filename>  (1) 
O=c1cc(-c2cccnc2)sc(-c2cccc(Cl)c2Cl)c1

$$$$
