
     RDKit          3D

 33 35  0  0  0  0  0  0  0  0999 V2000
    8.0935    0.4988   24.0845 H   0  0  0  0  0  0  0  0  0  0  0  0
    8.2278    0.9474   23.0897 C   0  0  0  0  0  0  0  0  0  0  0  0
    8.3813    2.2782   22.9646 C   0  0  0  0  0  0  0  0  0  0  0  0
    8.5035    3.4562   24.2785 S   0  0  0  0  0  0  0  0  0  0  0  0
    8.5420    4.8218   23.1052 C   0  0  0  0  0  0  0  0  0  0  0  0
    8.7341    5.9769   23.3491 O   0  0  0  0  0  0  0  0  0  0  0  0
    8.3326    4.3250   21.8494 N   0  0  0  0  0  0  0  0  0  0  0  0
    8.5396    4.9241   21.0702 H   0  0  0  0  0  0  0  0  0  0  0  0
    8.4511    2.9704   21.6652 C   0  0  0  0  0  0  0  0  0  0  0  0
    8.6234    2.4747   20.5782 O   0  0  0  0  0  0  0  0  0  0  0  0
    8.3869    0.0925   21.9991 N   0  0  0  0  0  0  0  0  0  0  0  0
    9.6945   -0.0503   21.3496 C   0  0  0  0  0  0  0  0  0  0  0  0
   10.4390    0.5513   21.8796 H   0  0  0  0  0  0  0  0  0  0  0  0
    9.6445    0.3186   20.3175 H   0  0  0  0  0  0  0  0  0  0  0  0
   10.0599   -1.5342   21.3250 C   0  0  0  0  0  0  0  0  0  0  0  0
   10.9977   -1.7193   20.8051 H   0  0  0  0  0  0  0  0  0  0  0  0
   10.1687   -1.9368   22.3435 H   0  0  0  0  0  0  0  0  0  0  0  0
    9.0697   -2.2365   20.5966 O   0  0  0  0  0  0  0  0  0  0  0  0
    7.7674   -2.1262   21.1551 C   0  0  0  0  0  0  0  0  0  0  0  0
    7.7274   -2.6800   22.1059 H   0  0  0  0  0  0  0  0  0  0  0  0
    7.0882   -2.6078   20.4452 H   0  0  0  0  0  0  0  0  0  0  0  0
    7.2871   -0.6696   21.4026 C   0  0  2  0  0  0  0  0  0  0  0  0
    6.4782   -0.7387   22.1401 H   0  0  0  0  0  0  0  0  0  0  0  0
    6.6634    0.0042   20.1742 C   0  0  0  0  0  0  0  0  0  0  0  0
    7.2605   -0.0654   18.9094 C   0  0  0  0  0  0  0  0  0  0  0  0
    8.1822   -0.6303   18.7641 H   0  0  0  0  0  0  0  0  0  0  0  0
    6.7452    0.4938   17.8015 N   0  0  0  0  0  0  0  0  0  0  0  0
    5.6021    1.1797   17.9253 C   0  0  0  0  0  0  0  0  0  0  0  0
    5.2026    1.6100   17.0085 H   0  0  0  0  0  0  0  0  0  0  0  0
    4.9290    1.3320   19.1398 C   0  0  0  0  0  0  0  0  0  0  0  0
    4.0166    1.9147   19.1802 H   0  0  0  0  0  0  0  0  0  0  0  0
    5.4696    0.7335   20.2794 C   0  0  0  0  0  0  0  0  0  0  0  0
    4.9755    0.8360   21.2468 H   0  0  0  0  0  0  0  0  0  0  0  0
  1  2  1  0
  2  3  2  3
  3  4  1  0
  4  5  1  0
  5  6  2  0
  5  7  1  0
  7  8  1  0
  7  9  1  0
  9 10  2  0
  2 11  1  0
 11 12  1  0
 12 13  1  0
 12 14  1  0
 12 15  1  0
 15 16  1  0
 15 17  1  0
 15 18  1  0
 18 19  1  0
 19 20  1  0
 19 21  1  0
 19 22  1  0
 22 23  1  1
 22 24  1  0
 24 25  2  0
 25 26  1  0
 25 27  1  0
 27 28  2  0
 28 29  1  0
 28 30  1  0
 30 31  1  0
 30 32  2  0
 32 33  1  0
  9  3  1  0
 22 11  1  0
 32 24  1  0
M  END
>  <cnnaffinity>  (1) 
-4.62984

>  <filename>  (1) 
O=C1NC(=O)C(=CN2CCOC[C@@H]2c2cccnc2)S1

$$$$
