
     RDKit          3D

 31 33  0  0  0  0  0  0  0  0999 V2000
    4.9786    1.7627   17.0066 H   0  0  0  0  0  0  0  0  0  0  0  0
    5.4620    1.2784   17.8518 C   0  0  0  0  0  0  0  0  0  0  0  0
    6.6395    0.6773   17.5992 N   0  0  0  0  0  0  0  0  0  0  0  0
    7.2561    0.0751   18.6212 C   0  0  0  0  0  0  0  0  0  0  0  0
    8.2161   -0.3961   18.4220 H   0  0  0  0  0  0  0  0  0  0  0  0
    6.7131    0.0061   19.9172 C   0  0  0  0  0  0  0  0  0  0  0  0
    7.4062   -0.6954   20.9509 N   0  0  0  0  0  0  0  0  0  0  0  0
    8.7759   -0.4475   20.9993 N   0  0  0  0  0  0  0  0  0  0  0  0
    9.5007   -1.1509   21.8087 C   0  0  0  0  0  0  0  0  0  0  0  0
   10.9492   -0.8716   21.8416 C   0  0  0  0  0  0  0  0  0  0  0  0
   11.3807    0.4633   21.7509 C   0  0  0  0  0  0  0  0  0  0  0  0
   10.6777    1.2702   21.5534 H   0  0  0  0  0  0  0  0  0  0  0  0
   12.6531    0.8297   21.9190 N   0  0  0  0  0  0  0  0  0  0  0  0
   13.5771   -0.1353   22.0452 C   0  0  0  0  0  0  0  0  0  0  0  0
   14.6273    0.1494   22.0478 H   0  0  0  0  0  0  0  0  0  0  0  0
   13.2401   -1.4897   22.0569 C   0  0  0  0  0  0  0  0  0  0  0  0
   14.2226   -2.3983   22.0769 F   0  0  0  0  0  0  0  0  0  0  0  0
   11.9108   -1.8850   22.0368 C   0  0  0  0  0  0  0  0  0  0  0  0
   11.6512   -2.9339   22.1911 H   0  0  0  0  0  0  0  0  0  0  0  0
    8.9391   -2.2497   22.6885 C   0  0  0  0  0  0  0  0  0  0  0  0
    9.5387   -2.3449   23.6014 H   0  0  0  0  0  0  0  0  0  0  0  0
    9.0391   -3.2060   22.1529 H   0  0  0  0  0  0  0  0  0  0  0  0
    7.4668   -1.9835   23.0276 C   0  0  0  0  0  0  0  0  0  0  0  0
    7.3722   -1.1578   23.7471 H   0  0  0  0  0  0  0  0  0  0  0  0
    6.9742   -2.8526   23.4623 H   0  0  0  0  0  0  0  0  0  0  0  0
    6.6950   -1.6072   21.7795 C   0  0  0  0  0  0  0  0  0  0  0  0
    5.5973   -2.0427   21.4982 O   0  0  0  0  0  0  0  0  0  0  0  0
    5.4863    0.6265   20.1729 C   0  0  0  0  0  0  0  0  0  0  0  0
    5.0438    0.5826   21.1678 H   0  0  0  0  0  0  0  0  0  0  0  0
    4.8600    1.2902   19.1143 C   0  0  0  0  0  0  0  0  0  0  0  0
    3.9159    1.8055   19.2596 H   0  0  0  0  0  0  0  0  0  0  0  0
  1  2  1  0
  2  3  2  0
  3  4  1  0
  4  5  1  0
  4  6  2  0
  6  7  1  0
  7  8  1  0
  8  9  2  0
  9 10  1  0
 10 11  2  0
 11 12  1  0
 11 13  1  0
 13 14  2  0
 14 15  1  0
 14 16  1  0
 16 17  1  0
 16 18  2  0
 18 19  1  0
  9 20  1  0
 20 21  1  0
 20 22  1  0
 20 23  1  0
 23 24  1  0
 23 25  1  0
 23 26  1  0
 26 27  2  0
  6 28  1  0
 28 29  1  0
 28 30  2  0
 30 31  1  0
 30  2  1  0
 26  7  1  0
 18 10  1  0
M  END
>  <cnnaffinity>  (1) 
-5.79901

>  <filename>  (1) 
O=C1CCC(c2cncc(F)c2)=NN1c1cccnc1

$$$$
