
     RDKit          3D

 36 38  0  0  0  0  0  0  0  0999 V2000
    7.1359    0.9374   22.4047 H   0  0  0  0  0  0  0  0  0  0  0  0
    7.5796   -0.0115   22.1459 C   0  0  0  0  0  0  0  0  0  0  0  0
    7.4123   -0.5446   20.9298 C   0  0  0  0  0  0  0  0  0  0  0  0
    6.6377    0.0676   19.8443 C   0  0  0  0  0  0  0  0  0  0  0  0
    7.1411    0.0654   18.5325 C   0  0  0  0  0  0  0  0  0  0  0  0
    8.0782   -0.4445   18.3090 H   0  0  0  0  0  0  0  0  0  0  0  0
    6.5480    0.6793   17.5040 N   0  0  0  0  0  0  0  0  0  0  0  0
    5.3881    1.3093   17.7489 C   0  0  0  0  0  0  0  0  0  0  0  0
    4.9296    1.8125   16.9009 H   0  0  0  0  0  0  0  0  0  0  0  0
    4.7722    1.3330   19.0054 C   0  0  0  0  0  0  0  0  0  0  0  0
    3.8298    1.8527   19.1321 H   0  0  0  0  0  0  0  0  0  0  0  0
    5.4059    0.7042   20.0756 C   0  0  0  0  0  0  0  0  0  0  0  0
    4.9542    0.6826   21.0699 H   0  0  0  0  0  0  0  0  0  0  0  0
    8.0304   -1.7613   20.6265 N   0  0  0  0  0  0  0  0  0  0  0  0
    7.6445   -2.3143   19.8758 H   0  0  0  0  0  0  0  0  0  0  0  0
    8.3679   -2.6759   21.6115 C   0  0  0  0  0  0  0  0  0  0  0  0
    8.3649   -3.8610   21.3208 O   0  0  0  0  0  0  0  0  0  0  0  0
    8.6958   -2.1232   22.8521 N   0  0  0  0  0  0  0  0  0  0  0  0
    8.9508   -2.8791   24.0328 N   0  0  0  0  0  0  0  0  0  0  0  0
    9.8071   -3.4335   23.9467 H   0  0  0  0  0  0  0  0  0  0  0  0
    7.8024   -3.7290   24.3778 C   0  0  0  0  0  0  0  0  0  0  0  0
    7.5529   -4.4074   23.5484 H   0  0  0  0  0  0  0  0  0  0  0  0
    6.9434   -3.0645   24.5184 H   0  0  0  0  0  0  0  0  0  0  0  0
    8.0345   -4.5138   25.6339 C   0  0  0  0  0  0  0  0  0  0  0  0
    8.5791   -5.7987   25.5624 C   0  0  0  0  0  0  0  0  0  0  0  0
    8.9302   -6.2109   24.6186 H   0  0  0  0  0  0  0  0  0  0  0  0
    8.6930   -6.5357   26.7377 C   0  0  0  0  0  0  0  0  0  0  0  0
    9.1072   -7.5394   26.7024 H   0  0  0  0  0  0  0  0  0  0  0  0
    8.3047   -6.0883   27.9426 N   0  0  0  0  0  0  0  0  0  0  0  0
    7.8293   -4.8404   28.0086 C   0  0  0  0  0  0  0  0  0  0  0  0
    7.5030   -4.4919   28.9887 H   0  0  0  0  0  0  0  0  0  0  0  0
    7.7001   -4.0099   26.8975 C   0  0  0  0  0  0  0  0  0  0  0  0
    7.3740   -2.9836   27.0294 H   0  0  0  0  0  0  0  0  0  0  0  0
    8.4099   -0.7104   23.1799 C   0  0  0  0  0  0  0  0  0  0  0  0
    9.3650   -0.1884   23.3649 H   0  0  0  0  0  0  0  0  0  0  0  0
    7.8744   -0.6823   24.1452 H   0  0  0  0  0  0  0  0  0  0  0  0
  1  2  1  0
  2  3  2  0
  3  4  1  0
  4  5  2  0
  5  6  1  0
  5  7  1  0
  7  8  2  0
  8  9  1  0
  8 10  1  0
 10 11  1  0
 10 12  2  0
 12 13  1  0
  3 14  1  0
 14 15  1  0
 14 16  1  0
 16 17  2  0
 16 18  1  0
 18 19  1  0
 19 20  1  0
 19 21  1  0
 21 22  1  0
 21 23  1  0
 21 24  1  0
 24 25  2  0
 25 26  1  0
 25 27  1  0
 27 28  1  0
 27 29  2  0
 29 30  1  0
 30 31  1  0
 30 32  2  0
 32 33  1  0
 18 34  1  0
 34 35  1  0
 34 36  1  0
 34  2  1  0
 12  4  1  0
 32 24  1  0
M  END
>  <cnnaffinity>  (1) 
-5.11703

>  <filename>  (1) 
O=C1NC(c2cccnc2)=CCN1NCc1ccncc1

$$$$
