
     RDKit          3D

 31 33  0  0  0  0  0  0  0  0999 V2000
    9.4792    0.0211   23.0376 H   0  0  0  0  0  0  0  0  0  0  0  0
    8.6476   -0.4783   22.5644 C   0  0  0  0  0  0  0  0  0  0  0  0
    8.4683   -1.8076   22.7192 C   0  0  0  0  0  0  0  0  0  0  0  0
    9.4033   -2.6103   23.5115 C   0  0  0  0  0  0  0  0  0  0  0  0
   10.2945   -2.0344   23.7726 H   0  0  0  0  0  0  0  0  0  0  0  0
    9.3303   -3.8720   24.0019 C   0  0  0  0  0  0  0  0  0  0  0  0
   10.5338   -4.4985   25.1507 S   0  0  0  0  0  0  0  0  0  0  0  0
    9.6427   -6.0428   25.3394 C   0  0  0  0  0  0  0  0  0  0  0  0
    9.9905   -7.0321   25.9136 O   0  0  0  0  0  0  0  0  0  0  0  0
    8.4368   -5.9282   24.6964 N   0  0  0  0  0  0  0  0  0  0  0  0
    7.8807   -6.7582   24.5803 H   0  0  0  0  0  0  0  0  0  0  0  0
    8.3067   -4.9372   23.7725 C   0  0  0  0  0  0  0  0  0  0  0  0
    7.4941   -5.0314   22.8747 O   0  0  0  0  0  0  0  0  0  0  0  0
    7.3435   -2.3737   22.1291 N   0  0  0  0  0  0  0  0  0  0  0  0
    7.2149   -3.3760   22.1417 H   0  0  0  0  0  0  0  0  0  0  0  0
    6.6496   -1.8062   21.0759 C   0  0  0  0  0  0  0  0  0  0  0  0
    5.8996   -2.4878   20.4122 O   0  0  0  0  0  0  0  0  0  0  0  0
    6.8972   -0.4552   20.8617 N   0  0  0  0  0  0  0  0  0  0  0  0
    6.3610    0.2183   19.7131 C   0  0  0  0  0  0  0  0  0  0  0  0
    7.0248    0.2095   18.4688 C   0  0  0  0  0  0  0  0  0  0  0  0
    7.9645   -0.3345   18.3719 H   0  0  0  0  0  0  0  0  0  0  0  0
    6.5702    0.8488   17.3811 N   0  0  0  0  0  0  0  0  0  0  0  0
    5.4247    1.5406   17.4972 C   0  0  0  0  0  0  0  0  0  0  0  0
    5.0786    2.0459   16.5976 H   0  0  0  0  0  0  0  0  0  0  0  0
    4.6948    1.6227   18.6867 C   0  0  0  0  0  0  0  0  0  0  0  0
    3.7774    2.1991   18.7112 H   0  0  0  0  0  0  0  0  0  0  0  0
    5.1805    0.9598   19.8201 C   0  0  0  0  0  0  0  0  0  0  0  0
    4.6676    1.0182   20.7792 H   0  0  0  0  0  0  0  0  0  0  0  0
    7.5882    0.3397   21.8881 C   0  0  0  0  0  0  0  0  0  0  0  0
    8.0245    1.2343   21.4272 H   0  0  0  0  0  0  0  0  0  0  0  0
    6.8548    0.6948   22.6349 H   0  0  0  0  0  0  0  0  0  0  0  0
  1  2  1  0
  2  3  2  0
  3  4  1  0
  4  5  1  0
  4  6  2  3
  6  7  1  0
  7  8  1  0
  8  9  2  0
  8 10  1  0
 10 11  1  0
 10 12  1  0
 12 13  2  0
  3 14  1  0
 14 15  1  0
 14 16  1  0
 16 17  2  0
 16 18  1  0
 18 19  1  0
 19 20  2  0
 20 21  1  0
 20 22  1  0
 22 23  2  0
 23 24  1  0
 23 25  1  0
 25 26  1  0
 25 27  2  0
 27 28  1  0
 18 29  1  0
 29 30  1  0
 29 31  1  0
 29  2  1  0
 12  6  1  0
 27 19  1  0
M  END
>  <cnnaffinity>  (1) 
-5.43811

>  <filename>  (1) 
O=C1NC(=O)C(=CC2=CCN(c3cccnc3)C(=O)N2)S1

$$$$
