
     RDKit          3D

 28 30  0  0  0  0  0  0  0  0999 V2000
    6.8374    3.4774   26.9518 H   0  0  0  0  0  0  0  0  0  0  0  0
    6.9836    3.0189   25.9783 C   0  0  0  0  0  0  0  0  0  0  0  0
    7.4006    1.7153   25.9051 N   0  0  0  0  0  0  0  0  0  0  0  0
    7.4817    1.3523   24.6632 C   0  0  0  0  0  0  0  0  0  0  0  0
    7.9226    0.0791   24.4549 N   0  0  0  0  0  0  0  0  0  0  0  0
    8.2165   -0.3227   25.3347 H   0  0  0  0  0  0  0  0  0  0  0  0
    7.9621   -0.5851   23.2485 C   0  0  0  0  0  0  0  0  0  0  0  0
    7.3579    0.0216   22.2575 N   0  0  0  0  0  0  0  0  0  0  0  0
    7.3615   -0.5913   21.0341 N   0  0  0  0  0  0  0  0  0  0  0  0
    6.6760    0.0679   19.9620 C   0  0  0  0  0  0  0  0  0  0  0  0
    7.1831    0.0764   18.6445 C   0  0  0  0  0  0  0  0  0  0  0  0
    8.1315   -0.4009   18.4061 H   0  0  0  0  0  0  0  0  0  0  0  0
    6.5694    0.6641   17.6117 N   0  0  0  0  0  0  0  0  0  0  0  0
    5.4020    1.2817   17.8514 C   0  0  0  0  0  0  0  0  0  0  0  0
    4.9450    1.7796   16.9993 H   0  0  0  0  0  0  0  0  0  0  0  0
    4.7977    1.3056   19.1148 C   0  0  0  0  0  0  0  0  0  0  0  0
    3.8590    1.8342   19.2481 H   0  0  0  0  0  0  0  0  0  0  0  0
    5.4406    0.6858   20.1920 C   0  0  0  0  0  0  0  0  0  0  0  0
    5.0251    0.6480   21.1981 H   0  0  0  0  0  0  0  0  0  0  0  0
    7.9342   -1.8083   20.8426 C   0  0  0  0  0  0  0  0  0  0  0  0
    7.7491   -2.1519   19.8425 H   0  0  0  0  0  0  0  0  0  0  0  0
    8.5983   -2.4871   21.8005 C   0  0  0  0  0  0  0  0  0  0  0  0
    9.0761   -3.4345   21.6244 H   0  0  0  0  0  0  0  0  0  0  0  0
    8.6835   -1.9313   23.1409 C   0  0  0  0  0  0  0  0  0  0  0  0
    9.2561   -2.4755   24.0761 O   0  0  0  0  0  0  0  0  0  0  0  0
    7.0870    2.5736   23.4868 S   0  0  0  0  0  0  0  0  0  0  0  0
    6.7731    3.6484   24.7955 C   0  0  0  0  0  0  0  0  0  0  0  0
    6.4408    4.6584   24.6055 H   0  0  0  0  0  0  0  0  0  0  0  0
  1  2  1  0
  2  3  1  0
  3  4  2  0
  4  5  1  0
  5  6  1  0
  5  7  1  0
  7  8  2  0
  8  9  1  0
  9 10  1  0
 10 11  2  0
 11 12  1  0
 11 13  1  0
 13 14  2  0
 14 15  1  0
 14 16  1  0
 16 17  1  0
 16 18  2  0
 18 19  1  0
  9 20  1  0
 20 21  1  0
 20 22  2  0
 22 23  1  0
 22 24  1  0
 24 25  2  0
  4 26  1  0
 26 27  1  0
 27 28  1  0
 27  2  2  0
 24  7  1  0
 18 10  1  0
M  END
>  <cnnaffinity>  (1) 
-4.79821

>  <filename>  (1) 
O=c1ccn(-c2cccnc2)nc1Nc1nccs1

$$$$
