
     RDKit          3D

 34 36  0  0  0  0  0  0  0  0999 V2000
    4.9845   -2.4111   24.0283 H   0  0  0  0  0  0  0  0  0  0  0  0
    5.8886   -2.7114   23.8891 O   0  0  0  0  0  0  0  0  0  0  0  0
    6.4411   -3.0584   25.0839 C   0  0  0  0  0  0  0  0  0  0  0  0
    5.6336   -3.4247   26.1768 C   0  0  0  0  0  0  0  0  0  0  0  0
    4.5570   -3.2909   26.1472 H   0  0  0  0  0  0  0  0  0  0  0  0
    6.2203   -3.9369   27.3333 C   0  0  0  0  0  0  0  0  0  0  0  0
    5.2479   -4.3758   28.7028 Cl  0  0  0  0  0  0  0  0  0  0  0  0
    7.6024   -4.0913   27.4174 C   0  0  0  0  0  0  0  0  0  0  0  0
    8.0581   -4.4791   28.3153 H   0  0  0  0  0  0  0  0  0  0  0  0
    8.4012   -3.6871   26.3503 C   0  0  0  0  0  0  0  0  0  0  0  0
    9.4816   -3.7789   26.3837 H   0  0  0  0  0  0  0  0  0  0  0  0
    7.8497   -3.1142   25.2103 C   0  0  0  0  0  0  0  0  0  0  0  0
    8.8053   -2.6415   24.3060 O   0  0  0  0  0  0  0  0  0  0  0  0
    8.3417   -1.8713   23.2643 N   0  0  0  0  0  0  0  0  0  0  0  0
    7.9035   -0.5834   23.5008 C   0  0  0  0  0  0  0  0  0  0  0  0
    7.8130   -0.0386   24.5783 O   0  0  0  0  0  0  0  0  0  0  0  0
    7.5457    0.1041   22.3464 N   0  0  0  0  0  0  0  0  0  0  0  0
    7.1674    0.9994   22.5921 H   0  0  0  0  0  0  0  0  0  0  0  0
    7.2409   -0.5280   21.1546 C   0  0  0  0  0  0  0  0  0  0  0  0
    6.5724    0.2371   20.0939 C   0  0  0  0  0  0  0  0  0  0  0  0
    7.1594    0.1931   18.8149 C   0  0  0  0  0  0  0  0  0  0  0  0
    8.1196   -0.3077   18.6767 H   0  0  0  0  0  0  0  0  0  0  0  0
    6.6231    0.7347   17.7180 N   0  0  0  0  0  0  0  0  0  0  0  0
    5.4370    1.3449   17.8610 C   0  0  0  0  0  0  0  0  0  0  0  0
    5.0111    1.7658   16.9519 H   0  0  0  0  0  0  0  0  0  0  0  0
    4.7575    1.4447   19.0819 C   0  0  0  0  0  0  0  0  0  0  0  0
    3.7942    1.9442   19.1171 H   0  0  0  0  0  0  0  0  0  0  0  0
    5.3440    0.9028   20.2291 C   0  0  0  0  0  0  0  0  0  0  0  0
    4.8479    0.9743   21.2005 H   0  0  0  0  0  0  0  0  0  0  0  0
    7.6087   -1.8100   20.9731 C   0  0  0  0  0  0  0  0  0  0  0  0
    7.2864   -2.3346   20.0926 H   0  0  0  0  0  0  0  0  0  0  0  0
    8.5343   -2.4690   21.9471 C   0  0  0  0  0  0  0  0  0  0  0  0
    9.5962   -2.3374   21.6424 H   0  0  0  0  0  0  0  0  0  0  0  0
    8.3349   -3.5480   22.0236 H   0  0  0  0  0  0  0  0  0  0  0  0
  1  2  1  0
  2  3  1  0
  3  4  2  0
  4  5  1  0
  4  6  1  0
  6  7  1  0
  6  8  2  0
  8  9  1  0
  8 10  1  0
 10 11  1  0
 10 12  2  0
 12 13  1  0
 13 14  1  0
 14 15  1  0
 15 16  2  0
 15 17  1  0
 17 18  1  0
 17 19  1  0
 19 20  1  0
 20 21  2  0
 21 22  1  0
 21 23  1  0
 23 24  2  0
 24 25  1  0
 24 26  1  0
 26 27  1  0
 26 28  2  0
 28 29  1  0
 19 30  2  0
 30 31  1  0
 30 32  1  0
 32 33  1  0
 32 34  1  0
 12  3  1  0
 32 14  1  0
 28 20  1  0
M  END
>  <cnnaffinity>  (1) 
-5.21756

>  <filename>  (1) 
O=C1NC(c2cccnc2)=CCN1Oc1ccc(Cl)cc1O

$$$$
