
     RDKit          3D

 27 29  0  0  0  0  0  0  0  0999 V2000
    9.2318    1.0592   19.9661 H   0  0  0  0  0  0  0  0  0  0  0  0
    9.4366    0.6349   20.9411 C   0  0  0  0  0  0  0  0  0  0  0  0
   10.4352    1.2087   21.6804 C   0  0  0  0  0  0  0  0  0  0  0  0
   10.8785    0.8139   23.3347 S   0  0  0  0  0  0  0  0  0  0  0  0
   12.1566    2.0601   23.3261 C   0  0  0  0  0  0  0  0  0  0  0  0
   13.0655    2.1409   24.0959 O   0  0  0  0  0  0  0  0  0  0  0  0
   11.9709    2.8996   22.2592 N   0  0  0  0  0  0  0  0  0  0  0  0
   12.7774    3.4151   21.9524 H   0  0  0  0  0  0  0  0  0  0  0  0
   11.3050    2.3156   21.2098 C   0  0  0  0  0  0  0  0  0  0  0  0
   11.5257    2.6755   20.0842 O   0  0  0  0  0  0  0  0  0  0  0  0
    8.5991   -0.4603   21.3480 C   0  0  0  0  0  0  0  0  0  0  0  0
    9.0594   -1.5506   22.6134 S   0  0  0  0  0  0  0  0  0  0  0  0
    7.5605   -2.3742   22.5553 C   0  0  0  0  0  0  0  0  0  0  0  0
    7.3857   -3.1975   23.2383 H   0  0  0  0  0  0  0  0  0  0  0  0
    6.7244   -1.8626   21.6147 C   0  0  0  0  0  0  0  0  0  0  0  0
    5.7314   -2.2646   21.4164 H   0  0  0  0  0  0  0  0  0  0  0  0
    7.3115   -0.7691   20.9011 C   0  0  0  0  0  0  0  0  0  0  0  0
    6.6159   -0.0270   19.8392 C   0  0  0  0  0  0  0  0  0  0  0  0
    7.1467    0.0310   18.5396 C   0  0  0  0  0  0  0  0  0  0  0  0
    8.0848   -0.4819   18.3256 H   0  0  0  0  0  0  0  0  0  0  0  0
    6.5735    0.6799   17.5150 N   0  0  0  0  0  0  0  0  0  0  0  0
    5.4218    1.3188   17.7689 C   0  0  0  0  0  0  0  0  0  0  0  0
    4.9661    1.8372   16.9310 H   0  0  0  0  0  0  0  0  0  0  0  0
    4.8030    1.3308   19.0238 C   0  0  0  0  0  0  0  0  0  0  0  0
    3.8792    1.8804   19.1658 H   0  0  0  0  0  0  0  0  0  0  0  0
    5.4066    0.6460   20.0777 C   0  0  0  0  0  0  0  0  0  0  0  0
    4.9809    0.6673   21.0837 H   0  0  0  0  0  0  0  0  0  0  0  0
  1  2  1  0
  2  3  2  3
  3  4  1  0
  4  5  1  0
  5  6  2  0
  5  7  1  0
  7  8  1  0
  7  9  1  0
  9 10  2  0
  2 11  1  0
 11 12  1  0
 12 13  1  0
 13 14  1  0
 13 15  2  0
 15 16  1  0
 15 17  1  0
 17 18  1  0
 18 19  2  0
 19 20  1  0
 19 21  1  0
 21 22  2  0
 22 23  1  0
 22 24  1  0
 24 25  1  0
 24 26  2  0
 26 27  1  0
  9  3  1  0
 17 11  2  0
 26 18  1  0
M  END
>  <cnnaffinity>  (1) 
-5.48053

>  <filename>  (1) 
O=C1NC(=O)C(=Cc2sccc2-c2cccnc2)S1

$$$$
