
     RDKit          3D

 32 34  0  0  0  0  0  0  0  0999 V2000
    4.9464    1.7737   17.0093 H   0  0  0  0  0  0  0  0  0  0  0  0
    5.4147    1.2742   17.8533 C   0  0  0  0  0  0  0  0  0  0  0  0
    6.5739    0.6531   17.5952 N   0  0  0  0  0  0  0  0  0  0  0  0
    7.1922    0.0535   18.6158 C   0  0  0  0  0  0  0  0  0  0  0  0
    8.1436   -0.4229   18.3835 H   0  0  0  0  0  0  0  0  0  0  0  0
    6.6776    0.0138   19.9184 C   0  0  0  0  0  0  0  0  0  0  0  0
    7.4450   -0.6998   20.9607 C   0  0  0  0  0  0  0  0  0  0  0  0
    8.7503   -0.6837   20.8674 N   0  0  0  0  0  0  0  0  0  0  0  0
    9.4701   -1.3157   21.8481 C   0  0  0  0  0  0  0  0  0  0  0  0
   10.6783   -1.3601   21.9319 O   0  0  0  0  0  0  0  0  0  0  0  0
    8.7738   -1.9930   22.8456 N   0  0  0  0  0  0  0  0  0  0  0  0
    9.4236   -2.3627   23.5149 H   0  0  0  0  0  0  0  0  0  0  0  0
    7.4292   -2.0423   22.9476 C   0  0  0  0  0  0  0  0  0  0  0  0
    6.8417   -2.8011   24.0605 C   0  0  0  0  0  0  0  0  0  0  0  0
    5.7188   -2.2795   24.7215 C   0  0  0  0  0  0  0  0  0  0  0  0
    5.3772   -1.2693   24.5146 H   0  0  0  0  0  0  0  0  0  0  0  0
    5.0505   -2.9264   25.6748 N   0  0  0  0  0  0  0  0  0  0  0  0
    5.5020   -4.1235   26.0816 C   0  0  0  0  0  0  0  0  0  0  0  0
    4.7653   -4.8570   27.2210 C   0  0  0  0  0  0  0  0  0  0  0  0
    4.3716   -6.0837   26.8158 F   0  0  0  0  0  0  0  0  0  0  0  0
    3.6833   -4.2285   27.6836 F   0  0  0  0  0  0  0  0  0  0  0  0
    5.5934   -5.0458   28.2716 F   0  0  0  0  0  0  0  0  0  0  0  0
    6.6576   -4.7118   25.5256 C   0  0  0  0  0  0  0  0  0  0  0  0
    7.0179   -5.6626   25.9061 H   0  0  0  0  0  0  0  0  0  0  0  0
    7.3312   -4.0462   24.5054 C   0  0  0  0  0  0  0  0  0  0  0  0
    8.2191   -4.4872   24.0454 H   0  0  0  0  0  0  0  0  0  0  0  0
    6.7246   -1.3855   21.9813 C   0  0  0  0  0  0  0  0  0  0  0  0
    5.6536   -1.4587   21.9273 H   0  0  0  0  0  0  0  0  0  0  0  0
    5.4508    0.6487   20.1713 C   0  0  0  0  0  0  0  0  0  0  0  0
    5.0089    0.6495   21.1714 H   0  0  0  0  0  0  0  0  0  0  0  0
    4.8171    1.3012   19.1177 C   0  0  0  0  0  0  0  0  0  0  0  0
    3.8833    1.8332   19.2584 H   0  0  0  0  0  0  0  0  0  0  0  0
  1  2  1  0
  2  3  2  0
  3  4  1  0
  4  5  1  0
  4  6  2  0
  6  7  1  0
  7  8  2  0
  8  9  1  0
  9 10  2  0
  9 11  1  0
 11 12  1  0
 11 13  1  0
 13 14  1  0
 14 15  2  0
 15 16  1  0
 15 17  1  0
 17 18  2  0
 18 19  1  0
 19 20  1  0
 19 21  1  0
 19 22  1  0
 18 23  1  0
 23 24  1  0
 23 25  2  0
 25 26  1  0
 13 27  2  0
 27 28  1  0
  6 29  1  0
 29 30  1  0
 29 31  2  0
 31 32  1  0
 31  2  1  0
 27  7  1  0
 25 14  1  0
M  END
>  <cnnaffinity>  (1) 
-5.40311

>  <filename>  (1) 
O=c1nc(-c2cccnc2)cc(-c2ccc(C(F)(F)F)nc2)[nH]1

$$$$
