
     RDKit          3D

 34 36  0  0  0  0  0  0  0  0999 V2000
    7.4001   -0.5559   25.7273 H   0  0  0  0  0  0  0  0  0  0  0  0
    8.3365   -0.3663   25.5847 O   0  0  0  0  0  0  0  0  0  0  0  0
    8.4870    0.3754   24.3717 C   0  0  2  0  0  0  0  0  0  0  0  0
    7.7618    1.2029   24.3334 H   0  0  0  0  0  0  0  0  0  0  0  0
    8.2397   -0.4626   23.1026 C   0  0  0  0  0  0  0  0  0  0  0  0
    7.5469    0.1142   22.1537 N   0  0  0  0  0  0  0  0  0  0  0  0
    7.2340   -0.6284   21.0451 N   0  0  0  0  0  0  0  0  0  0  0  0
    6.6343    0.1001   19.9676 C   0  0  0  0  0  0  0  0  0  0  0  0
    7.1960    0.1392   18.6771 C   0  0  0  0  0  0  0  0  0  0  0  0
    8.1513   -0.3414   18.4823 H   0  0  0  0  0  0  0  0  0  0  0  0
    6.5996    0.7284   17.6315 N   0  0  0  0  0  0  0  0  0  0  0  0
    5.4094    1.3137   17.8397 C   0  0  0  0  0  0  0  0  0  0  0  0
    4.9467    1.7826   16.9710 H   0  0  0  0  0  0  0  0  0  0  0  0
    4.7887    1.3572   19.0937 C   0  0  0  0  0  0  0  0  0  0  0  0
    3.8423    1.8714   19.2104 H   0  0  0  0  0  0  0  0  0  0  0  0
    5.4336    0.7723   20.1887 C   0  0  0  0  0  0  0  0  0  0  0  0
    5.0472    0.8440   21.2038 H   0  0  0  0  0  0  0  0  0  0  0  0
    7.2525   -2.0746   21.0176 C   0  0  0  0  0  0  0  0  0  0  0  0
    6.5492   -2.7332   20.2743 O   0  0  0  0  0  0  0  0  0  0  0  0
    8.2330   -2.5950   21.9677 C   0  0  0  0  0  0  0  0  0  0  0  0
    8.4852   -3.6335   21.8308 H   0  0  0  0  0  0  0  0  0  0  0  0
    8.7167   -1.8163   22.9782 C   0  0  0  0  0  0  0  0  0  0  0  0
    9.4088   -2.1920   23.7305 H   0  0  0  0  0  0  0  0  0  0  0  0
    9.8845    0.9690   24.3544 C   0  0  0  0  0  0  0  0  0  0  0  0
   11.0013    0.2521   24.8171 C   0  0  0  0  0  0  0  0  0  0  0  0
   10.8496   -0.6969   25.3253 H   0  0  0  0  0  0  0  0  0  0  0  0
   12.2894    0.7629   24.6452 C   0  0  0  0  0  0  0  0  0  0  0  0
   13.1479    0.1858   24.9813 H   0  0  0  0  0  0  0  0  0  0  0  0
   12.4737    2.0101   24.0357 C   0  0  0  0  0  0  0  0  0  0  0  0
   13.4785    2.3962   23.8805 H   0  0  0  0  0  0  0  0  0  0  0  0
   11.3662    2.7494   23.6065 C   0  0  0  0  0  0  0  0  0  0  0  0
   11.5008    3.7231   23.1401 H   0  0  0  0  0  0  0  0  0  0  0  0
   10.0797    2.2245   23.7633 C   0  0  0  0  0  0  0  0  0  0  0  0
    9.2158    2.7923   23.4190 H   0  0  0  0  0  0  0  0  0  0  0  0
  1  2  1  0
  2  3  1  0
  3  4  1  1
  3  5  1  0
  5  6  2  0
  6  7  1  0
  7  8  1  0
  8  9  2  0
  9 10  1  0
  9 11  1  0
 11 12  2  0
 12 13  1  0
 12 14  1  0
 14 15  1  0
 14 16  2  0
 16 17  1  0
  7 18  1  0
 18 19  2  0
 18 20  1  0
 20 21  1  0
 20 22  2  0
 22 23  1  0
  3 24  1  0
 24 25  2  0
 25 26  1  0
 25 27  1  0
 27 28  1  0
 27 29  2  0
 29 30  1  0
 29 31  1  0
 31 32  1  0
 31 33  2  0
 33 34  1  0
 22  5  1  0
 33 24  1  0
 16  8  1  0
M  END
>  <cnnaffinity>  (1) 
-5.00326

>  <filename>  (1) 
O=c1ccc([C@@H](O)c2ccccc2)nn1-c1cccnc1

$$$$
