
     RDKit          3D

 35 37  0  0  0  0  0  0  0  0999 V2000
    4.9145    1.8211   16.9916 H   0  0  0  0  0  0  0  0  0  0  0  0
    5.3864    1.3083   17.8282 C   0  0  0  0  0  0  0  0  0  0  0  0
    6.5445    0.6882   17.5530 N   0  0  0  0  0  0  0  0  0  0  0  0
    7.1781    0.0734   18.5614 C   0  0  0  0  0  0  0  0  0  0  0  0
    8.1167   -0.4271   18.3223 H   0  0  0  0  0  0  0  0  0  0  0  0
    6.6905    0.0436   19.8855 C   0  0  0  0  0  0  0  0  0  0  0  0
    7.3865   -0.6382   20.9686 N   0  0  0  0  0  0  0  0  0  0  0  0
    7.3023   -2.0101   21.0983 C   0  0  0  0  0  0  0  0  0  0  0  0
    6.5319   -2.7231   20.4990 O   0  0  0  0  0  0  0  0  0  0  0  0
    8.3611   -2.5541   22.0507 C   0  0  0  0  0  0  0  0  0  0  0  0
    7.8977   -3.3484   22.6361 H   0  0  0  0  0  0  0  0  0  0  0  0
    9.1861   -2.9496   21.4502 H   0  0  0  0  0  0  0  0  0  0  0  0
    8.9322   -1.1812   23.0760 S   0  0  0  0  0  0  0  0  0  0  0  0
    8.3174    0.0235   21.8560 C   0  0  2  0  0  0  0  0  0  0  0  0
    9.1590    0.4025   21.2597 H   0  0  0  0  0  0  0  0  0  0  0  0
    7.6559    1.0431   22.6003 N   0  0  0  0  0  0  0  0  0  0  0  0
    7.5945    1.0283   23.6001 H   0  0  0  0  0  0  0  0  0  0  0  0
    7.7073    2.5673   22.0355 S   0  0  0  0  0  0  0  0  0  0  0  0
    6.4075    3.1213   22.3524 O   0  0  0  0  0  0  0  0  0  0  0  0
    8.2715    2.4147   20.7077 O   0  0  0  0  0  0  0  0  0  0  0  0
    8.9526    3.3432   23.0374 C   0  0  0  0  0  0  0  0  0  0  0  0
    8.7938    4.6954   23.3799 C   0  0  0  0  0  0  0  0  0  0  0  0
    7.8901    5.2423   23.1115 H   0  0  0  0  0  0  0  0  0  0  0  0
    9.8142    5.3500   24.0715 C   0  0  0  0  0  0  0  0  0  0  0  0
    9.6893    6.3980   24.3272 H   0  0  0  0  0  0  0  0  0  0  0  0
   10.9910    4.6756   24.4169 C   0  0  0  0  0  0  0  0  0  0  0  0
   11.7816    5.1950   24.9529 H   0  0  0  0  0  0  0  0  0  0  0  0
   11.1456    3.3305   24.0579 C   0  0  0  0  0  0  0  0  0  0  0  0
   12.0576    2.7943   24.3059 H   0  0  0  0  0  0  0  0  0  0  0  0
   10.1381    2.6605   23.3676 C   0  0  0  0  0  0  0  0  0  0  0  0
   10.3080    1.6131   23.1072 H   0  0  0  0  0  0  0  0  0  0  0  0
    5.4704    0.6717   20.1484 C   0  0  0  0  0  0  0  0  0  0  0  0
    5.0896    0.6582   21.1686 H   0  0  0  0  0  0  0  0  0  0  0  0
    4.8021    1.3192   19.0974 C   0  0  0  0  0  0  0  0  0  0  0  0
    3.8629    1.8403   19.2503 H   0  0  0  0  0  0  0  0  0  0  0  0
  1  2  1  0
  2  3  2  0
  3  4  1  0
  4  5  1  0
  4  6  2  0
  6  7  1  0
  7  8  1  0
  8  9  2  0
  8 10  1  0
 10 11  1  0
 10 12  1  0
 10 13  1  0
 13 14  1  0
 14 15  1  6
 14 16  1  0
 16 17  1  0
 16 18  1  0
 18 19  2  0
 18 20  2  0
 18 21  1  0
 21 22  2  0
 22 23  1  0
 22 24  1  0
 24 25  1  0
 24 26  2  0
 26 27  1  0
 26 28  1  0
 28 29  1  0
 28 30  2  0
 30 31  1  0
  6 32  1  0
 32 33  1  0
 32 34  2  0
 34 35  1  0
 34  2  1  0
 14  7  1  0
 30 21  1  0
M  END
>  <cnnaffinity>  (1) 
-5.04914

>  <filename>  (1) 
O=C1CS[C@H](NS(=O)(=O)c2ccccc2)N1c1cccnc1

$$$$
