
     RDKit          3D

 40 42  0  0  0  0  0  0  0  0999 V2000
    5.5466   -2.0959   21.3935 O   0  0  0  0  0  0  0  0  0  0  0  0
    6.6349   -1.6331   21.6669 C   0  0  0  0  0  0  0  0  0  0  0  0
    7.3397   -2.1048   22.9565 C   0  0  0  0  0  0  0  0  0  0  0  0
    8.8871   -1.9615   23.0727 N   0  0  0  0  0  4  0  0  0  0  0  0
    9.3138   -2.2094   24.5405 C   0  0  0  0  0  0  0  0  0  0  0  0
    9.0650   -3.6356   25.0273 C   0  0  0  0  0  0  0  0  0  0  0  0
    8.0537   -3.8379   25.8828 N   0  0  0  0  0  0  0  0  0  0  0  0
    7.7662   -5.1022   26.2570 C   0  0  0  0  0  0  0  0  0  0  0  0
    6.6103   -5.4011   27.2347 C   0  0  0  0  0  0  0  0  0  0  0  0
    7.0559   -6.0892   28.3091 F   0  0  0  0  0  0  0  0  0  0  0  0
    5.6965   -6.1981   26.6362 F   0  0  0  0  0  0  0  0  0  0  0  0
    5.9611   -4.3337   27.6943 F   0  0  0  0  0  0  0  0  0  0  0  0
    8.4620   -6.2081   25.7606 C   0  0  0  0  0  0  0  0  0  0  0  0
    9.5226   -5.9979   24.8883 C   0  0  0  0  0  0  0  0  0  0  0  0
    9.8529   -4.6889   24.5380 C   0  0  0  0  0  0  0  0  0  0  0  0
   10.7015   -4.4596   23.9101 H   0  0  0  0  0  0  0  0  0  0  0  0
   10.0648   -6.8492   24.4879 H   0  0  0  0  0  0  0  0  0  0  0  0
    8.1771   -7.2001   26.0719 H   0  0  0  0  0  0  0  0  0  0  0  0
    8.7605   -1.5265   25.1853 H   0  0  0  0  0  0  0  0  0  0  0  0
   10.3736   -1.9659   24.6327 H   0  0  0  0  0  0  0  0  0  0  0  0
    9.2524   -0.6111   22.4807 C   0  0  0  0  0  0  0  0  0  0  0  0
    8.7704   -0.5179   21.0292 C   0  0  0  0  0  0  0  0  0  0  0  0
    7.3045   -0.6735   20.9032 N   0  0  0  0  0  0  0  0  0  0  0  0
    6.6269    0.0114   19.8270 C   0  0  0  0  0  0  0  0  0  0  0  0
    5.3947    0.6462   20.0495 C   0  0  0  0  0  0  0  0  0  0  0  0
    4.7945    1.3490   18.9949 C   0  0  0  0  0  0  0  0  0  0  0  0
    5.4278    1.3753   17.7467 C   0  0  0  0  0  0  0  0  0  0  0  0
    6.5948    0.7560   17.5060 N   0  0  0  0  0  0  0  0  0  0  0  0
    7.1742    0.1106   18.5273 C   0  0  0  0  0  0  0  0  0  0  0  0
    8.1252   -0.3763   18.3103 H   0  0  0  0  0  0  0  0  0  0  0  0
    4.9810    1.9072   16.9080 H   0  0  0  0  0  0  0  0  0  0  0  0
    3.8607    1.8886   19.1287 H   0  0  0  0  0  0  0  0  0  0  0  0
    4.9219    0.5958   21.0298 H   0  0  0  0  0  0  0  0  0  0  0  0
    9.2917   -1.2944   20.4455 H   0  0  0  0  0  0  0  0  0  0  0  0
    9.0458    0.4616   20.6269 H   0  0  0  0  0  0  0  0  0  0  0  0
   10.3341   -0.4609   22.5117 H   0  0  0  0  0  0  0  0  0  0  0  0
    8.7846    0.1769   23.0782 H   0  0  0  0  0  0  0  0  0  0  0  0
    9.3876   -2.7027   22.5089 H   0  0  0  0  0  0  0  0  0  0  0  0
    7.0576   -3.1406   23.1128 H   0  0  0  0  0  0  0  0  0  0  0  0
    6.8822   -1.5132   23.7596 H   0  0  0  0  0  0  0  0  0  0  0  0
  1  2  2  0
  2  3  1  0
  3  4  1  0
  4  5  1  0
  5  6  1  0
  6  7  2  0
  7  8  1  0
  8  9  1  0
  9 10  1  0
  9 11  1  0
  9 12  1  0
  8 13  2  0
 13 14  1  0
 14 15  2  0
 15 16  1  0
 14 17  1  0
 13 18  1  0
  5 19  1  0
  5 20  1  0
  4 21  1  0
 21 22  1  0
 22 23  1  0
 23 24  1  0
 24 25  2  0
 25 26  1  0
 26 27  2  0
 27 28  1  0
 28 29  2  0
 29 30  1  0
 27 31  1  0
 26 32  1  0
 25 33  1  0
 22 34  1  0
 22 35  1  0
 21 36  1  0
 21 37  1  0
  4 38  1  0
  3 39  1  0
  3 40  1  0
 23  2  1  0
 29 24  1  0
 15  6  1  0
M  CHG  1   4   1
M  END
>  <cnnaffinity>  (1) 
-5.10029

>  <filename>  (1) 
O=C1C[NH+](Cc2cccc(C(F)(F)F)n2)CCN1c1cccnc1

$$$$
