
     RDKit          3D

 33 36  0  0  0  0  0  0  0  0999 V2000
    4.9120    1.8053   16.9777 H   0  0  0  0  0  0  0  0  0  0  0  0
    5.3813    1.3052   17.8207 C   0  0  0  0  0  0  0  0  0  0  0  0
    6.5397    0.6841   17.5504 N   0  0  0  0  0  0  0  0  0  0  0  0
    7.1470    0.0653   18.5687 C   0  0  0  0  0  0  0  0  0  0  0  0
    8.1077   -0.4079   18.3627 H   0  0  0  0  0  0  0  0  0  0  0  0
    6.6316    0.0004   19.8801 C   0  0  0  0  0  0  0  0  0  0  0  0
    7.3328   -0.7290   20.9627 C   0  0  0  0  0  0  0  0  0  0  0  0
    6.6784   -1.6307   21.7268 C   0  0  0  0  0  0  0  0  0  0  0  0
    5.6243   -1.8526   21.5682 H   0  0  0  0  0  0  0  0  0  0  0  0
    7.3023   -2.3471   22.7493 N   0  0  0  0  0  0  0  0  0  0  0  0
    6.5643   -3.2668   23.4780 C   0  0  0  0  0  0  0  0  0  0  0  0
    5.3156   -3.5125   23.2646 N   0  0  0  0  0  0  0  0  0  0  0  0
    4.9994   -4.4825   24.2134 C   0  0  0  0  0  0  0  0  0  0  0  0
    3.8003   -5.1516   24.5023 C   0  0  0  0  0  0  0  0  0  0  0  0
    2.9014   -4.9302   23.9370 H   0  0  0  0  0  0  0  0  0  0  0  0
    3.8055   -6.0973   25.5293 C   0  0  0  0  0  0  0  0  0  0  0  0
    2.8894   -6.6279   25.7720 H   0  0  0  0  0  0  0  0  0  0  0  0
    4.9799   -6.3713   26.2558 C   0  0  0  0  0  0  0  0  0  0  0  0
    4.9518   -7.1116   27.0498 H   0  0  0  0  0  0  0  0  0  0  0  0
    6.1795   -5.7050   25.9763 C   0  0  0  0  0  0  0  0  0  0  0  0
    7.0907   -5.9034   26.5275 H   0  0  0  0  0  0  0  0  0  0  0  0
    6.1504   -4.7683   24.9533 C   0  0  0  0  0  0  0  0  0  0  0  0
    7.1612   -3.9741   24.4684 O   0  0  0  0  0  0  0  0  0  0  0  0
    8.6648   -2.1392   23.0590 C   0  0  0  0  0  0  0  0  0  0  0  0
    9.3083   -2.6867   23.9092 O   0  0  0  0  0  0  0  0  0  0  0  0
    9.2584   -1.2135   22.2754 N   0  0  0  0  0  0  0  0  0  0  0  0
   10.2211   -1.0400   22.4742 H   0  0  0  0  0  0  0  0  0  0  0  0
    8.7568   -0.4608   21.2512 C   0  0  0  0  0  0  0  0  0  0  0  0
    9.5212    0.3188   20.7197 O   0  0  0  0  0  0  0  0  0  0  0  0
    5.4136    0.6467   20.1342 C   0  0  0  0  0  0  0  0  0  0  0  0
    5.0072    0.6339   21.1479 H   0  0  0  0  0  0  0  0  0  0  0  0
    4.7879    1.3226   19.0883 C   0  0  0  0  0  0  0  0  0  0  0  0
    3.8615    1.8595   19.2392 H   0  0  0  0  0  0  0  0  0  0  0  0
  1  2  1  0
  2  3  2  0
  3  4  1  0
  4  5  1  0
  4  6  2  0
  6  7  1  0
  7  8  2  0
  8  9  1  0
  8 10  1  0
 10 11  1  0
 11 12  2  0
 12 13  1  0
 13 14  2  0
 14 15  1  0
 14 16  1  0
 16 17  1  0
 16 18  2  0
 18 19  1  0
 18 20  1  0
 20 21  1  0
 20 22  2  0
 22 23  1  0
 10 24  1  0
 24 25  2  0
 24 26  1  0
 26 27  1  0
 26 28  1  0
 28 29  2  0
  6 30  1  0
 30 31  1  0
 30 32  2  0
 32 33  1  0
 32  2  1  0
 28  7  1  0
 23 11  1  0
 22 13  1  0
M  END
>  <cnnaffinity>  (1) 
-5.47096

>  <filename>  (1) 
O=c1[nH]c(=O)n(-c2nc3ccccc3o2)cc1-c1cccnc1

$$$$
