
     RDKit          3D

 48 52  0  0  0  0  0  0  0  0999 V2000
    9.9746    6.7346   22.1945 O   0  0  0  0  0  0  0  0  0  0  0  0
    9.8273    5.8643   23.0176 C   0  0  0  0  0  0  0  0  0  0  0  0
    9.6838    6.0219   24.3808 N   0  0  0  0  0  0  0  0  0  0  0  0
    9.3196    4.8073   24.9623 C   0  0  0  0  0  0  0  0  0  0  0  0
    9.3554    3.8494   23.9396 C   0  0  0  0  0  0  0  0  0  0  0  0
    9.7284    4.5133   22.7867 N   0  0  0  0  0  0  0  0  0  0  0  0
    9.6242    4.2287   21.8330 H   0  0  0  0  0  0  0  0  0  0  0  0
    8.9620    2.5267   24.1467 C   0  0  0  0  0  0  0  0  0  0  0  0
    8.9301    1.5869   23.0118 C   0  0  0  0  0  0  0  0  0  0  0  0
    7.9492    0.7289   22.7724 N   0  0  0  0  0  0  0  0  0  0  0  0
    8.2758    0.2140   21.5644 C   0  0  0  0  0  0  0  0  0  0  0  0
    7.4297   -0.7558   20.7838 C   0  0  0  0  0  0  0  0  0  0  0  0
    6.6384   -0.1018   19.6544 C   0  0  0  0  0  0  0  0  0  0  0  0
    5.4730    0.6211   19.9404 C   0  0  0  0  0  0  0  0  0  0  0  0
    4.8481    1.3269   18.9108 C   0  0  0  0  0  0  0  0  0  0  0  0
    5.4076    1.2767   17.6293 C   0  0  0  0  0  0  0  0  0  0  0  0
    6.5017    0.5642   17.3233 N   0  0  0  0  0  0  0  0  0  0  0  0
    7.0891   -0.1048   18.3229 C   0  0  0  0  0  0  0  0  0  0  0  0
    7.9807   -0.6752   18.0608 H   0  0  0  0  0  0  0  0  0  0  0  0
    4.9620    1.8294   16.8068 H   0  0  0  0  0  0  0  0  0  0  0  0
    3.9556    1.9172   19.0896 H   0  0  0  0  0  0  0  0  0  0  0  0
    5.0732    0.6317   20.9575 H   0  0  0  0  0  0  0  0  0  0  0  0
    8.1090   -1.5200   20.3938 H   0  0  0  0  0  0  0  0  0  0  0  0
    6.7491   -1.2472   21.4835 H   0  0  0  0  0  0  0  0  0  0  0  0
    9.4181    0.6486   21.0721 N   0  0  0  0  0  0  0  0  0  0  0  0
    9.8484    1.5431   22.0026 N   0  0  0  0  0  0  0  0  0  0  0  0
   11.2693    1.9120   21.9747 C   0  0  0  0  0  0  0  0  0  0  0  0
   12.0400    1.5083   23.2413 C   0  0  0  0  0  0  0  0  0  0  0  0
   12.0373   -0.0135   23.4506 C   0  0  0  0  0  0  0  0  0  0  0  0
   13.0111   -0.5934   22.4295 C   0  0  0  0  0  0  0  0  0  0  0  0
   14.4416    0.5231   22.4405 S   0  0  0  0  0  0  0  0  0  0  0  0
   13.5125    1.9327   23.1472 C   0  0  0  0  0  0  0  0  0  0  0  0
   13.6500    2.8343   22.5387 H   0  0  0  0  0  0  0  0  0  0  0  0
   13.8979    2.1473   24.1427 H   0  0  0  0  0  0  0  0  0  0  0  0
   12.5545   -0.6184   21.4373 H   0  0  0  0  0  0  0  0  0  0  0  0
   13.3505   -1.6095   22.6318 H   0  0  0  0  0  0  0  0  0  0  0  0
   12.3595   -0.2307   24.4750 H   0  0  0  0  0  0  0  0  0  0  0  0
   11.0420   -0.4407   23.2979 H   0  0  0  0  0  0  0  0  0  0  0  0
   11.5757    2.0071   24.0995 H   0  0  0  0  0  0  0  0  0  0  0  0
   11.3704    2.9833   21.8038 H   0  0  0  0  0  0  0  0  0  0  0  0
   11.6992    1.4086   21.1063 H   0  0  0  0  0  0  0  0  0  0  0  0
    8.5537    2.1877   25.4497 C   0  0  0  0  0  0  0  0  0  0  0  0
    8.5588    3.1391   26.4833 C   0  0  0  0  0  0  0  0  0  0  0  0
    8.9602    4.4671   26.2572 C   0  0  0  0  0  0  0  0  0  0  0  0
    8.9927    5.1983   27.0571 H   0  0  0  0  0  0  0  0  0  0  0  0
    8.2241    2.8362   27.4726 H   0  0  0  0  0  0  0  0  0  0  0  0
    8.2175    1.1717   25.6483 H   0  0  0  0  0  0  0  0  0  0  0  0
    9.4412    6.9439   24.6922 H   0  0  0  0  0  0  0  0  0  0  0  0
  1  2  2  0
  2  3  1  0
  3  4  1  0
  4  5  2  0
  5  6  1  0
  6  7  1  0
  5  8  1  0
  8  9  1  0
  9 10  2  0
 10 11  1  0
 11 12  1  0
 12 13  1  0
 13 14  2  0
 14 15  1  0
 15 16  2  0
 16 17  1  0
 17 18  2  0
 18 19  1  0
 16 20  1  0
 15 21  1  0
 14 22  1  0
 12 23  1  0
 12 24  1  0
 11 25  2  0
 25 26  1  0
 26 27  1  0
 27 28  1  0
 28 29  1  0
 29 30  1  0
 30 31  1  0
 31 32  1  0
 32 33  1  0
 32 34  1  0
 30 35  1  0
 30 36  1  0
 29 37  1  0
 29 38  1  0
 28 39  1  0
 27 40  1  0
 27 41  1  0
  8 42  2  0
 42 43  1  0
 43 44  2  0
 44 45  1  0
 43 46  1  0
 42 47  1  0
  3 48  1  0
  6  2  1  0
 26  9  1  0
 32 28  1  0
 44  4  1  0
 18 13  1  0
M  END
>  <cnnaffinity>  (1) 
-6.84022

>  <filename>  (1) 
O=c1[nH]c2cccc(-c3nc(Cc4cccnc4)nn3CC3CCSC3)c2[nH]1

$$$$
