
     RDKit          3D

 28 29  0  0  0  0  0  0  0  0999 V2000
    5.5974   -0.2205   26.3877 H   0  0  0  0  0  0  0  0  0  0  0  0
    5.5019   -0.3987   25.4120 O   0  0  0  0  0  0  0  0  0  0  0  0
    6.9101   -0.9555   25.5383 P   0  0  0  0  0  0  0  0  0  0  0  0
    7.0499   -2.4233   25.4468 O   0  0  0  0  0  0  0  0  0  0  0  0
    6.3643   -0.5076   26.9457 O   0  0  0  0  0  0  0  0  0  0  0  0
    5.6136   -1.1190   26.9880 H   0  0  0  0  0  0  0  0  0  0  0  0
    8.3677   -0.1954   24.6595 C   0  0  0  0  0  0  0  0  0  0  0  0
    9.5727   -0.6242   25.1516 F   0  0  0  0  0  0  0  0  0  0  0  0
    8.3912    1.1744   24.6936 F   0  0  0  0  0  0  0  0  0  0  0  0
    8.1022   -0.7329   23.2782 C   0  0  0  0  0  0  0  0  0  0  0  0
    7.3998   -0.0385   22.3307 C   0  0  0  0  0  0  0  0  0  0  0  0
    7.0622    0.9678   22.5224 H   0  0  0  0  0  0  0  0  0  0  0  0
    7.1267   -0.6326   21.0236 C   0  0  0  0  0  0  0  0  0  0  0  0
    6.4958    0.1278   19.9757 C   0  0  0  0  0  0  0  0  0  0  0  0
    7.0562    0.0253   18.7009 C   0  0  0  0  0  0  0  0  0  0  0  0
    7.9499   -0.5773   18.5620 H   0  0  0  0  0  0  0  0  0  0  0  0
    6.5415    0.6375   17.6279 N   0  0  0  0  0  0  0  0  0  0  0  0
    5.4398    1.3859   17.8014 C   0  0  0  0  0  0  0  0  0  0  0  0
    5.0000    1.8701   16.9372 H   0  0  0  0  0  0  0  0  0  0  0  0
    4.8333    1.5587   19.0501 C   0  0  0  0  0  0  0  0  0  0  0  0
    3.9461    2.1792   19.1229 H   0  0  0  0  0  0  0  0  0  0  0  0
    5.3642    0.9275   20.1712 C   0  0  0  0  0  0  0  0  0  0  0  0
    4.8904    1.0433   21.1465 H   0  0  0  0  0  0  0  0  0  0  0  0
    7.5027   -1.8434   20.7135 N   0  0  0  0  0  0  0  0  0  0  0  0
    8.1160   -2.5661   21.7039 C   0  0  0  0  0  0  0  0  0  0  0  0
    8.4379   -3.7266   21.5145 O   0  0  0  0  0  0  0  0  0  0  0  0
    8.3953   -2.0431   22.9399 N   0  0  0  0  0  0  0  0  0  0  0  0
    8.7990   -2.6889   23.6077 H   0  0  0  0  0  0  0  0  0  0  0  0
  1  2  1  0
  2  3  1  0
  3  4  2  0
  3  5  1  0
  5  6  1  0
  3  7  1  0
  7  8  1  0
  7  9  1  0
  7 10  1  0
 10 11  2  0
 11 12  1  0
 11 13  1  0
 13 14  1  0
 14 15  2  0
 15 16  1  0
 15 17  1  0
 17 18  2  0
 18 19  1  0
 18 20  1  0
 20 21  1  0
 20 22  2  0
 22 23  1  0
 13 24  2  0
 24 25  1  0
 25 26  2  0
 25 27  1  0
 27 28  1  0
 27 10  1  0
 22 14  1  0
M  END
>  <cnnaffinity>  (1) 
-4.95616

>  <filename>  (1) 
O=c1nc(-c2cccnc2)cc(C(F)(F)P(=O)(O)O)[nH]1

$$$$
