
     RDKit          3D

 39 42  0  0  0  0  0  0  0  0999 V2000
    6.9441    1.7649   22.1623 H   0  0  0  0  0  0  0  0  0  0  0  0
    7.3223    0.9642   22.7984 C   0  0  0  0  0  0  0  0  0  0  0  0
    7.5958   -0.2523   22.3060 C   0  0  0  0  0  0  0  0  0  0  0  0
    7.3788   -0.7633   20.9276 C   0  0  0  0  0  0  0  0  0  0  0  0
    6.6518    0.0102   19.9010 C   0  0  0  0  0  0  0  0  0  0  0  0
    7.1699    0.0525   18.6033 C   0  0  0  0  0  0  0  0  0  0  0  0
    8.1126   -0.4368   18.3792 H   0  0  0  0  0  0  0  0  0  0  0  0
    6.5707    0.6774   17.5877 N   0  0  0  0  0  0  0  0  0  0  0  0
    5.4053    1.2920   17.8415 C   0  0  0  0  0  0  0  0  0  0  0  0
    4.9242    1.7796   16.9971 H   0  0  0  0  0  0  0  0  0  0  0  0
    4.7996    1.3096   19.1036 C   0  0  0  0  0  0  0  0  0  0  0  0
    3.8681    1.8457   19.2549 H   0  0  0  0  0  0  0  0  0  0  0  0
    5.4344    0.6578   20.1596 C   0  0  0  0  0  0  0  0  0  0  0  0
    4.9980    0.6413   21.1659 H   0  0  0  0  0  0  0  0  0  0  0  0
    7.8560   -1.9293   20.7126 N   0  0  0  0  0  0  0  0  0  0  0  0
    8.4310   -2.4507   21.9537 C   0  0  0  0  0  0  0  0  0  0  0  0
    9.4869   -2.6566   21.7708 H   0  0  0  0  0  0  0  0  0  0  0  0
    7.9496   -3.3996   22.1972 H   0  0  0  0  0  0  0  0  0  0  0  0
    8.2339   -1.3915   23.0699 C   0  0  0  0  0  0  0  0  0  0  0  0
    7.5814   -1.7377   23.8805 H   0  0  0  0  0  0  0  0  0  0  0  0
    9.1918   -1.0917   23.5119 H   0  0  0  0  0  0  0  0  0  0  0  0
    7.4889    1.3730   24.2379 C   0  0  0  0  0  0  0  0  0  0  0  0
    8.0584    2.3045   24.2928 H   0  0  0  0  0  0  0  0  0  0  0  0
    8.0451    0.6195   24.8023 H   0  0  0  0  0  0  0  0  0  0  0  0
    6.1902    1.5828   24.8711 N   0  0  0  0  0  0  0  0  0  0  0  0
    5.4006    0.5280   25.3235 C   0  0  0  0  0  0  0  0  0  0  0  0
    5.8237   -0.5836   25.5366 O   0  0  0  0  0  0  0  0  0  0  0  0
    4.0117    1.0594   25.4765 C   0  0  0  0  0  0  0  0  0  0  0  0
    2.8379    0.4467   25.9149 C   0  0  0  0  0  0  0  0  0  0  0  0
    2.8347   -0.5918   26.2418 H   0  0  0  0  0  0  0  0  0  0  0  0
    1.6667    1.2133   25.9132 C   0  0  0  0  0  0  0  0  0  0  0  0
    0.7331    0.7677   26.2475 H   0  0  0  0  0  0  0  0  0  0  0  0
    1.6786    2.5583   25.4827 C   0  0  0  0  0  0  0  0  0  0  0  0
    0.7549    3.1320   25.4896 H   0  0  0  0  0  0  0  0  0  0  0  0
    2.8621    3.1629   25.0464 C   0  0  0  0  0  0  0  0  0  0  0  0
    2.8791    4.1978   24.7072 H   0  0  0  0  0  0  0  0  0  0  0  0
    4.0225    2.3882   25.0526 C   0  0  0  0  0  0  0  0  0  0  0  0
    5.4164    2.7134   24.6282 C   0  0  0  0  0  0  0  0  0  0  0  0
    5.8536    3.7366   24.1575 O   0  0  0  0  0  0  0  0  0  0  0  0
  1  2  1  0
  2  3  2  3
  3  4  1  0
  4  5  1  0
  5  6  2  0
  6  7  1  0
  6  8  1  0
  8  9  2  0
  9 10  1  0
  9 11  1  0
 11 12  1  0
 11 13  2  0
 13 14  1  0
  4 15  2  0
 15 16  1  0
 16 17  1  0
 16 18  1  0
 16 19  1  0
 19 20  1  0
 19 21  1  0
  2 22  1  0
 22 23  1  0
 22 24  1  0
 22 25  1  0
 25 26  1  0
 26 27  2  0
 26 28  1  0
 28 29  2  0
 29 30  1  0
 29 31  1  0
 31 32  1  0
 31 33  2  0
 33 34  1  0
 33 35  1  0
 35 36  1  0
 35 37  2  0
 37 38  1  0
 38 39  2  0
 19  3  1  0
 38 25  1  0
 13  5  1  0
 37 28  1  0
M  END
>  <cnnaffinity>  (1) 
-5.13302

>  <filename>  (1) 
O=C1c2ccccc2C(=O)N1CC=C1CCN=C1c1cccnc1

$$$$
