
     RDKit          3D

 33 35  0  0  0  0  0  0  0  0999 V2000
    4.9254    1.8426   16.9420 H   0  0  0  0  0  0  0  0  0  0  0  0
    5.3942    1.3317   17.7780 C   0  0  0  0  0  0  0  0  0  0  0  0
    6.5517    0.7050   17.5153 N   0  0  0  0  0  0  0  0  0  0  0  0
    7.1467    0.0744   18.5364 C   0  0  0  0  0  0  0  0  0  0  0  0
    8.0876   -0.4207   18.2987 H   0  0  0  0  0  0  0  0  0  0  0  0
    6.6322    0.0025   19.8512 C   0  0  0  0  0  0  0  0  0  0  0  0
    7.3653   -0.7382   20.9251 C   0  0  0  0  0  0  0  0  0  0  0  0
    6.6868   -1.5796   21.8658 C   0  0  0  0  0  0  0  0  0  0  0  0
    5.6060   -1.7097   21.7967 H   0  0  0  0  0  0  0  0  0  0  0  0
    7.3720   -2.2218   22.8531 C   0  0  0  0  0  0  0  0  0  0  0  0
    6.9161   -2.8358   23.6134 H   0  0  0  0  0  0  0  0  0  0  0  0
    8.8128   -2.1196   22.9886 C   0  0  0  0  0  0  0  0  0  0  0  0
    9.4416   -2.6630   23.8893 O   0  0  0  0  0  0  0  0  0  0  0  0
    9.4450   -1.3512   21.9739 N   0  0  0  0  0  0  0  0  0  0  0  0
   10.8828   -1.0638   22.1261 C   0  0  0  0  0  0  0  0  0  0  0  0
   11.3099   -0.8776   21.1347 H   0  0  0  0  0  0  0  0  0  0  0  0
   11.3671   -1.9653   22.5050 H   0  0  0  0  0  0  0  0  0  0  0  0
   11.0959    0.0972   23.0854 C   0  0  0  0  0  0  0  0  0  0  0  0
   11.0793   -0.1509   24.4660 C   0  0  0  0  0  0  0  0  0  0  0  0
   10.9274   -1.1663   24.8119 H   0  0  0  0  0  0  0  0  0  0  0  0
   11.1704    0.9199   25.3563 C   0  0  0  0  0  0  0  0  0  0  0  0
   11.1247    0.7482   26.4319 H   0  0  0  0  0  0  0  0  0  0  0  0
   11.3145    2.1908   24.9608 N   0  0  0  0  0  0  0  0  0  0  0  0
   11.2981    2.4248   23.6473 C   0  0  0  0  0  0  0  0  0  0  0  0
   11.3928    3.4639   23.3442 H   0  0  0  0  0  0  0  0  0  0  0  0
   11.1614    1.4331   22.6721 C   0  0  0  0  0  0  0  0  0  0  0  0
   11.0803    1.7323   21.6318 H   0  0  0  0  0  0  0  0  0  0  0  0
    8.7242   -0.6305   21.0503 C   0  0  0  0  0  0  0  0  0  0  0  0
    9.2998    0.0568   20.4289 H   0  0  0  0  0  0  0  0  0  0  0  0
    5.4157    0.6686   20.0923 C   0  0  0  0  0  0  0  0  0  0  0  0
    4.9896    0.6932   21.0959 H   0  0  0  0  0  0  0  0  0  0  0  0
    4.7917    1.3407   19.0395 C   0  0  0  0  0  0  0  0  0  0  0  0
    3.8549    1.8675   19.1820 H   0  0  0  0  0  0  0  0  0  0  0  0
  1  2  1  0
  2  3  2  0
  3  4  1  0
  4  5  1  0
  4  6  2  0
  6  7  1  0
  7  8  1  0
  8  9  1  0
  8 10  2  0
 10 11  1  0
 10 12  1  0
 12 13  2  0
 12 14  1  0
 14 15  1  0
 15 16  1  0
 15 17  1  0
 15 18  1  0
 18 19  2  0
 19 20  1  0
 19 21  1  0
 21 22  1  0
 21 23  2  0
 23 24  1  0
 24 25  1  0
 24 26  2  0
 26 27  1  0
 14 28  1  0
 28 29  1  0
  6 30  1  0
 30 31  1  0
 30 32  2  0
 32 33  1  0
 32  2  1  0
 28  7  2  0
 26 18  1  0
M  END
>  <cnnaffinity>  (1) 
-5.28557

>  <filename>  (1) 
O=c1ccc(-c2cccnc2)cn1Cc1ccncc1

$$$$
