
     RDKit          3D

 26 28  0  0  0  0  0  0  0  0999 V2000
    6.0353    2.1901   25.6681 H   0  0  0  0  0  0  0  0  0  0  0  0
    6.4653    2.1887   24.6658 C   0  0  0  0  0  0  0  0  0  0  0  0
    6.6201    3.3797   24.0928 N   0  0  0  0  0  0  0  0  0  0  0  0
    7.1342    3.3792   22.8538 C   0  0  0  0  0  0  0  0  0  0  0  0
    7.2595    4.3524   22.3698 H   0  0  0  0  0  0  0  0  0  0  0  0
    7.4879    2.2167   22.2010 C   0  0  0  0  0  0  0  0  0  0  0  0
    7.8658    2.1782   21.1885 H   0  0  0  0  0  0  0  0  0  0  0  0
    7.2736    1.0430   22.9150 C   0  0  0  0  0  0  0  0  0  0  0  0
    7.5807   -0.1735   22.3254 N   0  0  0  0  0  0  0  0  0  0  0  0
    7.2932   -0.6724   21.0276 C   0  0  0  0  0  0  0  0  0  0  0  0
    6.6006    0.0695   19.9584 C   0  0  0  0  0  0  0  0  0  0  0  0
    7.1464    0.0982   18.6604 C   0  0  0  0  0  0  0  0  0  0  0  0
    8.0978   -0.3880   18.4544 H   0  0  0  0  0  0  0  0  0  0  0  0
    6.5830    0.7080   17.6090 N   0  0  0  0  0  0  0  0  0  0  0  0
    5.4108    1.3296   17.8113 C   0  0  0  0  0  0  0  0  0  0  0  0
    4.9491    1.8054   16.9436 H   0  0  0  0  0  0  0  0  0  0  0  0
    4.7670    1.3553   19.0530 C   0  0  0  0  0  0  0  0  0  0  0  0
    3.8130    1.8644   19.1461 H   0  0  0  0  0  0  0  0  0  0  0  0
    5.3656    0.7229   20.1430 C   0  0  0  0  0  0  0  0  0  0  0  0
    4.8943    0.7380   21.1262 H   0  0  0  0  0  0  0  0  0  0  0  0
    7.7038   -1.9463   21.0532 C   0  0  0  0  0  0  0  0  0  0  0  0
    7.6329   -2.7707   20.3681 H   0  0  0  0  0  0  0  0  0  0  0  0
    8.2449   -2.2645   22.2655 O   0  0  0  0  0  0  0  0  0  0  0  0
    8.1693   -1.1671   23.0904 C   0  0  0  0  0  0  0  0  0  0  0  0
    8.5738   -1.1398   24.2166 O   0  0  0  0  0  0  0  0  0  0  0  0
    6.7838    1.0051   24.1467 N   0  0  0  0  0  0  0  0  0  0  0  0
  1  2  1  0
  2  3  2  0
  3  4  1  0
  4  5  1  0
  4  6  2  0
  6  7  1  0
  6  8  1  0
  8  9  1  0
  9 10  1  0
 10 11  1  0
 11 12  2  0
 12 13  1  0
 12 14  1  0
 14 15  2  0
 15 16  1  0
 15 17  1  0
 17 18  1  0
 17 19  2  0
 19 20  1  0
 10 21  2  0
 21 22  1  0
 21 23  1  0
 23 24  1  0
 24 25  2  0
  8 26  2  0
 26  2  1  0
 24  9  1  0
 19 11  1  0
M  END
>  <cnnaffinity>  (1) 
-4.73623

>  <filename>  (1) 
O=c1occ(-c2cccnc2)n1-c1ccncn1

$$$$
