
     RDKit          3D

 39 43  0  0  0  0  0  0  0  0999 V2000
    7.4766   -3.8554   27.6309 O   0  0  0  0  0  0  0  0  0  0  0  0
    7.4969   -3.1636   26.6262 C   0  0  0  0  0  0  0  0  0  0  0  0
    7.9903   -3.7067   25.4610 N   0  0  0  0  0  0  0  0  0  0  0  0
    7.9555   -3.2052   24.1960 N   0  0  0  0  0  0  0  0  0  0  0  0
    7.5975   -1.9517   24.0593 C   0  0  0  0  0  0  0  0  0  0  0  0
    7.5851   -1.4243   22.6647 C   0  0  0  0  0  0  0  0  0  0  0  0
    6.6776   -0.7173   22.0082 N   0  0  0  0  0  0  0  0  0  0  0  0
    7.2030   -0.6062   20.7640 C   0  0  0  0  0  0  0  0  0  0  0  0
    6.5191    0.0952   19.6876 C   0  0  0  0  0  0  0  0  0  0  0  0
    5.3118    0.7720   19.9064 C   0  0  0  0  0  0  0  0  0  0  0  0
    4.7355    1.4426   18.8320 C   0  0  0  0  0  0  0  0  0  0  0  0
    5.3837    1.4084   17.5913 C   0  0  0  0  0  0  0  0  0  0  0  0
    6.5260    0.7412   17.3670 N   0  0  0  0  0  0  0  0  0  0  0  0
    7.0797    0.1018   18.4007 C   0  0  0  0  0  0  0  0  0  0  0  0
    8.0092   -0.4274   18.1939 H   0  0  0  0  0  0  0  0  0  0  0  0
    4.9684    1.9432   16.7421 H   0  0  0  0  0  0  0  0  0  0  0  0
    3.8151    2.0025   18.9503 H   0  0  0  0  0  0  0  0  0  0  0  0
    4.8546    0.7670   20.8974 H   0  0  0  0  0  0  0  0  0  0  0  0
    8.3770   -1.1840   20.6153 N   0  0  0  0  0  0  0  0  0  0  0  0
    8.6389   -1.6636   21.8453 N   0  0  0  0  0  0  0  0  0  0  0  0
    9.8771   -2.3392   22.1304 C   0  0  0  0  0  0  0  0  0  0  0  0
   11.1994   -1.6490   21.9652 C   0  0  0  0  0  0  0  0  0  0  0  0
   10.7027   -1.9984   23.3371 C   0  0  0  0  0  0  0  0  0  0  0  0
   10.3622   -1.1959   23.9882 H   0  0  0  0  0  0  0  0  0  0  0  0
   11.1296   -2.8523   23.8552 H   0  0  0  0  0  0  0  0  0  0  0  0
   11.1723   -0.6031   21.6803 H   0  0  0  0  0  0  0  0  0  0  0  0
   12.0133   -2.2001   21.5063 H   0  0  0  0  0  0  0  0  0  0  0  0
    9.7871   -3.3881   21.9153 H   0  0  0  0  0  0  0  0  0  0  0  0
    7.2619   -1.0971   25.2161 C   0  0  0  0  0  0  0  0  0  0  0  0
    7.1137    0.3154   25.1623 C   0  0  0  0  0  0  0  0  0  0  0  0
    6.7084    1.0146   26.2841 C   0  0  0  0  0  0  0  0  0  0  0  0
    6.4040    0.3458   27.4840 C   0  0  0  0  0  0  0  0  0  0  0  0
    6.5936   -1.0233   27.5698 C   0  0  0  0  0  0  0  0  0  0  0  0
    7.0882   -1.7406   26.4739 C   0  0  0  0  0  0  0  0  0  0  0  0
    6.3671   -1.5436   28.4957 H   0  0  0  0  0  0  0  0  0  0  0  0
    6.0285    0.8965   28.3394 H   0  0  0  0  0  0  0  0  0  0  0  0
    6.6203    2.0941   26.2384 H   0  0  0  0  0  0  0  0  0  0  0  0
    7.3023    0.8360   24.2232 H   0  0  0  0  0  0  0  0  0  0  0  0
    8.3279   -4.6470   25.6080 H   0  0  0  0  0  0  0  0  0  0  0  0
  1  2  2  0
  2  3  1  0
  3  4  1  0
  4  5  2  0
  5  6  1  0
  6  7  2  0
  7  8  1  0
  8  9  1  0
  9 10  2  0
 10 11  1  0
 11 12  2  0
 12 13  1  0
 13 14  2  0
 14 15  1  0
 12 16  1  0
 11 17  1  0
 10 18  1  0
  8 19  2  0
 19 20  1  0
 20 21  1  0
 21 22  1  0
 22 23  1  0
 23 24  1  0
 23 25  1  0
 22 26  1  0
 22 27  1  0
 21 28  1  0
  5 29  1  0
 29 30  2  0
 30 31  1  0
 31 32  2  0
 32 33  1  0
 33 34  2  0
 33 35  1  0
 32 36  1  0
 31 37  1  0
 30 38  1  0
  3 39  1  0
 34  2  1  0
 20  6  1  0
 23 21  1  0
 34 29  1  0
 14  9  1  0
M  END
>  <cnnaffinity>  (1) 
-5.8812

>  <filename>  (1) 
O=c1[nH]nc(-c2nc(-c3cccnc3)nn2C2CC2)c2ccccc12

$$$$
