
     RDKit          3D

 42 44  0  0  0  0  0  0  0  0999 V2000
    4.9188    1.8006   16.9813 H   0  0  0  0  0  0  0  0  0  0  0  0
    5.3915    1.3008   17.8245 C   0  0  0  0  0  0  0  0  0  0  0  0
    6.5533    0.6820   17.5608 N   0  0  0  0  0  0  0  0  0  0  0  0
    7.1660    0.0679   18.5817 C   0  0  0  0  0  0  0  0  0  0  0  0
    8.1068   -0.4233   18.3317 H   0  0  0  0  0  0  0  0  0  0  0  0
    6.6614    0.0098   19.8965 C   0  0  0  0  0  0  0  0  0  0  0  0
    7.3903   -0.7073   20.9797 C   0  0  0  0  0  0  0  0  0  0  0  0
    6.6976   -1.5699   21.8919 C   0  0  0  0  0  0  0  0  0  0  0  0
    5.6269   -1.7000   21.7618 H   0  0  0  0  0  0  0  0  0  0  0  0
    7.3435   -2.2561   22.8998 C   0  0  0  0  0  0  0  0  0  0  0  0
    6.7012   -3.1331   23.7541 N   0  0  0  0  0  0  0  0  0  0  0  0
    7.2807   -3.4962   24.5014 H   0  0  0  0  0  0  0  0  0  0  0  0
    5.2650   -3.3584   23.7809 C   0  0  0  0  0  0  0  0  0  0  0  0
    4.9094   -3.7020   22.8031 H   0  0  0  0  0  0  0  0  0  0  0  0
    4.7046   -2.4676   24.0540 H   0  0  0  0  0  0  0  0  0  0  0  0
    4.8200   -4.3303   24.8668 C   0  0  0  0  0  0  0  0  0  0  0  0
    5.1181   -3.8884   25.8347 H   0  0  0  0  0  0  0  0  0  0  0  0
    5.3490   -5.2881   24.7729 H   0  0  0  0  0  0  0  0  0  0  0  0
    3.3567   -4.5422   24.7826 N   0  0  0  0  0  0  0  0  0  0  0  0
    2.5327   -3.5470   25.5119 C   0  0  0  0  0  0  0  0  0  0  0  0
    2.9111   -2.5327   25.3253 H   0  0  0  0  0  0  0  0  0  0  0  0
    1.5097   -3.5881   25.1099 H   0  0  0  0  0  0  0  0  0  0  0  0
    2.4790   -3.8030   27.0343 C   0  0  0  0  0  0  0  0  0  0  0  0
    3.4701   -3.5933   27.4729 H   0  0  0  0  0  0  0  0  0  0  0  0
    1.7473   -3.1487   27.5166 H   0  0  0  0  0  0  0  0  0  0  0  0
    2.0835   -5.1378   27.3357 O   0  0  0  0  0  0  0  0  0  0  0  0
    2.9391   -6.0826   26.6973 C   0  0  0  0  0  0  0  0  0  0  0  0
    3.9737   -5.9653   27.0690 H   0  0  0  0  0  0  0  0  0  0  0  0
    2.5808   -7.0760   26.9741 H   0  0  0  0  0  0  0  0  0  0  0  0
    2.9362   -5.8932   25.1718 C   0  0  0  0  0  0  0  0  0  0  0  0
    3.6095   -6.6148   24.6913 H   0  0  0  0  0  0  0  0  0  0  0  0
    1.9245   -6.0707   24.7791 H   0  0  0  0  0  0  0  0  0  0  0  0
    8.8400   -2.0515   23.0501 C   0  0  0  0  0  0  0  0  0  0  0  0
    9.6029   -2.5456   23.8723 O   0  0  0  0  0  0  0  0  0  0  0  0
    9.4087   -1.1951   22.1202 N   0  0  0  0  0  0  0  0  0  0  0  0
   10.4049   -1.1620   22.3122 H   0  0  0  0  0  0  0  0  0  0  0  0
    8.7425   -0.5477   21.1169 C   0  0  0  0  0  0  0  0  0  0  0  0
    9.3177    0.0992   20.4684 H   0  0  0  0  0  0  0  0  0  0  0  0
    5.4389    0.6537   20.1405 C   0  0  0  0  0  0  0  0  0  0  0  0
    5.0155    0.6396   21.1454 H   0  0  0  0  0  0  0  0  0  0  0  0
    4.8001    1.3176   19.0923 C   0  0  0  0  0  0  0  0  0  0  0  0
    3.8668    1.8469   19.2425 H   0  0  0  0  0  0  0  0  0  0  0  0
  1  2  1  0
  2  3  2  0
  3  4  1  0
  4  5  1  0
  4  6  2  0
  6  7  1  0
  7  8  1  0
  8  9  1  0
  8 10  2  0
 10 11  1  0
 11 12  1  0
 11 13  1  0
 13 14  1  0
 13 15  1  0
 13 16  1  0
 16 17  1  0
 16 18  1  0
 16 19  1  0
 19 20  1  0
 20 21  1  0
 20 22  1  0
 20 23  1  0
 23 24  1  0
 23 25  1  0
 23 26  1  0
 26 27  1  0
 27 28  1  0
 27 29  1  0
 27 30  1  0
 30 31  1  0
 30 32  1  0
 10 33  1  0
 33 34  2  0
 33 35  1  0
 35 36  1  0
 35 37  1  0
 37 38  1  0
  6 39  1  0
 39 40  1  0
 39 41  2  0
 41 42  1  0
 41  2  1  0
 37  7  2  0
 30 19  1  0
M  END
>  <cnnaffinity>  (1) 
-4.86034

>  <filename>  (1) 
O=c1[nH]cc(-c2cccnc2)cc1NCCN1CCOCC1

$$$$
