
     RDKit          3D

 33 35  0  0  0  0  0  0  0  0999 V2000
    4.8991    1.9649   16.8706 H   0  0  0  0  0  0  0  0  0  0  0  0
    5.3482    1.4022   17.6880 C   0  0  0  0  0  0  0  0  0  0  0  0
    6.4965    0.7667   17.4052 N   0  0  0  0  0  0  0  0  0  0  0  0
    7.0864    0.0819   18.3902 C   0  0  0  0  0  0  0  0  0  0  0  0
    8.0376   -0.3845   18.1483 H   0  0  0  0  0  0  0  0  0  0  0  0
    6.5469   -0.0405   19.6874 C   0  0  0  0  0  0  0  0  0  0  0  0
    7.2321   -0.7651   20.7388 N   0  0  0  0  0  0  0  0  0  0  0  0
    8.5115   -0.3126   21.1822 C   0  0  0  0  0  0  0  0  0  0  0  0
    9.0070    0.6867   20.6966 O   0  0  0  0  0  0  0  0  0  0  0  0
    9.1626   -1.0946   22.1760 C   0  0  0  0  0  0  0  0  0  0  0  0
   10.1135   -0.7307   22.5119 H   0  0  0  0  0  0  0  0  0  0  0  0
    8.5589   -2.1691   22.6982 C   0  0  0  0  0  0  0  0  0  0  0  0
    9.0482   -3.0596   23.6102 N   0  0  0  0  0  0  0  0  0  0  0  0
    8.3017   -3.2156   24.2844 H   0  0  0  0  0  0  0  0  0  0  0  0
   10.2718   -2.6220   24.3060 C   0  0  0  0  0  0  0  0  0  0  0  0
   11.0505   -2.4228   23.5587 H   0  0  0  0  0  0  0  0  0  0  0  0
   10.6701   -3.4433   24.9167 H   0  0  0  0  0  0  0  0  0  0  0  0
   10.0222   -1.3715   25.1272 C   0  0  0  0  0  0  0  0  0  0  0  0
    8.6092   -1.2640   26.1205 S   0  0  0  0  0  0  0  0  0  0  0  0
    8.9449    0.3706   26.5251 C   0  0  0  0  0  0  0  0  0  0  0  0
    8.2717    0.9088   27.1767 H   0  0  0  0  0  0  0  0  0  0  0  0
   10.0866    0.8144   25.9310 C   0  0  0  0  0  0  0  0  0  0  0  0
   10.4680    1.8221   26.0520 H   0  0  0  0  0  0  0  0  0  0  0  0
   10.7129   -0.1952   25.1369 C   0  0  0  0  0  0  0  0  0  0  0  0
   11.6287   -0.0450   24.5723 H   0  0  0  0  0  0  0  0  0  0  0  0
    7.2814   -2.4536   22.3619 N   0  0  0  0  0  0  0  0  0  0  0  0
    6.8933   -3.3439   22.6009 H   0  0  0  0  0  0  0  0  0  0  0  0
    6.6030   -1.8508   21.3432 C   0  0  0  0  0  0  0  0  0  0  0  0
    5.5311   -2.3058   21.0178 O   0  0  0  0  0  0  0  0  0  0  0  0
    5.3484    0.6147   19.9665 C   0  0  0  0  0  0  0  0  0  0  0  0
    4.9133    0.5476   20.9621 H   0  0  0  0  0  0  0  0  0  0  0  0
    4.7421    1.3586   18.9465 C   0  0  0  0  0  0  0  0  0  0  0  0
    3.8264    1.9120   19.1165 H   0  0  0  0  0  0  0  0  0  0  0  0
  1  2  1  0
  2  3  2  0
  3  4  1  0
  4  5  1  0
  4  6  2  0
  6  7  1  0
  7  8  1  0
  8  9  2  0
  8 10  1  0
 10 11  1  0
 10 12  2  0
 12 13  1  0
 13 14  1  0
 13 15  1  0
 15 16  1  0
 15 17  1  0
 15 18  1  0
 18 19  1  0
 19 20  1  0
 20 21  1  0
 20 22  2  0
 22 23  1  0
 22 24  1  0
 24 25  1  0
 12 26  1  0
 26 27  1  0
 26 28  1  0
 28 29  2  0
  6 30  1  0
 30 31  1  0
 30 32  2  0
 32 33  1  0
 32  2  1  0
 28  7  1  0
 24 18  2  0
M  END
>  <cnnaffinity>  (1) 
-4.96918

>  <filename>  (1) 
O=c1cc(NCc2cccs2)[nH]c(=O)n1-c1cccnc1

$$$$
