
     RDKit          3D

 27 29  0  0  0  0  0  0  0  0999 V2000
    4.9109    1.7751   17.0018 H   0  0  0  0  0  0  0  0  0  0  0  0
    5.4020    1.2930   17.8437 C   0  0  0  0  0  0  0  0  0  0  0  0
    6.5663    0.6752   17.5833 N   0  0  0  0  0  0  0  0  0  0  0  0
    7.1757    0.0539   18.5999 C   0  0  0  0  0  0  0  0  0  0  0  0
    8.1258   -0.4291   18.3835 H   0  0  0  0  0  0  0  0  0  0  0  0
    6.6441   -0.0101   19.9027 C   0  0  0  0  0  0  0  0  0  0  0  0
    7.3262   -0.7201   20.9466 N   0  0  0  0  0  0  0  0  0  0  0  0
    6.5590   -1.6162   21.6599 N   0  0  0  0  0  0  0  0  0  0  0  0
    7.1397   -2.2937   22.6245 C   0  0  0  0  0  0  0  0  0  0  0  0
    6.3371   -3.2679   23.3798 C   0  0  0  0  0  0  0  0  0  0  0  0
    4.9743   -3.5533   23.1687 C   0  0  0  0  0  0  0  0  0  0  0  0
    4.3435   -3.0978   22.4206 H   0  0  0  0  0  0  0  0  0  0  0  0
    4.5334   -4.4783   24.0090 N   0  0  0  0  0  0  0  0  0  0  0  0
    5.6036   -4.7829   24.7605 N   0  0  0  0  0  0  0  0  0  0  0  0
    5.5173   -5.4752   25.4906 H   0  0  0  0  0  0  0  0  0  0  0  0
    6.7095   -4.0888   24.4269 C   0  0  0  0  0  0  0  0  0  0  0  0
    7.6591   -4.2137   24.9352 H   0  0  0  0  0  0  0  0  0  0  0  0
    8.5301   -2.1087   22.9682 C   0  0  0  0  0  0  0  0  0  0  0  0
    8.9806   -2.6823   23.7750 H   0  0  0  0  0  0  0  0  0  0  0  0
    9.2765   -1.2030   22.2817 C   0  0  0  0  0  0  0  0  0  0  0  0
   10.3181   -0.9987   22.4841 H   0  0  0  0  0  0  0  0  0  0  0  0
    8.7141   -0.4028   21.2044 C   0  0  0  0  0  0  0  0  0  0  0  0
    9.3293    0.4360   20.5664 O   0  0  0  0  0  0  0  0  0  0  0  0
    5.4382    0.6456   20.1644 C   0  0  0  0  0  0  0  0  0  0  0  0
    5.0156    0.6109   21.1687 H   0  0  0  0  0  0  0  0  0  0  0  0
    4.8079    1.3158   19.1126 C   0  0  0  0  0  0  0  0  0  0  0  0
    3.8722    1.8460   19.2663 H   0  0  0  0  0  0  0  0  0  0  0  0
  1  2  1  0
  2  3  2  0
  3  4  1  0
  4  5  1  0
  4  6  2  0
  6  7  1  0
  7  8  1  0
  8  9  2  0
  9 10  1  0
 10 11  1  0
 11 12  1  0
 11 13  2  0
 13 14  1  0
 14 15  1  0
 14 16  1  0
 16 17  1  0
  9 18  1  0
 18 19  1  0
 18 20  2  0
 20 21  1  0
 20 22  1  0
 22 23  2  0
  6 24  1  0
 24 25  1  0
 24 26  2  0
 26 27  1  0
 26  2  1  0
 22  7  1  0
 16 10  2  0
M  END
>  <cnnaffinity>  (1) 
-4.81099

>  <filename>  (1) 
O=c1ccc(-c2cn[nH]c2)nn1-c1cccnc1

$$$$
