
     RDKit          3D

 30 32  0  0  0  0  0  0  0  0999 V2000
    4.9359    1.7832   17.0240 H   0  0  0  0  0  0  0  0  0  0  0  0
    5.4105    1.2756   17.8605 C   0  0  0  0  0  0  0  0  0  0  0  0
    6.5671    0.6527   17.5841 N   0  0  0  0  0  0  0  0  0  0  0  0
    7.2018    0.0496   18.5946 C   0  0  0  0  0  0  0  0  0  0  0  0
    8.1510   -0.4222   18.3545 H   0  0  0  0  0  0  0  0  0  0  0  0
    6.7045    0.0037   19.9203 C   0  0  0  0  0  0  0  0  0  0  0  0
    7.4045   -0.6696   20.9896 N   0  0  0  0  0  0  0  0  0  0  0  0
    6.8202   -1.6432   21.8116 C   0  0  0  0  0  0  0  0  0  0  0  0
    5.7159   -2.1035   21.6668 O   0  0  0  0  0  0  0  0  0  0  0  0
    7.7772   -2.0157   22.7550 N   0  0  0  0  0  0  0  0  0  0  0  0
    7.5948   -3.1183   23.6307 C   0  0  0  0  0  0  0  0  0  0  0  0
    6.9953   -4.2997   23.1425 C   0  0  0  0  0  0  0  0  0  0  0  0
    6.6420   -4.2924   22.1148 H   0  0  0  0  0  0  0  0  0  0  0  0
    6.8222   -5.4181   23.9608 C   0  0  0  0  0  0  0  0  0  0  0  0
    6.3500   -6.3226   23.5909 H   0  0  0  0  0  0  0  0  0  0  0  0
    7.2337   -5.3513   25.2929 C   0  0  0  0  0  0  0  0  0  0  0  0
    6.9082   -6.6411   26.3979 Cl  0  0  0  0  0  0  0  0  0  0  0  0
    7.8527   -4.2133   25.7985 C   0  0  0  0  0  0  0  0  0  0  0  0
    8.1888   -4.2021   26.8294 H   0  0  0  0  0  0  0  0  0  0  0  0
    8.0249   -3.0953   24.9790 C   0  0  0  0  0  0  0  0  0  0  0  0
    8.7502   -1.6917   25.7144 Cl  0  0  0  0  0  0  0  0  0  0  0  0
    9.0997   -1.5482   22.3517 C   0  0  0  0  0  0  0  0  0  0  0  0
    9.7507   -2.3641   22.0095 H   0  0  0  0  0  0  0  0  0  0  0  0
    9.6428   -0.9932   23.1217 H   0  0  0  0  0  0  0  0  0  0  0  0
    8.7803   -0.6555   21.1806 C   0  0  0  0  0  0  0  0  0  0  0  0
    9.5851   -0.0656   20.5031 O   0  0  0  0  0  0  0  0  0  0  0  0
    5.4784    0.6214   20.1827 C   0  0  0  0  0  0  0  0  0  0  0  0
    5.0561    0.5677   21.1845 H   0  0  0  0  0  0  0  0  0  0  0  0
    4.8328    1.2874   19.1323 C   0  0  0  0  0  0  0  0  0  0  0  0
    3.9014    1.8170   19.2841 H   0  0  0  0  0  0  0  0  0  0  0  0
  1  2  1  0
  2  3  2  0
  3  4  1  0
  4  5  1  0
  4  6  2  0
  6  7  1  0
  7  8  1  0
  8  9  2  0
  8 10  1  0
 10 11  1  0
 11 12  2  0
 12 13  1  0
 12 14  1  0
 14 15  1  0
 14 16  2  0
 16 17  1  0
 16 18  1  0
 18 19  1  0
 18 20  2  0
 20 21  1  0
 10 22  1  0
 22 23  1  0
 22 24  1  0
 22 25  1  0
 25 26  2  0
  6 27  1  0
 27 28  1  0
 27 29  2  0
 29 30  1  0
 29  2  1  0
 25  7  1  0
 20 11  1  0
M  END
>  <cnnaffinity>  (1) 
-5.45219

>  <filename>  (1) 
O=C1CN(c2ccc(Cl)cc2Cl)C(=O)N1c1cccnc1

$$$$
