
     RDKit          3D

 38 41  0  0  0  0  0  0  0  0999 V2000
    9.8144    1.6612   24.9802 O   0  0  0  0  0  0  0  0  0  0  0  0
   10.2334    1.2516   23.9228 C   0  0  0  0  0  0  0  0  0  0  0  0
   11.5649    0.6884   23.6472 C   0  0  0  0  0  0  0  0  0  0  0  0
   12.7531    0.6696   24.3687 C   0  0  0  0  0  0  0  0  0  0  0  0
   13.8682    0.1285   23.7339 C   0  0  0  0  0  0  0  0  0  0  0  0
   13.7194   -0.3938   22.4345 C   0  0  0  0  0  0  0  0  0  0  0  0
   12.5778   -0.3670   21.7568 N   0  0  0  0  0  0  0  0  0  0  0  0
   11.5337    0.2253   22.3426 C   0  0  0  0  0  0  0  0  0  0  0  0
   10.2110    0.6047   21.7125 C   0  0  0  0  0  0  0  0  0  0  0  0
    9.8000    0.4840   20.5834 O   0  0  0  0  0  0  0  0  0  0  0  0
    9.5108    1.2539   22.7283 N   0  0  0  0  0  0  0  0  0  0  0  0
    8.0699    1.5301   22.6669 C   0  0  0  0  0  0  0  0  0  0  0  0
    7.2578    0.3171   23.1047 C   0  0  0  0  0  0  0  0  0  0  0  0
    6.8676    0.1708   24.4476 C   0  0  0  0  0  0  0  0  0  0  0  0
    6.3036   -1.0209   24.9133 C   0  0  0  0  0  0  0  0  0  0  0  0
    6.1402   -2.1050   24.0454 C   0  0  0  0  0  0  0  0  0  0  0  0
    6.4909   -1.9724   22.7003 C   0  0  0  0  0  0  0  0  0  0  0  0
    7.0187   -0.7655   22.2387 C   0  0  0  0  0  0  0  0  0  0  0  0
    7.3597   -0.7351   20.9060 O   0  0  0  0  0  0  0  0  0  0  0  0
    6.6501   -0.0085   19.9894 C   0  0  0  0  0  0  0  0  0  0  0  0
    5.4289    0.6320   20.2203 C   0  0  0  0  0  0  0  0  0  0  0  0
    4.8347    1.2882   19.1328 C   0  0  0  0  0  0  0  0  0  0  0  0
    5.4701    1.2792   17.8878 C   0  0  0  0  0  0  0  0  0  0  0  0
    6.6471    0.6704   17.6648 N   0  0  0  0  0  0  0  0  0  0  0  0
    7.2217    0.0544   18.7055 C   0  0  0  0  0  0  0  0  0  0  0  0
    8.1842   -0.4295   18.5535 H   0  0  0  0  0  0  0  0  0  0  0  0
    5.0170    1.7774   17.0338 H   0  0  0  0  0  0  0  0  0  0  0  0
    3.8950    1.8172   19.2466 H   0  0  0  0  0  0  0  0  0  0  0  0
    4.9757    0.6264   21.2135 H   0  0  0  0  0  0  0  0  0  0  0  0
    6.3500   -2.7698   21.9792 H   0  0  0  0  0  0  0  0  0  0  0  0
    5.7182   -3.0410   24.4007 H   0  0  0  0  0  0  0  0  0  0  0  0
    6.0115   -1.1073   25.9545 H   0  0  0  0  0  0  0  0  0  0  0  0
    7.0567    0.9866   25.1440 H   0  0  0  0  0  0  0  0  0  0  0  0
    7.8263    1.8439   21.6461 H   0  0  0  0  0  0  0  0  0  0  0  0
    7.8619    2.3788   23.3266 H   0  0  0  0  0  0  0  0  0  0  0  0
   14.5661   -0.8301   21.9136 H   0  0  0  0  0  0  0  0  0  0  0  0
   14.8291    0.0614   24.2286 H   0  0  0  0  0  0  0  0  0  0  0  0
   12.8082    1.0778   25.3709 H   0  0  0  0  0  0  0  0  0  0  0  0
  1  2  2  0
  2  3  1  0
  3  4  2  0
  4  5  1  0
  5  6  2  0
  6  7  1  0
  7  8  2  0
  8  9  1  0
  9 10  2  0
  9 11  1  0
 11 12  1  0
 12 13  1  0
 13 14  2  0
 14 15  1  0
 15 16  2  0
 16 17  1  0
 17 18  2  0
 18 19  1  0
 19 20  1  0
 20 21  2  0
 21 22  1  0
 22 23  2  0
 23 24  1  0
 24 25  2  0
 25 26  1  0
 23 27  1  0
 22 28  1  0
 21 29  1  0
 17 30  1  0
 16 31  1  0
 15 32  1  0
 14 33  1  0
 12 34  1  0
 12 35  1  0
  6 36  1  0
  5 37  1  0
  4 38  1  0
 11  2  1  0
 18 13  1  0
 25 20  1  0
  8  3  1  0
M  END
>  <cnnaffinity>  (1) 
-5.60354

>  <filename>  (1) 
O=C1c2cccnc2C(=O)N1Cc1ccccc1Oc1cccnc1

$$$$
