
     RDKit          3D

 25 26  0  0  0  0  0  0  0  0999 V2000
    4.9525    1.8454   16.9984 H   0  0  0  0  0  0  0  0  0  0  0  0
    5.4391    1.3150   17.8137 C   0  0  0  0  0  0  0  0  0  0  0  0
    6.5985    0.7087   17.5112 N   0  0  0  0  0  0  0  0  0  0  0  0
    7.2120    0.0351   18.4894 C   0  0  0  0  0  0  0  0  0  0  0  0
    8.1559   -0.4395   18.2325 H   0  0  0  0  0  0  0  0  0  0  0  0
    6.7004   -0.1023   19.7981 C   0  0  0  0  0  0  0  0  0  0  0  0
    7.4170   -0.8553   20.7744 N   0  0  0  0  0  0  0  0  0  0  0  0
    8.7782   -0.6970   21.0392 C   0  0  0  0  0  0  0  0  0  0  0  0
    9.3801   -0.0521   20.4203 H   0  0  0  0  0  0  0  0  0  0  0  0
    9.0954   -1.4445   22.1213 C   0  0  0  0  0  0  0  0  0  0  0  0
   10.3325   -1.4663   22.9399 C   0  0  0  0  0  0  0  0  0  0  0  0
   10.3961   -2.4025   23.5028 H   0  0  0  0  0  0  0  0  0  0  0  0
   11.2092   -1.4203   22.2883 H   0  0  0  0  0  0  0  0  0  0  0  0
   10.4327   -0.3005   23.9253 C   0  0  0  0  0  0  0  0  0  0  0  0
   11.6296   -0.2992   24.5370 F   0  0  0  0  0  0  0  0  0  0  0  0
   10.3124    0.8952   23.3173 F   0  0  0  0  0  0  0  0  0  0  0  0
    9.4953   -0.3621   24.8851 F   0  0  0  0  0  0  0  0  0  0  0  0
    7.9278   -2.0907   22.5060 N   0  0  0  0  0  0  0  0  0  0  0  0
    7.7084   -2.5733   23.3544 H   0  0  0  0  0  0  0  0  0  0  0  0
    6.8614   -1.7468   21.7063 C   0  0  0  0  0  0  0  0  0  0  0  0
    5.7311   -2.1754   21.7965 O   0  0  0  0  0  0  0  0  0  0  0  0
    5.5017    0.5579   20.1102 C   0  0  0  0  0  0  0  0  0  0  0  0
    5.1062    0.5139   21.1272 H   0  0  0  0  0  0  0  0  0  0  0  0
    4.8645    1.2770   19.0908 C   0  0  0  0  0  0  0  0  0  0  0  0
    3.9399    1.8138   19.2751 H   0  0  0  0  0  0  0  0  0  0  0  0
  1  2  1  0
  2  3  2  0
  3  4  1  0
  4  5  1  0
  4  6  2  0
  6  7  1  0
  7  8  1  0
  8  9  1  0
  8 10  2  0
 10 11  1  0
 11 12  1  0
 11 13  1  0
 11 14  1  0
 14 15  1  0
 14 16  1  0
 14 17  1  0
 10 18  1  0
 18 19  1  0
 18 20  1  0
 20 21  2  0
  6 22  1  0
 22 23  1  0
 22 24  2  0
 24 25  1  0
 24  2  1  0
 20  7  1  0
M  END
>  <cnnaffinity>  (1) 
-5.12814

>  <filename>  (1) 
O=c1[nH]c(CC(F)(F)F)cn1-c1cccnc1

$$$$
