
     RDKit          3D

 36 39  0  0  0  0  0  0  0  0999 V2000
    6.6299    0.1350   27.5013 O   0  0  0  0  0  0  0  0  0  0  0  0
    5.8823    0.9209   26.9665 C   0  0  0  0  0  0  0  0  0  0  0  0
    4.3915    1.0279   27.0267 C   0  0  0  0  0  0  0  0  0  0  0  0
    3.4454    0.2859   27.7383 C   0  0  0  0  0  0  0  0  0  0  0  0
    2.0962    0.6150   27.5658 C   0  0  0  0  0  0  0  0  0  0  0  0
    1.7086    1.6614   26.7033 C   0  0  0  0  0  0  0  0  0  0  0  0
    2.6627    2.4002   25.9943 C   0  0  0  0  0  0  0  0  0  0  0  0
    4.0081    2.0624   26.1710 C   0  0  0  0  0  0  0  0  0  0  0  0
    5.2510    2.6284   25.5594 C   0  0  0  0  0  0  0  0  0  0  0  0
    5.3788    3.5053   24.7422 O   0  0  0  0  0  0  0  0  0  0  0  0
    6.3174    1.9337   26.1214 N   0  0  0  0  0  0  0  0  0  0  0  0
    7.6378    1.9156   25.5122 C   0  0  0  0  0  0  0  0  0  0  0  0
    7.6931    0.9476   24.3710 C   0  0  0  0  0  0  0  0  0  0  0  0
    8.0269   -0.3684   24.3633 C   0  0  0  0  0  0  0  0  0  0  0  0
    7.9570   -1.0349   23.1583 N   0  0  0  0  0  0  0  0  0  0  0  0
    7.5177   -0.2260   22.2429 C   0  0  0  0  0  0  0  0  0  0  0  0
    7.3569   -0.6600   20.9604 N   0  0  0  0  0  0  0  0  0  0  0  0
    6.6677   -0.0027   19.9147 C   0  0  0  0  0  0  0  0  0  0  0  0
    5.4419    0.6371   20.1545 C   0  0  0  0  0  0  0  0  0  0  0  0
    4.8087    1.2997   19.0975 C   0  0  0  0  0  0  0  0  0  0  0  0
    5.3994    1.2913   17.8321 C   0  0  0  0  0  0  0  0  0  0  0  0
    6.5628    0.6718   17.5775 N   0  0  0  0  0  0  0  0  0  0  0  0
    7.1737    0.0489   18.5949 C   0  0  0  0  0  0  0  0  0  0  0  0
    8.1243   -0.4337   18.3658 H   0  0  0  0  0  0  0  0  0  0  0  0
    4.9287    1.7928   16.9904 H   0  0  0  0  0  0  0  0  0  0  0  0
    3.8799    1.8329   19.2543 H   0  0  0  0  0  0  0  0  0  0  0  0
    5.0155    0.6103   21.1567 H   0  0  0  0  0  0  0  0  0  0  0  0
    7.8267   -1.5496   20.8696 H   0  0  0  0  0  0  0  0  0  0  0  0
    7.2672    1.4185   22.7525 S   0  0  0  0  0  0  0  0  0  0  0  0
    8.3609   -0.8964   25.2523 H   0  0  0  0  0  0  0  0  0  0  0  0
    7.8684    2.9381   25.1923 H   0  0  0  0  0  0  0  0  0  0  0  0
    8.3587    1.6406   26.2882 H   0  0  0  0  0  0  0  0  0  0  0  0
    2.3653    3.2089   25.3282 H   0  0  0  0  0  0  0  0  0  0  0  0
    0.6529    1.8933   26.5860 H   0  0  0  0  0  0  0  0  0  0  0  0
    1.3347    0.0533   28.1009 H   0  0  0  0  0  0  0  0  0  0  0  0
    3.7448   -0.5239   28.4020 H   0  0  0  0  0  0  0  0  0  0  0  0
  1  2  2  0
  2  3  1  0
  3  4  2  0
  4  5  1  0
  5  6  2  0
  6  7  1  0
  7  8  2  0
  8  9  1  0
  9 10  2  0
  9 11  1  0
 11 12  1  0
 12 13  1  0
 13 14  2  0
 14 15  1  0
 15 16  2  0
 16 17  1  0
 17 18  1  0
 18 19  2  0
 19 20  1  0
 20 21  2  0
 21 22  1  0
 22 23  2  0
 23 24  1  0
 21 25  1  0
 20 26  1  0
 19 27  1  0
 17 28  1  0
 16 29  1  0
 14 30  1  0
 12 31  1  0
 12 32  1  0
  7 33  1  0
  6 34  1  0
  5 35  1  0
  4 36  1  0
 11  2  1  0
 29 13  1  0
  8  3  1  0
 23 18  1  0
M  END
>  <cnnaffinity>  (1) 
-5.22697

>  <filename>  (1) 
O=C1c2ccccc2C(=O)N1Cc1cnc(Nc2cccnc2)s1

$$$$
