
     RDKit          3D

 29 31  0  0  0  0  0  0  0  0999 V2000
    4.9695    1.8158   16.8839 H   0  0  0  0  0  0  0  0  0  0  0  0
    5.4333    1.3417   17.7472 C   0  0  0  0  0  0  0  0  0  0  0  0
    6.6119    0.7383   17.5288 N   0  0  0  0  0  0  0  0  0  0  0  0
    7.2141    0.1502   18.5702 C   0  0  0  0  0  0  0  0  0  0  0  0
    8.1708   -0.3235   18.3533 H   0  0  0  0  0  0  0  0  0  0  0  0
    6.6737    0.1193   19.8677 C   0  0  0  0  0  0  0  0  0  0  0  0
    7.3607   -0.6063   20.9986 C   0  0  2  0  0  0  0  0  0  0  0  0
    6.9656   -0.2326   21.9547 H   0  0  0  0  0  0  0  0  0  0  0  0
    8.7748   -0.3732   20.9709 O   0  0  0  0  0  0  0  0  0  0  0  0
    9.4210   -1.5459   21.2228 C   0  0  0  0  0  0  0  0  0  0  0  0
   10.5432   -1.6477   21.6275 O   0  0  0  0  0  0  0  0  0  0  0  0
    8.5906   -2.5917   20.9320 N   0  0  0  0  0  0  0  0  0  0  0  0
    8.7998   -3.3921   21.5006 H   0  0  0  0  0  0  0  0  0  0  0  0
    7.2287   -2.1788   20.9732 C   0  0  1  0  0  0  0  0  0  0  0  0
    6.6721   -2.4852   20.0766 H   0  0  0  0  0  0  0  0  0  0  0  0
    6.6176   -2.8433   22.0896 N   0  0  0  0  0  0  0  0  0  0  0  0
    5.6229   -2.6801   22.1412 H   0  0  0  0  0  0  0  0  0  0  0  0
    7.2155   -2.9380   23.3896 C   0  0  0  0  0  0  0  0  0  0  0  0
    7.6281   -2.0269   23.8339 H   0  0  0  0  0  0  0  0  0  0  0  0
    6.5808   -3.9047   24.3503 C   0  0  0  0  0  0  0  0  0  0  0  0
    6.5807   -3.6537   25.4080 H   0  0  0  0  0  0  0  0  0  0  0  0
    5.6886   -4.4298   24.0231 H   0  0  0  0  0  0  0  0  0  0  0  0
    7.8841   -4.2521   23.6968 C   0  0  0  0  0  0  0  0  0  0  0  0
    7.8157   -4.9977   22.9115 H   0  0  0  0  0  0  0  0  0  0  0  0
    8.8012   -4.2644   24.2787 H   0  0  0  0  0  0  0  0  0  0  0  0
    5.4371    0.7503   20.0737 C   0  0  0  0  0  0  0  0  0  0  0  0
    4.9845    0.7735   21.0679 H   0  0  0  0  0  0  0  0  0  0  0  0
    4.8043    1.3644   18.9945 C   0  0  0  0  0  0  0  0  0  0  0  0
    3.8516    1.8704   19.1038 H   0  0  0  0  0  0  0  0  0  0  0  0
  1  2  1  0
  2  3  2  0
  3  4  1  0
  4  5  1  0
  4  6  2  0
  6  7  1  0
  7  8  1  1
  7  9  1  0
  9 10  1  0
 10 11  2  0
 10 12  1  0
 12 13  1  0
 12 14  1  0
 14 15  1  6
 14 16  1  0
 16 17  1  0
 16 18  1  0
 18 19  1  0
 18 20  1  0
 20 21  1  0
 20 22  1  0
 20 23  1  0
 23 24  1  0
 23 25  1  0
  6 26  1  0
 26 27  1  0
 26 28  2  0
 28 29  1  0
 28  2  1  0
 14  7  1  0
 23 18  1  0
M  END
>  <cnnaffinity>  (1) 
-4.42172

>  <filename>  (1) 
O=C1N[C@@H](NC2CC2)[C@H](c2cccnc2)O1

$$$$
