
     RDKit          3D

 30 32  0  0  0  0  0  0  0  0999 V2000
    5.0454    1.8138   16.9483 H   0  0  0  0  0  0  0  0  0  0  0  0
    5.4538    1.2871   17.8074 C   0  0  0  0  0  0  0  0  0  0  0  0
    6.5913    0.6092   17.5876 N   0  0  0  0  0  0  0  0  0  0  0  0
    7.1293   -0.0423   18.6237 C   0  0  0  0  0  0  0  0  0  0  0  0
    8.0387   -0.6066   18.4129 H   0  0  0  0  0  0  0  0  0  0  0  0
    6.5753   -0.0371   19.9150 C   0  0  0  0  0  0  0  0  0  0  0  0
    7.2904   -0.7832   20.9641 C   0  0  0  0  0  0  0  0  0  0  0  0
    8.1040   -1.7615   20.6818 N   0  0  0  0  0  0  0  0  0  0  0  0
    8.5751   -2.1741   21.8951 N   0  0  0  0  0  0  0  0  0  0  0  0
    9.2285   -2.9274   22.0106 H   0  0  0  0  0  0  0  0  0  0  0  0
    8.1226   -1.4489   22.9482 C   0  0  0  0  0  0  0  0  0  0  0  0
    8.4280   -1.5559   24.1228 O   0  0  0  0  0  0  0  0  0  0  0  0
    7.2337   -0.5351   22.3307 N   0  0  0  0  0  0  0  0  0  0  0  0
    6.6470    0.6020   22.9883 N   0  0  0  0  0  0  0  0  0  0  0  0
    6.7632    0.4356   23.9943 H   0  0  0  0  0  0  0  0  0  0  0  0
    7.3290    1.8585   22.6238 C   0  0  0  0  0  0  0  0  0  0  0  0
    6.9331    2.6407   23.2786 H   0  0  0  0  0  0  0  0  0  0  0  0
    7.0121    2.1263   21.6115 H   0  0  0  0  0  0  0  0  0  0  0  0
    8.8426    1.8216   22.6959 C   0  0  0  0  0  0  0  0  0  0  0  0
    9.2386    1.4550   23.6407 H   0  0  0  0  0  0  0  0  0  0  0  0
    9.6221    2.9045   22.0173 C   0  0  0  0  0  0  0  0  0  0  0  0
    9.0173    3.6388   21.4927 H   0  0  0  0  0  0  0  0  0  0  0  0
   10.5187    3.3128   22.4829 H   0  0  0  0  0  0  0  0  0  0  0  0
    9.6511    1.5013   21.4583 C   0  0  0  0  0  0  0  0  0  0  0  0
    9.1176    1.3379   20.5196 H   0  0  0  0  0  0  0  0  0  0  0  0
   10.5370    0.8803   21.5867 H   0  0  0  0  0  0  0  0  0  0  0  0
    5.3815    0.6670   20.1314 C   0  0  0  0  0  0  0  0  0  0  0  0
    4.9407    0.7043   21.1314 H   0  0  0  0  0  0  0  0  0  0  0  0
    4.8095    1.3387   19.0485 C   0  0  0  0  0  0  0  0  0  0  0  0
    3.9014    1.9220   19.1546 H   0  0  0  0  0  0  0  0  0  0  0  0
  1  2  1  0
  2  3  2  0
  3  4  1  0
  4  5  1  0
  4  6  2  0
  6  7  1  0
  7  8  2  0
  8  9  1  0
  9 10  1  0
  9 11  1  0
 11 12  2  0
 11 13  1  0
 13 14  1  0
 14 15  1  0
 14 16  1  0
 16 17  1  0
 16 18  1  0
 16 19  1  0
 19 20  1  0
 19 21  1  0
 21 22  1  0
 21 23  1  0
 21 24  1  0
 24 25  1  0
 24 26  1  0
  6 27  1  0
 27 28  1  0
 27 29  2  0
 29 30  1  0
 29  2  1  0
 13  7  1  0
 24 19  1  0
M  END
>  <cnnaffinity>  (1) 
-4.7978

>  <filename>  (1) 
O=c1[nH]nc(-c2cccnc2)n1NCC1CC1

$$$$
