
     RDKit          3D

 35 37  0  0  0  0  0  0  0  0999 V2000
    4.9650    1.8673   16.9371 H   0  0  0  0  0  0  0  0  0  0  0  0
    5.4282    1.3295   17.7650 C   0  0  0  0  0  0  0  0  0  0  0  0
    6.5929    0.7172   17.5108 N   0  0  0  0  0  0  0  0  0  0  0  0
    7.1786    0.0601   18.5227 C   0  0  0  0  0  0  0  0  0  0  0  0
    8.1279   -0.4036   18.2599 H   0  0  0  0  0  0  0  0  0  0  0  0
    6.6460   -0.0481   19.8288 C   0  0  0  0  0  0  0  0  0  0  0  0
    7.3473   -0.7703   20.9838 C   0  0  2  0  0  0  0  0  0  0  0  0
    8.1192   -1.4358   20.5675 H   0  0  0  0  0  0  0  0  0  0  0  0
    6.4676   -1.7119   21.8397 C   0  0  0  0  0  0  0  0  0  0  0  0
    5.7244   -2.5974   21.4721 O   0  0  0  0  0  0  0  0  0  0  0  0
    6.7513   -1.4452   23.1430 N   0  0  0  0  0  0  0  0  0  0  0  0
    6.2023   -1.9237   23.8344 H   0  0  0  0  0  0  0  0  0  0  0  0
    7.7309   -0.4214   23.4174 C   0  0  0  0  0  0  0  0  0  0  0  0
    7.3664    0.3112   24.1531 H   0  0  0  0  0  0  0  0  0  0  0  0
    8.6516   -0.8493   23.8511 H   0  0  0  0  0  0  0  0  0  0  0  0
    7.9620    0.2111   22.0239 C   0  0  1  0  0  0  0  0  0  0  0  0
    7.3684    1.1393   21.9893 H   0  0  0  0  0  0  0  0  0  0  0  0
    9.4254    0.5822   21.7325 C   0  0  0  0  0  0  0  0  0  0  0  0
    9.4970    0.8736   20.6763 H   0  0  0  0  0  0  0  0  0  0  0  0
   10.0694   -0.3032   21.8469 H   0  0  0  0  0  0  0  0  0  0  0  0
    9.9254    1.7079   22.6130 C   0  0  0  0  0  0  0  0  0  0  0  0
    9.5978    3.0403   22.3069 C   0  0  0  0  0  0  0  0  0  0  0  0
    8.9316    3.2436   21.4688 H   0  0  0  0  0  0  0  0  0  0  0  0
   10.1025    4.1100   23.0511 C   0  0  0  0  0  0  0  0  0  0  0  0
    9.8494    5.1384   22.7986 H   0  0  0  0  0  0  0  0  0  0  0  0
   10.9475    3.8245   24.1214 C   0  0  0  0  0  0  0  0  0  0  0  0
   11.5040    4.8376   24.8114 F   0  0  0  0  0  0  0  0  0  0  0  0
   11.2321    2.5134   24.5059 C   0  0  0  0  0  0  0  0  0  0  0  0
   11.8745    2.3319   25.3587 H   0  0  0  0  0  0  0  0  0  0  0  0
   10.6915    1.4593   23.7628 C   0  0  0  0  0  0  0  0  0  0  0  0
   10.8690    0.4307   24.0789 H   0  0  0  0  0  0  0  0  0  0  0  0
    5.4376    0.6197   20.0671 C   0  0  0  0  0  0  0  0  0  0  0  0
    5.0050    0.6239   21.0715 H   0  0  0  0  0  0  0  0  0  0  0  0
    4.8173    1.3055   19.0209 C   0  0  0  0  0  0  0  0  0  0  0  0
    3.8907    1.8406   19.1739 H   0  0  0  0  0  0  0  0  0  0  0  0
  1  2  1  0
  2  3  2  0
  3  4  1  0
  4  5  1  0
  4  6  2  0
  6  7  1  0
  7  8  1  6
  7  9  1  0
  9 10  2  0
  9 11  1  0
 11 12  1  0
 11 13  1  0
 13 14  1  0
 13 15  1  0
 13 16  1  0
 16 17  1  1
 16 18  1  0
 18 19  1  0
 18 20  1  0
 18 21  1  0
 21 22  2  0
 22 23  1  0
 22 24  1  0
 24 25  1  0
 24 26  2  0
 26 27  1  0
 26 28  1  0
 28 29  1  0
 28 30  2  0
 30 31  1  0
  6 32  1  0
 32 33  1  0
 32 34  2  0
 34 35  1  0
 34  2  1  0
 16  7  1  0
 30 21  1  0
M  END
>  <cnnaffinity>  (1) 
-5.13471

>  <filename>  (1) 
O=C1NC[C@@H](Cc2ccc(F)cc2)[C@@H]1c1cccnc1

$$$$
