
     RDKit          3D

 40 42  0  0  0  0  0  0  0  0999 V2000
    4.9175    1.8032   16.9793 H   0  0  0  0  0  0  0  0  0  0  0  0
    5.3899    1.2972   17.8199 C   0  0  0  0  0  0  0  0  0  0  0  0
    6.5515    0.6781   17.5579 N   0  0  0  0  0  0  0  0  0  0  0  0
    7.1590    0.0460   18.5688 C   0  0  0  0  0  0  0  0  0  0  0  0
    8.1222   -0.4137   18.3488 H   0  0  0  0  0  0  0  0  0  0  0  0
    6.6440    0.0023   19.8778 C   0  0  0  0  0  0  0  0  0  0  0  0
    7.3444   -0.6735   20.9403 N   0  0  0  0  0  0  0  0  0  0  0  0
    7.5715   -2.0293   20.8162 C   0  0  0  0  0  0  0  0  0  0  0  0
    7.1240   -2.4524   19.9233 H   0  0  0  0  0  0  0  0  0  0  0  0
    8.2513   -2.7370   21.7535 C   0  0  0  0  0  0  0  0  0  0  0  0
    8.4230   -3.8049   21.6269 H   0  0  0  0  0  0  0  0  0  0  0  0
    8.7136   -2.0742   22.9378 C   0  0  0  0  0  0  0  0  0  0  0  0
    9.3792   -2.8747   24.0280 C   0  0  0  0  0  0  0  0  0  0  0  0
    9.9432   -2.1990   24.6863 H   0  0  0  0  0  0  0  0  0  0  0  0
   10.1097   -3.5586   23.5749 H   0  0  0  0  0  0  0  0  0  0  0  0
    8.3829   -3.6897   24.8787 C   0  0  0  0  0  0  0  0  0  0  0  0
    7.7799   -4.3180   24.1988 H   0  0  0  0  0  0  0  0  0  0  0  0
    9.1351   -4.6347   25.8360 C   0  0  0  0  0  0  0  0  0  0  0  0
    9.7921   -5.3011   25.2594 H   0  0  0  0  0  0  0  0  0  0  0  0
    9.7993   -4.0284   26.4749 H   0  0  0  0  0  0  0  0  0  0  0  0
    8.1773   -5.4598   26.7104 C   0  0  0  0  0  0  0  0  0  0  0  0
    7.6013   -6.1437   26.0697 H   0  0  0  0  0  0  0  0  0  0  0  0
    8.7461   -6.0878   27.4071 H   0  0  0  0  0  0  0  0  0  0  0  0
    7.2112   -4.5486   27.4821 C   0  0  0  0  0  0  0  0  0  0  0  0
    6.5127   -5.1390   28.0890 H   0  0  0  0  0  0  0  0  0  0  0  0
    7.8145   -3.9557   28.1811 H   0  0  0  0  0  0  0  0  0  0  0  0
    6.4438   -3.6033   26.5427 C   0  0  0  0  0  0  0  0  0  0  0  0
    5.7754   -4.1954   25.8990 H   0  0  0  0  0  0  0  0  0  0  0  0
    5.7936   -2.9279   27.1139 H   0  0  0  0  0  0  0  0  0  0  0  0
    7.3982   -2.7892   25.6555 C   0  0  0  0  0  0  0  0  0  0  0  0
    7.9768   -2.0926   26.2839 H   0  0  0  0  0  0  0  0  0  0  0  0
    6.8190   -2.1644   24.9622 H   0  0  0  0  0  0  0  0  0  0  0  0
    8.4618   -0.7378   23.0904 C   0  0  0  0  0  0  0  0  0  0  0  0
    8.7344   -0.1754   23.9722 H   0  0  0  0  0  0  0  0  0  0  0  0
    7.7562    0.0540   22.1079 C   0  0  0  0  0  0  0  0  0  0  0  0
    7.5333    1.2457   22.2403 O   0  0  0  0  0  0  0  0  0  0  0  0
    5.4365    0.6455   20.1418 C   0  0  0  0  0  0  0  0  0  0  0  0
    5.0482    0.6402   21.1609 H   0  0  0  0  0  0  0  0  0  0  0  0
    4.8000    1.3049   19.0883 C   0  0  0  0  0  0  0  0  0  0  0  0
    3.8758    1.8425   19.2466 H   0  0  0  0  0  0  0  0  0  0  0  0
  1  2  1  0
  2  3  2  0
  3  4  1  0
  4  5  1  0
  4  6  2  0
  6  7  1  0
  7  8  1  0
  8  9  1  0
  8 10  2  0
 10 11  1  0
 10 12  1  0
 12 13  1  0
 13 14  1  0
 13 15  1  0
 13 16  1  0
 16 17  1  0
 16 18  1  0
 18 19  1  0
 18 20  1  0
 18 21  1  0
 21 22  1  0
 21 23  1  0
 21 24  1  0
 24 25  1  0
 24 26  1  0
 24 27  1  0
 27 28  1  0
 27 29  1  0
 27 30  1  0
 30 31  1  0
 30 32  1  0
 12 33  2  0
 33 34  1  0
 33 35  1  0
 35 36  2  0
  6 37  1  0
 37 38  1  0
 37 39  2  0
 39 40  1  0
 39  2  1  0
 35  7  1  0
 30 16  1  0
M  END
>  <cnnaffinity>  (1) 
-5.23543

>  <filename>  (1) 
O=c1cc(CC2CCCCC2)ccn1-c1cccnc1

$$$$
