
     RDKit          3D

 33 35  0  0  0  0  0  0  0  0999 V2000
    4.9278    1.8211   16.9586 H   0  0  0  0  0  0  0  0  0  0  0  0
    5.3916    1.3105   17.7989 C   0  0  0  0  0  0  0  0  0  0  0  0
    6.5513    0.6820   17.5434 N   0  0  0  0  0  0  0  0  0  0  0  0
    7.1539    0.0703   18.5728 C   0  0  0  0  0  0  0  0  0  0  0  0
    8.0995   -0.4237   18.3451 H   0  0  0  0  0  0  0  0  0  0  0  0
    6.6406    0.0136   19.8855 C   0  0  0  0  0  0  0  0  0  0  0  0
    7.3789   -0.7087   20.9684 C   0  0  0  0  0  0  0  0  0  0  0  0
    8.7920   -0.5376   21.1085 C   0  0  0  0  0  0  0  0  0  0  0  0
    9.3150    0.1199   20.4113 H   0  0  0  0  0  0  0  0  0  0  0  0
    9.4815   -1.1550   22.1267 C   0  0  0  0  0  0  0  0  0  0  0  0
   10.9084   -1.0251   22.3513 C   0  0  0  0  0  0  0  0  0  0  0  0
   11.6125   -2.1341   22.1125 N   0  0  0  0  0  0  0  0  0  0  0  0
   12.9411   -2.0385   22.1257 C   0  0  0  0  0  0  0  0  0  0  0  0
   13.5115   -2.9368   21.9370 H   0  0  0  0  0  0  0  0  0  0  0  0
   13.6427   -0.8731   22.4339 C   0  0  0  0  0  0  0  0  0  0  0  0
   14.7230   -0.9019   22.4611 H   0  0  0  0  0  0  0  0  0  0  0  0
   12.9226    0.2726   22.7404 C   0  0  0  0  0  0  0  0  0  0  0  0
   13.4201    1.2028   23.0158 H   0  0  0  0  0  0  0  0  0  0  0  0
   11.5299    0.1878   22.7106 C   0  0  0  0  0  0  0  0  0  0  0  0
   10.6677    1.3761   22.9998 C   0  0  0  0  0  0  0  0  0  0  0  0
   10.2665    1.9566   21.8460 F   0  0  0  0  0  0  0  0  0  0  0  0
    9.5552    1.0526   23.6860 F   0  0  0  0  0  0  0  0  0  0  0  0
   11.3021    2.3200   23.7132 F   0  0  0  0  0  0  0  0  0  0  0  0
    8.8283   -2.0715   23.0331 C   0  0  0  0  0  0  0  0  0  0  0  0
    9.2870   -2.7097   23.9634 O   0  0  0  0  0  0  0  0  0  0  0  0
    7.4556   -2.2031   22.8048 N   0  0  0  0  0  0  0  0  0  0  0  0
    7.0806   -2.7894   23.5383 H   0  0  0  0  0  0  0  0  0  0  0  0
    6.7355   -1.5453   21.8487 C   0  0  0  0  0  0  0  0  0  0  0  0
    5.6613   -1.7218   21.8030 H   0  0  0  0  0  0  0  0  0  0  0  0
    5.4194    0.6719   20.1165 C   0  0  0  0  0  0  0  0  0  0  0  0
    4.9878    0.6881   21.1178 H   0  0  0  0  0  0  0  0  0  0  0  0
    4.7866    1.3322   19.0605 C   0  0  0  0  0  0  0  0  0  0  0  0
    3.8517    1.8674   19.2040 H   0  0  0  0  0  0  0  0  0  0  0  0
  1  2  1  0
  2  3  2  0
  3  4  1  0
  4  5  1  0
  4  6  2  0
  6  7  1  0
  7  8  1  0
  8  9  1  0
  8 10  2  0
 10 11  1  0
 11 12  2  0
 12 13  1  0
 13 14  1  0
 13 15  2  0
 15 16  1  0
 15 17  1  0
 17 18  1  0
 17 19  2  0
 19 20  1  0
 20 21  1  0
 20 22  1  0
 20 23  1  0
 10 24  1  0
 24 25  2  0
 24 26  1  0
 26 27  1  0
 26 28  1  0
 28 29  1  0
  6 30  1  0
 30 31  1  0
 30 32  2  0
 32 33  1  0
 32  2  1  0
 28  7  2  0
 19 11  1  0
M  END
>  <cnnaffinity>  (1) 
-6.05493

>  <filename>  (1) 
O=c1[nH]cc(-c2cccnc2)cc1-c1ncccc1C(F)(F)F

$$$$
