
     RDKit          3D

 33 36  0  0  0  0  0  0  0  0999 V2000
    4.8764    1.7505   16.9956 H   0  0  0  0  0  0  0  0  0  0  0  0
    5.3869    1.2870   17.8357 C   0  0  0  0  0  0  0  0  0  0  0  0
    6.5730    0.7157   17.5554 N   0  0  0  0  0  0  0  0  0  0  0  0
    7.2425    0.1753   18.5709 C   0  0  0  0  0  0  0  0  0  0  0  0
    8.1968   -0.3067   18.3635 H   0  0  0  0  0  0  0  0  0  0  0  0
    6.7910    0.1680   19.9218 C   0  0  0  0  0  0  0  0  0  0  0  0
    7.6550   -0.3865   20.8526 N   0  0  0  0  0  0  0  0  0  0  0  0
    7.6620   -0.1215   22.1093 C   0  0  0  0  0  0  0  0  0  0  0  0
    7.3775    1.2011   22.7362 C   0  0  0  0  0  0  0  0  0  0  0  0
    7.7233    2.3741   22.0504 C   0  0  0  0  0  0  0  0  0  0  0  0
    8.2002    2.2969   21.0766 H   0  0  0  0  0  0  0  0  0  0  0  0
    7.4608    3.6645   22.5652 C   0  0  0  0  0  0  0  0  0  0  0  0
    7.7287    4.5411   21.9751 H   0  0  0  0  0  0  0  0  0  0  0  0
    6.8561    3.8171   23.7919 C   0  0  0  0  0  0  0  0  0  0  0  0
    6.6428    4.8036   24.1978 H   0  0  0  0  0  0  0  0  0  0  0  0
    6.4994    2.6745   24.5593 C   0  0  0  0  0  0  0  0  0  0  0  0
    5.8698    2.7961   25.8367 C   0  0  0  0  0  0  0  0  0  0  0  0
    5.6718    3.7897   26.2413 H   0  0  0  0  0  0  0  0  0  0  0  0
    5.5217    1.6595   26.5218 C   0  0  0  0  0  0  0  0  0  0  0  0
    5.0345    1.6968   27.4894 H   0  0  0  0  0  0  0  0  0  0  0  0
    5.8102    0.3968   25.9381 C   0  0  0  0  0  0  0  0  0  0  0  0
    5.5284   -0.5097   26.4747 H   0  0  0  0  0  0  0  0  0  0  0  0
    6.4150    0.2365   24.7822 N   0  0  0  0  0  0  0  0  0  0  0  0
    6.7614    1.3499   24.0554 C   0  0  0  0  0  0  0  0  0  0  0  0
    8.2790   -1.2149   22.9513 C   0  0  0  0  0  0  0  0  0  0  0  0
    8.3592   -1.0086   24.0339 H   0  0  0  0  0  0  0  0  0  0  0  0
    8.6846   -2.2452   22.4589 O   0  0  0  0  0  0  0  0  0  0  0  0
    6.7804   -2.7952   20.9866 C   0  0  0  0  0  0  0  0  0  0  0  0
    6.5561   -3.0936   20.8579 O   0  0  0  0  0  0  0  0  0  0  0  0
    5.5164    0.7057   20.1781 C   0  0  0  0  0  0  0  0  0  0  0  0
    5.1110    0.7172   21.1924 H   0  0  0  0  0  0  0  0  0  0  0  0
    4.8207    1.2887   19.1108 C   0  0  0  0  0  0  0  0  0  0  0  0
    3.8629    1.7699   19.2696 H   0  0  0  0  0  0  0  0  0  0  0  0
  1  2  1  0
  2  3  2  0
  3  4  1  0
  4  5  1  0
  4  6  2  0
  6  7  1  0
  7  8  1  0
  8  9  1  0
  9 10  2  0
 10 11  1  0
 10 12  1  0
 12 13  1  0
 12 14  2  0
 14 15  1  0
 14 16  1  0
 16 17  2  0
 17 18  1  0
 17 19  1  0
 19 20  1  0
 19 21  2  0
 21 22  1  0
 21 23  1  0
 23 24  2  0
  8 25  2  0
 25 26  1  0
 25 27  1  0
 27 28  1  0
 28 29  2  0
  6 30  1  0
 30 31  1  0
 30 32  2  0
 32 33  1  0
 32  2  1  0
 28  7  1  0
 24  9  1  0
 24 16  1  0
M  END
>  <cnnaffinity>  (1) 
-5.33574

>  <filename>  (1) 
O=c1occ(-c2cccc3cccnc23)n1-c1cccnc1

$$$$
