
     RDKit          3D

 34 37  0  0  0  0  0  0  0  0999 V2000
    4.9172    1.7795   16.9992 H   0  0  0  0  0  0  0  0  0  0  0  0
    5.4056    1.2912   17.8386 C   0  0  0  0  0  0  0  0  0  0  0  0
    6.5723    0.6772   17.5718 N   0  0  0  0  0  0  0  0  0  0  0  0
    7.1660    0.0419   18.5874 C   0  0  0  0  0  0  0  0  0  0  0  0
    8.1260   -0.4285   18.3697 H   0  0  0  0  0  0  0  0  0  0  0  0
    6.6454   -0.0128   19.8908 C   0  0  0  0  0  0  0  0  0  0  0  0
    7.3821   -0.6752   20.9659 C   0  0  0  0  0  0  0  0  0  0  0  0
    7.7330   -0.0600   22.1533 C   0  0  0  0  0  0  0  0  0  0  0  0
    7.5074    1.3746   22.3673 C   0  0  0  0  0  0  0  0  0  0  0  0
    8.0020    2.3549   21.5742 C   0  0  0  0  0  0  0  0  0  0  0  0
    8.6045    2.2010   20.6878 H   0  0  0  0  0  0  0  0  0  0  0  0
    7.5967    3.9530   22.0956 S   0  0  0  0  0  0  0  0  0  0  0  0
    6.6978    3.3097   23.4505 C   0  0  0  0  0  0  0  0  0  0  0  0
    5.9876    4.0278   24.4295 C   0  0  0  0  0  0  0  0  0  0  0  0
    5.9643    5.1144   24.3980 H   0  0  0  0  0  0  0  0  0  0  0  0
    5.3177    3.3204   25.4236 C   0  0  0  0  0  0  0  0  0  0  0  0
    4.7632    3.8601   26.1889 H   0  0  0  0  0  0  0  0  0  0  0  0
    5.3411    1.9072   25.4532 C   0  0  0  0  0  0  0  0  0  0  0  0
    4.8079    1.3677   26.2325 H   0  0  0  0  0  0  0  0  0  0  0  0
    6.0408    1.1968   24.4898 C   0  0  0  0  0  0  0  0  0  0  0  0
    6.0539    0.1059   24.4834 H   0  0  0  0  0  0  0  0  0  0  0  0
    6.7402    1.8998   23.4789 C   0  0  0  0  0  0  0  0  0  0  0  0
    8.3774   -0.8411   23.1724 C   0  0  0  0  0  0  0  0  0  0  0  0
    8.6417   -0.3373   24.1071 H   0  0  0  0  0  0  0  0  0  0  0  0
    8.6628   -2.1502   22.9627 C   0  0  0  0  0  0  0  0  0  0  0  0
    9.1549   -2.7697   23.6918 H   0  0  0  0  0  0  0  0  0  0  0  0
    8.3208   -2.8145   21.7133 C   0  0  0  0  0  0  0  0  0  0  0  0
    8.5138   -3.9874   21.4407 O   0  0  0  0  0  0  0  0  0  0  0  0
    7.7168   -1.9927   20.7777 N   0  0  0  0  0  0  0  0  0  0  0  0
    7.4588   -2.4822   19.9380 H   0  0  0  0  0  0  0  0  0  0  0  0
    5.4321    0.6492   20.1563 C   0  0  0  0  0  0  0  0  0  0  0  0
    5.0132    0.6378   21.1693 H   0  0  0  0  0  0  0  0  0  0  0  0
    4.8018    1.3060   19.1032 C   0  0  0  0  0  0  0  0  0  0  0  0
    3.8731    1.8446   19.2583 H   0  0  0  0  0  0  0  0  0  0  0  0
  1  2  1  0
  2  3  2  0
  3  4  1  0
  4  5  1  0
  4  6  2  0
  6  7  1  0
  7  8  2  0
  8  9  1  0
  9 10  2  0
 10 11  1  0
 10 12  1  0
 12 13  1  0
 13 14  2  0
 14 15  1  0
 14 16  1  0
 16 17  1  0
 16 18  2  0
 18 19  1  0
 18 20  1  0
 20 21  1  0
 20 22  2  0
  8 23  1  0
 23 24  1  0
 23 25  2  0
 25 26  1  0
 25 27  1  0
 27 28  2  0
 27 29  1  0
 29 30  1  0
  6 31  1  0
 31 32  1  0
 31 33  2  0
 33 34  1  0
 33  2  1  0
 29  7  1  0
 22  9  1  0
 22 13  1  0
M  END
>  <cnnaffinity>  (1) 
-5.57424

>  <filename>  (1) 
O=c1ccc(-c2csc3ccccc23)c(-c2cccnc2)[nH]1

$$$$
