
     RDKit          3D

 34 36  0  0  0  0  0  0  0  0999 V2000
    9.9991   -0.4056   22.5808 H   0  0  0  0  0  0  0  0  0  0  0  0
    9.0695   -0.8402   22.2532 C   0  0  0  0  0  0  0  0  0  0  0  0
    8.2771   -1.5296   23.0970 C   0  0  0  0  0  0  0  0  0  0  0  0
    8.5995   -1.5456   24.5842 C   0  0  0  0  0  0  0  0  0  0  0  0
    8.7295   -0.3383   25.1490 N   0  0  0  0  0  0  0  0  0  0  0  0
    8.9810   -0.2580   26.4591 C   0  0  0  0  0  0  0  0  0  0  0  0
    9.0393    0.7500   26.8579 H   0  0  0  0  0  0  0  0  0  0  0  0
    9.1868   -1.3752   27.2699 C   0  0  0  0  0  0  0  0  0  0  0  0
    9.4016   -1.2193   28.3225 H   0  0  0  0  0  0  0  0  0  0  0  0
    9.1286   -2.6384   26.6867 C   0  0  0  0  0  0  0  0  0  0  0  0
    9.3205   -3.5478   27.2582 H   0  0  0  0  0  0  0  0  0  0  0  0
    8.8540   -2.7220   25.3171 C   0  0  0  0  0  0  0  0  0  0  0  0
    8.8571   -4.0279   24.5827 C   0  0  0  0  0  0  0  0  0  0  0  0
    9.5119   -3.9512   23.4130 F   0  0  0  0  0  0  0  0  0  0  0  0
    7.5868   -4.3961   24.2839 F   0  0  0  0  0  0  0  0  0  0  0  0
    9.4052   -5.0317   25.2854 F   0  0  0  0  0  0  0  0  0  0  0  0
    7.1889   -2.1989   22.5153 N   0  0  0  0  0  0  0  0  0  0  0  0
    6.5822   -2.8720   22.9553 H   0  0  0  0  0  0  0  0  0  0  0  0
    6.6226   -1.8786   21.2950 C   0  0  0  0  0  0  0  0  0  0  0  0
    5.5909   -2.4293   20.9686 O   0  0  0  0  0  0  0  0  0  0  0  0
    7.3075   -0.9200   20.5494 N   0  0  0  0  0  0  0  0  0  0  0  0
    6.6254   -0.1293   19.5673 C   0  0  0  0  0  0  0  0  0  0  0  0
    7.1636    0.0969   18.2799 C   0  0  0  0  0  0  0  0  0  0  0  0
    8.1190   -0.3558   18.0084 H   0  0  0  0  0  0  0  0  0  0  0  0
    6.5702    0.8431   17.3404 N   0  0  0  0  0  0  0  0  0  0  0  0
    5.4091    1.4415   17.6570 C   0  0  0  0  0  0  0  0  0  0  0  0
    4.9531    2.0579   16.8833 H   0  0  0  0  0  0  0  0  0  0  0  0
    4.8057    1.3041   18.9109 C   0  0  0  0  0  0  0  0  0  0  0  0
    3.8841    1.8329   19.1201 H   0  0  0  0  0  0  0  0  0  0  0  0
    5.4138    0.5005   19.8815 C   0  0  0  0  0  0  0  0  0  0  0  0
    4.9843    0.3771   20.8749 H   0  0  0  0  0  0  0  0  0  0  0  0
    8.7247   -0.6281   20.8164 C   0  0  0  0  0  0  0  0  0  0  0  0
    8.9155    0.4315   20.5723 H   0  0  0  0  0  0  0  0  0  0  0  0
    9.3935   -1.2242   20.1617 H   0  0  0  0  0  0  0  0  0  0  0  0
  1  2  1  0
  2  3  2  0
  3  4  1  0
  4  5  2  0
  5  6  1  0
  6  7  1  0
  6  8  2  0
  8  9  1  0
  8 10  1  0
 10 11  1  0
 10 12  2  0
 12 13  1  0
 13 14  1  0
 13 15  1  0
 13 16  1  0
  3 17  1  0
 17 18  1  0
 17 19  1  0
 19 20  2  0
 19 21  1  0
 21 22  1  0
 22 23  2  0
 23 24  1  0
 23 25  1  0
 25 26  2  0
 26 27  1  0
 26 28  1  0
 28 29  1  0
 28 30  2  0
 30 31  1  0
 21 32  1  0
 32 33  1  0
 32 34  1  0
 32  2  1  0
 12  4  1  0
 30 22  1  0
M  END
>  <cnnaffinity>  (1) 
-5.75843

>  <filename>  (1) 
O=C1NC(c2ncccc2C(F)(F)F)=CCN1c1cccnc1

$$$$
