
     RDKit          3D

 41 44  0  0  0  0  0  0  0  0999 V2000
    6.5648    6.6300   26.9606 H   0  0  0  0  0  0  0  0  0  0  0  0
    7.3700    6.2812   26.3155 C   0  0  0  0  0  0  0  0  0  0  0  0
    7.1086    5.1746   25.6211 N   0  0  0  0  0  0  0  0  0  0  0  0
    8.0559    4.7357   24.7790 C   0  0  0  0  0  0  0  0  0  0  0  0
    7.7502    3.6279   24.0342 N   0  0  0  0  0  0  0  0  0  0  0  0
    6.6127    2.7650   24.3740 C   0  0  0  0  0  0  0  0  0  0  0  0
    6.3774    2.8832   25.4332 H   0  0  0  0  0  0  0  0  0  0  0  0
    5.7148    3.0715   23.8163 H   0  0  0  0  0  0  0  0  0  0  0  0
    6.9405    1.2939   24.0768 C   0  0  0  0  0  0  0  0  0  0  0  0
    6.0395    0.6886   24.2491 H   0  0  0  0  0  0  0  0  0  0  0  0
    7.6972    0.9477   24.7966 H   0  0  0  0  0  0  0  0  0  0  0  0
    7.4181    1.1030   22.6911 N   0  0  0  0  0  0  0  0  0  0  0  0
    7.6795   -0.1670   22.2743 C   0  0  0  0  0  0  0  0  0  0  0  0
    8.1808   -1.1971   22.9757 C   0  0  0  0  0  0  0  0  0  0  0  0
    8.6644   -1.2456   23.9441 H   0  0  0  0  0  0  0  0  0  0  0  0
    7.9863   -2.3688   22.2632 O   0  0  0  0  0  0  0  0  0  0  0  0
    7.2772   -2.0639   21.1339 C   0  0  0  0  0  0  0  0  0  0  0  0
    6.7224   -2.8674   20.4315 O   0  0  0  0  0  0  0  0  0  0  0  0
    7.3036   -0.6736   21.0036 N   0  0  0  0  0  0  0  0  0  0  0  0
    6.6575    0.0136   19.9180 C   0  0  0  0  0  0  0  0  0  0  0  0
    7.1975    0.0746   18.6132 C   0  0  0  0  0  0  0  0  0  0  0  0
    8.1506   -0.4053   18.3881 H   0  0  0  0  0  0  0  0  0  0  0  0
    6.5942    0.7161   17.6024 N   0  0  0  0  0  0  0  0  0  0  0  0
    5.4198    1.3206   17.8473 C   0  0  0  0  0  0  0  0  0  0  0  0
    4.9350    1.8038   17.0000 H   0  0  0  0  0  0  0  0  0  0  0  0
    4.8079    1.3177   19.1033 C   0  0  0  0  0  0  0  0  0  0  0  0
    3.8583    1.8179   19.2479 H   0  0  0  0  0  0  0  0  0  0  0  0
    5.4413    0.6540   20.1575 C   0  0  0  0  0  0  0  0  0  0  0  0
    5.0342    0.6422   21.1667 H   0  0  0  0  0  0  0  0  0  0  0  0
    7.7564    2.3005   21.9177 C   0  0  0  0  0  0  0  0  0  0  0  0
    8.3853    2.0325   21.0665 H   0  0  0  0  0  0  0  0  0  0  0  0
    6.8493    2.7768   21.5206 H   0  0  0  0  0  0  0  0  0  0  0  0
    8.4933    3.3195   22.8031 C   0  0  0  0  0  0  0  0  0  0  0  0
    9.4833    2.9086   23.0480 H   0  0  0  0  0  0  0  0  0  0  0  0
    8.6486    4.2364   22.2198 H   0  0  0  0  0  0  0  0  0  0  0  0
    9.3217    5.3599   24.6593 C   0  0  0  0  0  0  0  0  0  0  0  0
   10.0493    4.9410   23.9773 H   0  0  0  0  0  0  0  0  0  0  0  0
    9.5837    6.4867   25.4234 C   0  0  0  0  0  0  0  0  0  0  0  0
   10.5512    6.9837   25.3520 H   0  0  0  0  0  0  0  0  0  0  0  0
    8.5785    6.9713   26.2674 C   0  0  0  0  0  0  0  0  0  0  0  0
    8.7174    7.8566   26.8724 H   0  0  0  0  0  0  0  0  0  0  0  0
  1  2  1  0
  2  3  2  0
  3  4  1  0
  4  5  1  0
  5  6  1  0
  6  7  1  0
  6  8  1  0
  6  9  1  0
  9 10  1  0
  9 11  1  0
  9 12  1  0
 12 13  1  0
 13 14  2  0
 14 15  1  0
 14 16  1  0
 16 17  1  0
 17 18  2  0
 17 19  1  0
 19 20  1  0
 20 21  2  0
 21 22  1  0
 21 23  1  0
 23 24  2  0
 24 25  1  0
 24 26  1  0
 26 27  1  0
 26 28  2  0
 28 29  1  0
 12 30  1  0
 30 31  1  0
 30 32  1  0
 30 33  1  0
 33 34  1  0
 33 35  1  0
  4 36  2  0
 36 37  1  0
 36 38  1  0
 38 39  1  0
 38 40  2  0
 40 41  1  0
 40  2  1  0
 33  5  1  0
 19 13  1  0
 28 20  1  0
M  END
>  <cnnaffinity>  (1) 
-5.28411

>  <filename>  (1) 
O=c1occ(N2CCN(c3ccccn3)CC2)n1-c1cccnc1

$$$$
