
     RDKit          3D

 29 31  0  0  0  0  0  0  0  0999 V2000
    5.4590   -2.8166   23.4698 H   0  0  0  0  0  0  0  0  0  0  0  0
    6.5377   -2.7145   23.5805 C   0  0  0  0  0  0  0  0  0  0  0  0
    7.1164   -3.4272   24.5803 C   0  0  0  0  0  0  0  0  0  0  0  0
    8.7829   -3.2685   25.1333 S   0  0  0  0  0  0  0  0  0  0  0  0
    8.6343   -4.6125   26.2271 C   0  0  0  0  0  0  0  0  0  0  0  0
    9.8061   -5.1790   27.2115 S   0  0  0  0  0  0  0  0  0  0  0  0
    7.3859   -5.1376   26.1413 N   0  0  0  0  0  0  0  0  0  0  0  0
    7.1378   -5.9537   26.6740 H   0  0  0  0  0  0  0  0  0  0  0  0
    6.4423   -4.5369   25.3329 C   0  0  0  0  0  0  0  0  0  0  0  0
    5.2930   -4.9019   25.2857 O   0  0  0  0  0  0  0  0  0  0  0  0
    7.2054   -1.8429   22.6039 C   0  0  0  0  0  0  0  0  0  0  0  0
    8.5336   -1.6585   22.7323 N   0  0  0  0  0  0  0  0  0  0  0  0
    9.1627   -0.9387   21.8018 C   0  0  0  0  0  0  0  0  0  0  0  0
   10.2345   -0.8155   21.9334 H   0  0  0  0  0  0  0  0  0  0  0  0
    8.5300   -0.3708   20.7010 C   0  0  0  0  0  0  0  0  0  0  0  0
    9.0942    0.1772   19.9529 H   0  0  0  0  0  0  0  0  0  0  0  0
    7.1370   -0.4939   20.5859 C   0  0  0  0  0  0  0  0  0  0  0  0
    6.4548    0.2188   19.4691 C   0  0  0  0  0  0  0  0  0  0  0  0
    7.0489    0.1908   18.1957 C   0  0  0  0  0  0  0  0  0  0  0  0
    7.9667   -0.3741   18.0398 H   0  0  0  0  0  0  0  0  0  0  0  0
    6.5788    0.8228   17.1174 N   0  0  0  0  0  0  0  0  0  0  0  0
    5.4726    1.5660   17.2761 C   0  0  0  0  0  0  0  0  0  0  0  0
    5.1203    2.0915   16.3891 H   0  0  0  0  0  0  0  0  0  0  0  0
    4.8102    1.6978   18.5021 C   0  0  0  0  0  0  0  0  0  0  0  0
    3.9494    2.3555   18.5744 H   0  0  0  0  0  0  0  0  0  0  0  0
    5.3017    1.0083   19.6170 C   0  0  0  0  0  0  0  0  0  0  0  0
    4.8179    1.0874   20.5938 H   0  0  0  0  0  0  0  0  0  0  0  0
    6.4655   -1.2563   21.5451 C   0  0  0  0  0  0  0  0  0  0  0  0
    5.3935   -1.4167   21.4702 H   0  0  0  0  0  0  0  0  0  0  0  0
  1  2  1  0
  2  3  2  3
  3  4  1  0
  4  5  1  0
  5  6  2  0
  5  7  1  0
  7  8  1  0
  7  9  1  0
  9 10  2  0
  2 11  1  0
 11 12  2  0
 12 13  1  0
 13 14  1  0
 13 15  2  0
 15 16  1  0
 15 17  1  0
 17 18  1  0
 18 19  2  0
 19 20  1  0
 19 21  1  0
 21 22  2  0
 22 23  1  0
 22 24  1  0
 24 25  1  0
 24 26  2  0
 26 27  1  0
 17 28  2  0
 28 29  1  0
  9  3  1  0
 28 11  1  0
 26 18  1  0
M  END
>  <cnnaffinity>  (1) 
-5.2606

>  <filename>  (1) 
O=C1NC(=S)SC1=Cc1cc(-c2cccnc2)ccn1

$$$$
