
     RDKit          3D

 35 37  0  0  0  0  0  0  0  0999 V2000
    9.3986    0.4916   20.6238 O   0  0  0  0  0  0  0  0  0  0  0  0
    8.7524   -0.3735   21.1848 C   0  0  0  0  0  0  0  0  0  0  0  0
    9.4453   -1.2954   22.2319 C   0  0  0  0  0  0  0  0  0  0  0  0
    8.5860   -2.1618   23.0869 N   0  0  0  0  0  0  0  0  0  0  0  0
    9.0569   -2.9621   24.0724 C   0  0  0  0  0  0  0  0  0  0  0  0
   10.3848   -3.3771   23.9896 N   0  0  0  0  0  0  0  0  0  0  0  0
   10.8669   -4.1825   24.9819 C   0  0  0  0  0  0  0  0  0  0  0  0
   10.1051   -4.4786   26.0891 C   0  0  0  0  0  0  0  0  0  0  0  0
   10.7610   -5.1791   27.5382 Cl  0  0  0  0  0  0  0  0  0  0  0  0
    8.7246   -4.1716   25.9982 C   0  0  0  0  0  0  0  0  0  0  0  0
    7.6628   -4.7432   26.9947 C   0  0  0  0  0  0  0  0  0  0  0  0
    6.4170   -4.3365   26.7070 F   0  0  0  0  0  0  0  0  0  0  0  0
    7.6578   -6.0911   26.9896 F   0  0  0  0  0  0  0  0  0  0  0  0
    7.9077   -4.3670   28.2558 F   0  0  0  0  0  0  0  0  0  0  0  0
    8.2670   -3.3794   25.0183 N   0  0  0  0  0  0  0  0  0  0  0  0
   11.0241   -3.1554   23.2038 H   0  0  0  0  0  0  0  0  0  0  0  0
    7.1339   -1.9016   23.0175 C   0  0  0  0  0  0  0  0  0  0  0  0
    6.7406   -1.7872   21.5483 C   0  0  0  0  0  0  0  0  0  0  0  0
    7.4147   -0.6426   20.9123 N   0  0  0  0  0  0  0  0  0  0  0  0
    6.7217    0.0367   19.8615 C   0  0  0  0  0  0  0  0  0  0  0  0
    5.4958    0.6568   20.1307 C   0  0  0  0  0  0  0  0  0  0  0  0
    4.8324    1.3128   19.0901 C   0  0  0  0  0  0  0  0  0  0  0  0
    5.4051    1.2934   17.8124 C   0  0  0  0  0  0  0  0  0  0  0  0
    6.5617    0.6714   17.5302 N   0  0  0  0  0  0  0  0  0  0  0  0
    7.2060    0.0703   18.5365 C   0  0  0  0  0  0  0  0  0  0  0  0
    8.1478   -0.4212   18.2989 H   0  0  0  0  0  0  0  0  0  0  0  0
    4.9166    1.7881   16.9779 H   0  0  0  0  0  0  0  0  0  0  0  0
    3.8922    1.8279   19.2530 H   0  0  0  0  0  0  0  0  0  0  0  0
    5.1010    0.6305   21.1480 H   0  0  0  0  0  0  0  0  0  0  0  0
    5.6560   -1.6765   21.4561 H   0  0  0  0  0  0  0  0  0  0  0  0
    7.0105   -2.7247   21.0415 H   0  0  0  0  0  0  0  0  0  0  0  0
    6.8767   -0.9766   23.5539 H   0  0  0  0  0  0  0  0  0  0  0  0
    6.5750   -2.7170   23.4858 H   0  0  0  0  0  0  0  0  0  0  0  0
   10.0583   -0.6066   22.8247 H   0  0  0  0  0  0  0  0  0  0  0  0
   10.1299   -1.8850   21.6054 H   0  0  0  0  0  0  0  0  0  0  0  0
  1  2  2  0
  2  3  1  0
  3  4  1  0
  4  5  1  0
  5  6  2  0
  6  7  1  0
  7  8  2  0
  8  9  1  0
  8 10  1  0
 10 11  1  0
 11 12  1  0
 11 13  1  0
 11 14  1  0
 10 15  2  0
  7 16  1  0
  4 17  1  0
 17 18  1  0
 18 19  1  0
 19 20  1  0
 20 21  2  0
 21 22  1  0
 22 23  2  0
 23 24  1  0
 24 25  2  0
 25 26  1  0
 23 27  1  0
 22 28  1  0
 21 29  1  0
 18 30  1  0
 18 31  1  0
 17 32  1  0
 17 33  1  0
  3 34  1  0
  3 35  1  0
 19  2  1  0
 25 20  1  0
 15  5  1  0
M  END
>  <cnnaffinity>  (1) 
-5.01231

>  <filename>  (1) 
O=C1CN(c2ncc(Cl)c(C(F)(F)F)n2)CCN1c1cccnc1

$$$$
