
     RDKit          3D

 30 32  0  0  0  0  0  0  0  0999 V2000
    6.7889   -2.9423   24.6016 H   0  0  0  0  0  0  0  0  0  0  0  0
    6.7167   -3.1752   23.5302 C   0  0  0  0  0  0  0  0  0  0  0  0
    6.1278   -4.3162   23.1498 C   0  0  0  0  0  0  0  0  0  0  0  0
    5.3468   -5.3209   24.3803 S   0  0  0  0  0  0  0  0  0  0  0  0
    4.9569   -6.5736   23.2351 C   0  0  0  0  0  0  0  0  0  0  0  0
    4.0930   -7.8952   23.6440 S   0  0  0  0  0  0  0  0  0  0  0  0
    5.4471   -6.2375   22.0141 N   0  0  0  0  0  0  0  0  0  0  0  0
    5.3637   -6.8612   21.2253 H   0  0  0  0  0  0  0  0  0  0  0  0
    6.0726   -5.0111   21.8237 C   0  0  0  0  0  0  0  0  0  0  0  0
    6.4594   -4.6662   20.7343 O   0  0  0  0  0  0  0  0  0  0  0  0
    7.3986   -2.2995   22.6523 N   0  0  0  0  0  0  0  0  0  0  0  0
    6.7546   -1.5953   21.6364 C   0  0  0  0  0  0  0  0  0  0  0  0
    5.6982   -1.8381   21.5192 H   0  0  0  0  0  0  0  0  0  0  0  0
    7.4046   -0.6884   20.8622 C   0  0  0  0  0  0  0  0  0  0  0  0
    6.6878    0.0481   19.7795 C   0  0  0  0  0  0  0  0  0  0  0  0
    7.1824    0.1308   18.4568 C   0  0  0  0  0  0  0  0  0  0  0  0
    8.1333   -0.3480   18.2271 H   0  0  0  0  0  0  0  0  0  0  0  0
    6.5604    0.7572   17.4496 N   0  0  0  0  0  0  0  0  0  0  0  0
    5.3939    1.3581   17.7313 C   0  0  0  0  0  0  0  0  0  0  0  0
    4.9077    1.8614   16.8997 H   0  0  0  0  0  0  0  0  0  0  0  0
    4.8037    1.3486   18.9997 C   0  0  0  0  0  0  0  0  0  0  0  0
    3.8601    1.8590   19.1635 H   0  0  0  0  0  0  0  0  0  0  0  0
    5.4584    0.6788   20.0352 C   0  0  0  0  0  0  0  0  0  0  0  0
    5.0485    0.6649   21.0454 H   0  0  0  0  0  0  0  0  0  0  0  0
    8.8466   -0.4335   21.1498 C   0  0  0  0  0  0  0  0  0  0  0  0
    9.6088    0.3260   20.5939 O   0  0  0  0  0  0  0  0  0  0  0  0
    9.3632   -1.1578   22.1971 N   0  0  0  0  0  0  0  0  0  0  0  0
   10.3094   -0.9611   22.4533 H   0  0  0  0  0  0  0  0  0  0  0  0
    8.7337   -2.0200   23.0142 C   0  0  0  0  0  0  0  0  0  0  0  0
    9.2995   -2.4999   23.9649 O   0  0  0  0  0  0  0  0  0  0  0  0
  1  2  1  0
  2  3  2  3
  3  4  1  0
  4  5  1  0
  5  6  2  0
  5  7  1  0
  7  8  1  0
  7  9  1  0
  9 10  2  0
  2 11  1  0
 11 12  1  0
 12 13  1  0
 12 14  2  0
 14 15  1  0
 15 16  2  0
 16 17  1  0
 16 18  1  0
 18 19  2  0
 19 20  1  0
 19 21  1  0
 21 22  1  0
 21 23  2  0
 23 24  1  0
 14 25  1  0
 25 26  2  0
 25 27  1  0
 27 28  1  0
 27 29  1  0
 29 30  2  0
  9  3  1  0
 29 11  1  0
 23 15  1  0
M  END
>  <cnnaffinity>  (1) 
-5.0927

>  <filename>  (1) 
O=C1NC(=S)SC1=Cn1cc(-c2cccnc2)c(=O)[nH]c1=O

$$$$
