
     RDKit          3D

 34 36  0  0  0  0  0  0  0  0999 V2000
    4.9691    1.8097   17.0676 H   0  0  0  0  0  0  0  0  0  0  0  0
    5.4625    1.2576   17.8660 C   0  0  0  0  0  0  0  0  0  0  0  0
    6.6202    0.6585   17.5391 N   0  0  0  0  0  0  0  0  0  0  0  0
    7.2706    0.0008   18.5075 C   0  0  0  0  0  0  0  0  0  0  0  0
    8.2111   -0.4704   18.2387 H   0  0  0  0  0  0  0  0  0  0  0  0
    6.7994   -0.1200   19.8398 C   0  0  0  0  0  0  0  0  0  0  0  0
    7.5357   -0.8189   20.8202 N   0  0  0  0  0  0  0  0  0  0  0  0
    8.8974   -0.9188   21.0924 C   0  0  0  0  0  0  0  0  0  0  0  0
    9.8641   -0.6105   20.4485 O   0  0  0  0  0  0  0  0  0  0  0  0
    8.6239   -1.4372   22.5019 C   0  0  0  0  0  0  0  0  0  0  0  0
    9.0062   -0.7599   23.2663 H   0  0  0  0  0  0  0  0  0  0  0  0
    8.9657   -2.4588   22.6847 H   0  0  0  0  0  0  0  0  0  0  0  0
    7.1182   -1.2576   22.1663 C   0  0  2  0  0  0  0  0  0  0  0  0
    6.6488   -0.4466   22.7531 H   0  0  0  0  0  0  0  0  0  0  0  0
    6.1720   -2.4777   22.1392 C   0  0  0  0  0  0  0  0  0  0  0  0
    5.3248   -2.2127   21.4946 H   0  0  0  0  0  0  0  0  0  0  0  0
    6.6784   -3.3096   21.6357 H   0  0  0  0  0  0  0  0  0  0  0  0
    5.6653   -2.9321   23.4295 N   0  0  0  0  0  0  0  0  0  0  0  0
    5.2632   -2.1875   23.9880 H   0  0  0  0  0  0  0  0  0  0  0  0
    6.4134   -3.8123   24.2148 C   0  0  0  0  0  0  0  0  0  0  0  0
    7.0236   -4.9377   23.6412 C   0  0  0  0  0  0  0  0  0  0  0  0
    6.8447   -5.1426   22.5909 H   0  0  0  0  0  0  0  0  0  0  0  0
    7.8038   -5.7926   24.4167 C   0  0  0  0  0  0  0  0  0  0  0  0
    8.2904   -6.6338   23.9297 H   0  0  0  0  0  0  0  0  0  0  0  0
    7.9561   -5.5657   25.7893 C   0  0  0  0  0  0  0  0  0  0  0  0
    8.5656   -6.2382   26.3887 H   0  0  0  0  0  0  0  0  0  0  0  0
    7.2975   -4.4809   26.3782 C   0  0  0  0  0  0  0  0  0  0  0  0
    7.3867   -4.3100   27.4499 H   0  0  0  0  0  0  0  0  0  0  0  0
    6.5308   -3.6086   25.6013 C   0  0  0  0  0  0  0  0  0  0  0  0
    6.0338   -2.7554   26.0550 H   0  0  0  0  0  0  0  0  0  0  0  0
    5.5701    0.4797   20.1533 C   0  0  0  0  0  0  0  0  0  0  0  0
    5.1654    0.4008   21.1630 H   0  0  0  0  0  0  0  0  0  0  0  0
    4.9038    1.1936   19.1481 C   0  0  0  0  0  0  0  0  0  0  0  0
    3.9706    1.7087   19.3488 H   0  0  0  0  0  0  0  0  0  0  0  0
  1  2  1  0
  2  3  2  0
  3  4  1  0
  4  5  1  0
  4  6  2  0
  6  7  1  0
  7  8  1  0
  8  9  2  0
  8 10  1  0
 10 11  1  0
 10 12  1  0
 10 13  1  0
 13 14  1  1
 13 15  1  0
 15 16  1  0
 15 17  1  0
 15 18  1  0
 18 19  1  0
 18 20  1  0
 20 21  2  0
 21 22  1  0
 21 23  1  0
 23 24  1  0
 23 25  2  0
 25 26  1  0
 25 27  1  0
 27 28  1  0
 27 29  2  0
 29 30  1  0
  6 31  1  0
 31 32  1  0
 31 33  2  0
 33 34  1  0
 33  2  1  0
 13  7  1  0
 29 20  1  0
M  END
>  <cnnaffinity>  (1) 
-4.56335

>  <filename>  (1) 
O=C1C[C@H](CNc2ccccc2)N1c1cccnc1

$$$$
