
     RDKit          3D

 29 31  0  0  0  0  0  0  0  0999 V2000
    4.8606    1.8418   16.9149 H   0  0  0  0  0  0  0  0  0  0  0  0
    5.3227    1.3578   17.7658 C   0  0  0  0  0  0  0  0  0  0  0  0
    6.4941    0.7605   17.4765 N   0  0  0  0  0  0  0  0  0  0  0  0
    7.1376    0.2331   18.5170 C   0  0  0  0  0  0  0  0  0  0  0  0
    8.0584   -0.2846   18.2337 H   0  0  0  0  0  0  0  0  0  0  0  0
    6.6503    0.2372   19.8746 C   0  0  0  0  0  0  0  0  0  0  0  0
    7.3325   -0.6836   20.8819 N   0  0  0  0  0  0  0  0  0  0  0  0
    7.5823   -0.4140   22.2952 C   0  0  0  0  0  0  0  0  0  0  0  0
    7.1061    0.7698   22.7051 O   0  0  0  0  0  0  0  0  0  0  0  0
    7.0153    1.1736   24.0659 C   0  0  0  0  0  0  0  0  0  0  0  0
    7.1210    2.5378   24.4039 C   0  0  0  0  0  0  0  0  0  0  0  0
    7.2814    3.3104   23.6536 H   0  0  0  0  0  0  0  0  0  0  0  0
    7.0119    2.9343   25.7613 C   0  0  0  0  0  0  0  0  0  0  0  0
    7.1121    3.9830   26.0573 H   0  0  0  0  0  0  0  0  0  0  0  0
    6.7743    2.0013   26.7797 C   0  0  0  0  0  0  0  0  0  0  0  0
    6.7061    2.2613   27.8384 H   0  0  0  0  0  0  0  0  0  0  0  0
    6.6103    0.6734   26.3976 C   0  0  0  0  0  0  0  0  0  0  0  0
    6.3340   -0.5370   27.6123 Cl  0  0  0  0  0  0  0  0  0  0  0  0
    6.6899    0.2552   25.0657 C   0  0  0  0  0  0  0  0  0  0  0  0
    6.6028   -0.7841   24.7994 H   0  0  0  0  0  0  0  0  0  0  0  0
    8.3574   -1.2151   23.1167 N   0  0  0  0  0  0  0  0  0  0  0  0
    8.8926   -2.3119   23.2157 N   0  0  0  0  0  0  0  0  0  0  0  0
    9.1771   -3.0699   22.5809 H   0  0  0  0  0  0  0  0  0  0  0  0
    7.8338   -2.0379   20.5065 C   0  0  0  0  0  0  0  0  0  0  0  0
    7.8338   -2.0377   20.5065 O   0  0  0  0  0  0  0  0  0  0  0  0
    5.3968    0.7780   20.1327 C   0  0  0  0  0  0  0  0  0  0  0  0
    4.9837    0.6674   21.1532 H   0  0  0  0  0  0  0  0  0  0  0  0
    4.7267    1.3726   19.0478 C   0  0  0  0  0  0  0  0  0  0  0  0
    3.7830    1.8904   19.1986 H   0  0  0  0  0  0  0  0  0  0  0  0
  1  2  1  0
  2  3  2  0
  3  4  1  0
  4  5  1  0
  4  6  2  0
  6  7  1  0
  7  8  1  0
  8  9  1  0
  9 10  1  0
 10 11  2  0
 11 12  1  0
 11 13  1  0
 13 14  1  0
 13 15  2  0
 15 16  1  0
 15 17  1  0
 17 18  1  0
 17 19  2  0
 19 20  1  0
  8 21  2  0
 21 22  1  0
 22 23  1  0
 22 24  1  0
 24 25  2  0
  6 26  1  0
 26 27  1  0
 26 28  2  0
 28 29  1  0
 28  2  1  0
 24  7  1  0
 19 10  1  0
M  END
>  <cnnaffinity>  (1) 
-4.61854

>  <filename>  (1) 
O=c1[nH]nc(Oc2cccc(Cl)c2)n1-c1cccnc1

$$$$
