
     RDKit          3D

 31 34  0  0  0  0  0  0  0  0999 V2000
    5.9470   -2.9698   24.3024 H   0  0  0  0  0  0  0  0  0  0  0  0
    6.9785   -3.1522   24.6118 C   0  0  0  0  0  0  0  0  0  0  0  0
    7.1757   -3.7054   25.8182 C   0  0  0  0  0  0  0  0  0  0  0  0
    5.8336   -4.3871   26.7694 S   0  0  0  0  0  0  0  0  0  0  0  0
    6.9125   -4.7094   28.1596 C   0  0  0  0  0  0  0  0  0  0  0  0
    6.6197   -5.1748   29.2245 O   0  0  0  0  0  0  0  0  0  0  0  0
    8.1728   -4.3105   27.8315 N   0  0  0  0  0  0  0  0  0  0  0  0
    8.8716   -4.2963   28.5459 H   0  0  0  0  0  0  0  0  0  0  0  0
    8.4117   -3.6784   26.6482 C   0  0  0  0  0  0  0  0  0  0  0  0
    9.4874   -3.1779   26.4157 O   0  0  0  0  0  0  0  0  0  0  0  0
    7.9632   -2.7430   23.7154 N   0  0  0  0  0  0  0  0  0  0  0  0
    9.2577   -3.2603   23.5142 C   0  0  0  0  0  0  0  0  0  0  0  0
    9.7011   -3.9058   24.2551 H   0  0  0  0  0  0  0  0  0  0  0  0
    9.7558   -2.7530   22.3578 C   0  0  0  0  0  0  0  0  0  0  0  0
   10.7196   -2.7956   21.8834 H   0  0  0  0  0  0  0  0  0  0  0  0
    8.7573   -1.9533   21.8193 N   0  0  0  0  0  0  0  0  0  0  0  0
    8.5879   -1.2435   20.6826 N   0  0  0  0  0  0  0  0  0  0  0  0
    7.3830   -0.6726   20.8634 C   0  0  0  0  0  0  0  0  0  0  0  0
    6.7290    0.1209   19.8004 C   0  0  0  0  0  0  0  0  0  0  0  0
    7.2571    0.1596   18.4963 C   0  0  0  0  0  0  0  0  0  0  0  0
    8.2026   -0.3299   18.2731 H   0  0  0  0  0  0  0  0  0  0  0  0
    6.6451    0.7499   17.4643 N   0  0  0  0  0  0  0  0  0  0  0  0
    5.4679    1.3494   17.6979 C   0  0  0  0  0  0  0  0  0  0  0  0
    4.9750    1.7990   16.8392 H   0  0  0  0  0  0  0  0  0  0  0  0
    4.8637    1.3936   18.9573 C   0  0  0  0  0  0  0  0  0  0  0  0
    3.9114    1.8954   19.0867 H   0  0  0  0  0  0  0  0  0  0  0  0
    5.5102    0.7827   20.0268 C   0  0  0  0  0  0  0  0  0  0  0  0
    5.0780    0.8172   21.0263 H   0  0  0  0  0  0  0  0  0  0  0  0
    6.8143   -0.9846   22.1251 C   0  0  0  0  0  0  0  0  0  0  0  0
    5.9798   -0.5310   22.6222 H   0  0  0  0  0  0  0  0  0  0  0  0
    7.7062   -1.8833   22.6615 C   0  0  0  0  0  0  0  0  0  0  0  0
  1  2  1  0
  2  3  2  3
  3  4  1  0
  4  5  1  0
  5  6  2  0
  5  7  1  0
  7  8  1  0
  7  9  1  0
  9 10  2  0
  2 11  1  0
 11 12  1  0
 12 13  1  0
 12 14  2  0
 14 15  1  0
 14 16  1  0
 16 17  1  0
 17 18  2  0
 18 19  1  0
 19 20  2  0
 20 21  1  0
 20 22  1  0
 22 23  2  0
 23 24  1  0
 23 25  1  0
 25 26  1  0
 25 27  2  0
 27 28  1  0
 18 29  1  0
 29 30  1  0
 29 31  2  0
  9  3  1  0
 31 11  1  0
 31 16  1  0
 27 19  1  0
M  END
>  <cnnaffinity>  (1) 
-5.29446

>  <filename>  (1) 
O=C1NC(=O)C(=Cn2ccn3nc(-c4cccnc4)cc23)S1

$$$$
