
     RDKit          3D

 30 32  0  0  0  0  0  0  0  0999 V2000
    9.1260   -4.1189   27.6517 H   0  0  0  0  0  0  0  0  0  0  0  0
    9.3557   -4.0680   26.5886 C   0  0  0  0  0  0  0  0  0  0  0  0
    8.4707   -3.4387   25.8143 N   0  0  0  0  0  0  0  0  0  0  0  0
    8.7510   -3.3797   24.5045 C   0  0  0  0  0  0  0  0  0  0  0  0
    7.7504   -2.7120   23.8407 N   0  0  0  0  0  0  0  0  0  0  0  0
    7.2036   -2.3595   24.6229 H   0  0  0  0  0  0  0  0  0  0  0  0
    7.8483   -2.0300   22.5964 C   0  0  0  0  0  0  0  0  0  0  0  0
    8.9534   -1.4107   22.1238 C   0  0  0  0  0  0  0  0  0  0  0  0
    9.9110   -1.3914   22.6197 H   0  0  0  0  0  0  0  0  0  0  0  0
    8.7448   -0.7471   20.9032 N   0  0  0  0  0  0  0  0  0  0  0  0
    9.0847    0.2165   20.8676 H   0  0  0  0  0  0  0  0  0  0  0  0
    7.3470   -0.8030   20.7435 N   0  0  0  0  0  0  0  0  0  0  0  0
    6.7085   -0.0208   19.7560 C   0  0  0  0  0  0  0  0  0  0  0  0
    7.2478    0.1023   18.4617 C   0  0  0  0  0  0  0  0  0  0  0  0
    8.2011   -0.3698   18.2321 H   0  0  0  0  0  0  0  0  0  0  0  0
    6.6323    0.7536   17.4704 N   0  0  0  0  0  0  0  0  0  0  0  0
    5.4559    1.3439   17.7450 C   0  0  0  0  0  0  0  0  0  0  0  0
    4.9786    1.8642   16.9196 H   0  0  0  0  0  0  0  0  0  0  0  0
    4.8567    1.3147   19.0088 C   0  0  0  0  0  0  0  0  0  0  0  0
    3.9202    1.8384   19.1761 H   0  0  0  0  0  0  0  0  0  0  0  0
    5.4932    0.6194   20.0381 C   0  0  0  0  0  0  0  0  0  0  0  0
    5.0724    0.5645   21.0403 H   0  0  0  0  0  0  0  0  0  0  0  0
    6.7481   -1.7379   21.6112 C   0  0  0  0  0  0  0  0  0  0  0  0
    5.6114   -2.1569   21.4983 O   0  0  0  0  0  0  0  0  0  0  0  0
    9.8783   -3.9433   23.8991 C   0  0  0  0  0  0  0  0  0  0  0  0
    9.9926   -3.8289   22.8255 H   0  0  0  0  0  0  0  0  0  0  0  0
   10.7869   -4.5920   24.7353 C   0  0  0  0  0  0  0  0  0  0  0  0
   11.6979   -5.0369   24.3451 H   0  0  0  0  0  0  0  0  0  0  0  0
   10.5299   -4.6482   26.1081 C   0  0  0  0  0  0  0  0  0  0  0  0
   11.2220   -5.0964   26.8073 H   0  0  0  0  0  0  0  0  0  0  0  0
  1  2  1  0
  2  3  2  0
  3  4  1  0
  4  5  1  0
  5  6  1  0
  5  7  1  0
  7  8  2  0
  8  9  1  0
  8 10  1  0
 10 11  1  0
 10 12  1  0
 12 13  1  0
 13 14  2  0
 14 15  1  0
 14 16  1  0
 16 17  2  0
 17 18  1  0
 17 19  1  0
 19 20  1  0
 19 21  2  0
 21 22  1  0
 12 23  1  0
 23 24  2  0
  4 25  2  0
 25 26  1  0
 25 27  1  0
 27 28  1  0
 27 29  2  0
 29 30  1  0
 29  2  1  0
 23  7  1  0
 21 13  1  0
M  END
>  <cnnaffinity>  (1) 
-4.86518

>  <filename>  (1) 
O=c1c(Nc2ccccn2)c[nH]n1-c1cccnc1

$$$$
