
     RDKit          3D

 35 37  0  0  0  0  0  0  0  0999 V2000
    5.5724    1.9661   16.8594 H   0  0  0  0  0  0  0  0  0  0  0  0
    5.9040    1.3732   17.7112 C   0  0  0  0  0  0  0  0  0  0  0  0
    7.1389    0.8591   17.6134 N   0  0  0  0  0  0  0  0  0  0  0  0
    7.5867    0.1538   18.6550 C   0  0  0  0  0  0  0  0  0  0  0  0
    8.6121   -0.2015   18.5982 H   0  0  0  0  0  0  0  0  0  0  0  0
    6.8198   -0.1369   19.7968 C   0  0  0  0  0  0  0  0  0  0  0  0
    7.4672   -0.9394   20.8808 C   0  0  0  0  0  0  0  0  0  0  0  0
    8.6985   -0.5952   21.1650 N   0  0  0  0  0  0  0  0  0  0  0  0
    9.2086   -0.9649   22.3614 N   0  0  0  0  0  0  0  0  0  0  0  0
   10.5111   -0.5528   22.6629 N   0  0  0  0  0  0  0  0  0  0  0  0
   10.7666    0.8037   22.0901 C   0  0  0  0  0  0  0  0  0  0  0  0
   10.8545    0.7470   20.9975 H   0  0  0  0  0  0  0  0  0  0  0  0
    9.8756    1.3986   22.3198 H   0  0  0  0  0  0  0  0  0  0  0  0
   11.9972    1.4743   22.6673 C   0  0  0  0  0  0  0  0  0  0  0  0
   11.8091    1.9549   23.6270 H   0  0  0  0  0  0  0  0  0  0  0  0
   12.4361    2.2083   21.9923 H   0  0  0  0  0  0  0  0  0  0  0  0
   13.2747    0.3137   23.0724 S   0  0  0  0  0  0  0  0  0  0  0  0
   14.5335    0.8193   22.5526 O   0  0  0  0  0  0  0  0  0  0  0  0
   13.0943    0.0359   24.4874 O   0  0  0  0  0  0  0  0  0  0  0  0
   12.9210   -1.1506   22.1177 C   0  0  0  0  0  0  0  0  0  0  0  0
   13.6480   -1.8718   22.4741 H   0  0  0  0  0  0  0  0  0  0  0  0
   13.2051   -0.9183   21.0966 H   0  0  0  0  0  0  0  0  0  0  0  0
   11.4803   -1.6312   22.2415 C   0  0  0  0  0  0  0  0  0  0  0  0
   11.3675   -2.4339   22.9813 H   0  0  0  0  0  0  0  0  0  0  0  0
   11.1457   -2.0624   21.2859 H   0  0  0  0  0  0  0  0  0  0  0  0
    8.4916   -1.6763   23.2855 C   0  0  0  0  0  0  0  0  0  0  0  0
    8.9945   -1.6756   24.2467 H   0  0  0  0  0  0  0  0  0  0  0  0
    7.3243   -2.2513   22.9506 C   0  0  0  0  0  0  0  0  0  0  0  0
    6.7662   -2.8810   23.6246 H   0  0  0  0  0  0  0  0  0  0  0  0
    6.7772   -2.0514   21.6235 C   0  0  0  0  0  0  0  0  0  0  0  0
    5.8396   -2.7127   21.1843 O   0  0  0  0  0  0  0  0  0  0  0  0
    5.5265    0.4089   19.8870 C   0  0  0  0  0  0  0  0  0  0  0  0
    4.9015    0.2530   20.7710 H   0  0  0  0  0  0  0  0  0  0  0  0
    5.0717    1.1871   18.8198 C   0  0  0  0  0  0  0  0  0  0  0  0
    4.0961    1.6617   18.8291 H   0  0  0  0  0  0  0  0  0  0  0  0
  1  2  1  0
  2  3  2  0
  3  4  1  0
  4  5  1  0
  4  6  2  0
  6  7  1  0
  7  8  2  0
  8  9  1  0
  9 10  1  0
 10 11  1  0
 11 12  1  0
 11 13  1  0
 11 14  1  0
 14 15  1  0
 14 16  1  0
 14 17  1  0
 17 18  2  0
 17 19  2  0
 17 20  1  0
 20 21  1  0
 20 22  1  0
 20 23  1  0
 23 24  1  0
 23 25  1  0
  9 26  1  0
 26 27  1  0
 26 28  2  0
 28 29  1  0
 28 30  1  0
 30 31  2  0
  6 32  1  0
 32 33  1  0
 32 34  2  0
 34 35  1  0
 34  2  1  0
 30  7  1  0
 23 10  1  0
M  END
>  <cnnaffinity>  (1) 
-5.84111

>  <filename>  (1) 
O=c1ccn(N2CCS(=O)(=O)CC2)nc1-c1cccnc1

$$$$
