
     RDKit          3D

 37 39  0  0  0  0  0  0  0  0999 V2000
    8.8053   -1.2256   23.9191 O   0  0  0  0  0  0  0  0  0  0  0  0
    8.3616   -1.2805   22.7761 C   0  0  0  0  0  0  0  0  0  0  0  0
    8.5137   -2.2928   21.8839 O   0  0  0  0  0  0  0  0  0  0  0  0
    7.8730   -1.8851   20.6749 N   0  0  0  0  0  0  0  0  0  0  0  0
    7.3733   -0.7015   20.9090 C   0  0  0  0  0  0  0  0  0  0  0  0
    6.6533    0.0216   19.8936 C   0  0  0  0  0  0  0  0  0  0  0  0
    5.4449    0.6622   20.1686 C   0  0  0  0  0  0  0  0  0  0  0  0
    4.8189    1.3114   19.1100 C   0  0  0  0  0  0  0  0  0  0  0  0
    5.4038    1.2934   17.8369 C   0  0  0  0  0  0  0  0  0  0  0  0
    6.5703    0.6718   17.5869 N   0  0  0  0  0  0  0  0  0  0  0  0
    7.1819    0.0459   18.6009 C   0  0  0  0  0  0  0  0  0  0  0  0
    8.1295   -0.4450   18.3984 H   0  0  0  0  0  0  0  0  0  0  0  0
    4.8927    1.7874   17.0164 H   0  0  0  0  0  0  0  0  0  0  0  0
    3.8826    1.8338   19.2624 H   0  0  0  0  0  0  0  0  0  0  0  0
    5.0018    0.6385   21.1666 H   0  0  0  0  0  0  0  0  0  0  0  0
    7.6379   -0.2713   22.1940 N   0  0  0  0  0  0  0  0  0  0  0  0
    7.3614    1.0401   22.7829 C   0  0  0  0  0  0  0  0  0  0  0  0
    6.2851    0.9196   23.8649 C   0  0  0  0  0  0  0  0  0  0  0  0
    5.8816    2.2663   24.4031 C   0  0  0  0  0  0  0  0  0  0  0  0
    5.1295    3.1366   23.6468 C   0  0  0  0  0  0  0  0  0  0  0  0
    4.6989    4.4602   24.1101 C   0  0  0  0  0  0  0  0  0  0  0  0
    5.3168    5.1288   25.1833 C   0  0  0  0  0  0  0  0  0  0  0  0
    4.8666    6.3944   25.5834 C   0  0  0  0  0  0  0  0  0  0  0  0
    3.7988    7.0067   24.9199 C   0  0  0  0  0  0  0  0  0  0  0  0
    3.1848    8.7336   25.4644 Br  0  0  0  0  0  0  0  0  0  0  0  0
    3.1871    6.3494   23.8496 C   0  0  0  0  0  0  0  0  0  0  0  0
    3.6369    5.0881   23.4459 C   0  0  0  0  0  0  0  0  0  0  0  0
    3.1546    4.5888   22.6110 H   0  0  0  0  0  0  0  0  0  0  0  0
    2.3629    6.8219   23.3256 H   0  0  0  0  0  0  0  0  0  0  0  0
    5.3489    6.9107   26.4071 H   0  0  0  0  0  0  0  0  0  0  0  0
    6.1597    4.6812   25.7013 H   0  0  0  0  0  0  0  0  0  0  0  0
    4.8243    2.8185   22.6534 H   0  0  0  0  0  0  0  0  0  0  0  0
    6.1587    2.5337   25.4189 H   0  0  0  0  0  0  0  0  0  0  0  0
    6.6539    0.2981   24.6850 H   0  0  0  0  0  0  0  0  0  0  0  0
    5.4061    0.4308   23.4472 H   0  0  0  0  0  0  0  0  0  0  0  0
    7.0449    1.7591   22.0169 H   0  0  0  0  0  0  0  0  0  0  0  0
    8.2697    1.4471   23.2381 H   0  0  0  0  0  0  0  0  0  0  0  0
  1  2  2  0
  2  3  1  0
  3  4  1  0
  4  5  2  0
  5  6  1  0
  6  7  2  0
  7  8  1  0
  8  9  2  0
  9 10  1  0
 10 11  2  0
 11 12  1  0
  9 13  1  0
  8 14  1  0
  7 15  1  0
  5 16  1  0
 16 17  1  0
 17 18  1  0
 18 19  1  0
 19 20  2  3
 20 21  1  0
 21 22  2  0
 22 23  1  0
 23 24  2  0
 24 25  1  0
 24 26  1  0
 26 27  2  0
 27 28  1  0
 26 29  1  0
 23 30  1  0
 22 31  1  0
 20 32  1  0
 19 33  1  0
 18 34  1  0
 18 35  1  0
 17 36  1  0
 17 37  1  0
 16  2  1  0
 27 21  1  0
 11  6  1  0
M  END
>  <cnnaffinity>  (1) 
-5.04146

>  <filename>  (1) 
O=c1onc(-c2cccnc2)n1CCC=Cc1ccc(Br)cc1

$$$$
