
     RDKit          3D

 30 32  0  0  0  0  0  0  0  0999 V2000
    5.0582    1.8289   17.0894 H   0  0  0  0  0  0  0  0  0  0  0  0
    5.4900    1.2861   17.9277 C   0  0  0  0  0  0  0  0  0  0  0  0
    6.6661    0.6853   17.6833 N   0  0  0  0  0  0  0  0  0  0  0  0
    7.2293    0.0169   18.6922 C   0  0  0  0  0  0  0  0  0  0  0  0
    8.1825   -0.4690   18.4764 H   0  0  0  0  0  0  0  0  0  0  0  0
    6.6595   -0.1276   19.9766 C   0  0  0  0  0  0  0  0  0  0  0  0
    7.3374   -0.9008   21.0194 C   0  0  0  0  0  0  0  0  0  0  0  0
    8.6612   -1.0322   21.3676 C   0  0  0  0  0  0  0  0  0  0  0  0
   10.0323   -0.7283   20.8185 C   0  0  0  0  0  0  0  0  0  0  0  0
    9.9486   -0.3242   19.8036 H   0  0  0  0  0  0  0  0  0  0  0  0
   10.5903   -1.6646   20.7237 H   0  0  0  0  0  0  0  0  0  0  0  0
   10.8400    0.1936   21.7137 C   0  0  0  0  0  0  0  0  0  0  0  0
   11.9018   -0.3167   22.4814 C   0  0  0  0  0  0  0  0  0  0  0  0
   12.0980   -1.3857   22.4229 H   0  0  0  0  0  0  0  0  0  0  0  0
   12.6658    0.4969   23.3256 C   0  0  0  0  0  0  0  0  0  0  0  0
   13.4690    0.0699   23.9224 H   0  0  0  0  0  0  0  0  0  0  0  0
   12.3883    1.8645   23.4002 C   0  0  0  0  0  0  0  0  0  0  0  0
   12.9831    2.5190   24.0349 H   0  0  0  0  0  0  0  0  0  0  0  0
   11.3237    2.3975   22.6655 C   0  0  0  0  0  0  0  0  0  0  0  0
   11.0742    3.4535   22.7047 H   0  0  0  0  0  0  0  0  0  0  0  0
   10.5466    1.5591   21.8579 C   0  0  0  0  0  0  0  0  0  0  0  0
    9.1632    2.2670   21.0610 Cl  0  0  0  0  0  0  0  0  0  0  0  0
    8.3938   -1.8746   22.5405 C   0  0  0  0  0  0  0  0  0  0  0  0
    9.0809   -2.3341   23.4200 O   0  0  0  0  0  0  0  0  0  0  0  0
    6.8834   -1.8785   22.0783 C   0  0  0  0  0  0  0  0  0  0  0  0
    5.8907   -2.4906   22.3515 O   0  0  0  0  0  0  0  0  0  0  0  0
    5.4200    0.4998   20.2045 C   0  0  0  0  0  0  0  0  0  0  0  0
    4.9604    0.4238   21.1924 H   0  0  0  0  0  0  0  0  0  0  0  0
    4.8375    1.2264   19.1640 C   0  0  0  0  0  0  0  0  0  0  0  0
    3.9027    1.7638   19.2892 H   0  0  0  0  0  0  0  0  0  0  0  0
  1  2  1  0
  2  3  2  0
  3  4  1  0
  4  5  1  0
  4  6  2  0
  6  7  1  0
  7  8  2  0
  8  9  1  0
  9 10  1  0
  9 11  1  0
  9 12  1  0
 12 13  2  0
 13 14  1  0
 13 15  1  0
 15 16  1  0
 15 17  2  0
 17 18  1  0
 17 19  1  0
 19 20  1  0
 19 21  2  0
 21 22  1  0
  8 23  1  0
 23 24  2  0
 23 25  1  0
 25 26  2  0
  6 27  1  0
 27 28  1  0
 27 29  2  0
 29 30  1  0
 29  2  1  0
 25  7  1  0
 21 12  1  0
M  END
>  <cnnaffinity>  (1) 
-4.68327

>  <filename>  (1) 
O=c1c(Cc2ccccc2Cl)c(-c2cccnc2)c1=O

$$$$
