
     RDKit          3D

 35 38  0  0  0  0  0  0  0  0999 V2000
    4.9322    1.7985   16.7348 H   0  0  0  0  0  0  0  0  0  0  0  0
    5.3218    1.3915   17.6651 C   0  0  0  0  0  0  0  0  0  0  0  0
    6.5107    0.7789   17.5726 N   0  0  0  0  0  0  0  0  0  0  0  0
    7.0230    0.2734   18.7031 C   0  0  0  0  0  0  0  0  0  0  0  0
    7.9966   -0.1992   18.5992 H   0  0  0  0  0  0  0  0  0  0  0  0
    6.4107    0.3403   19.9726 C   0  0  0  0  0  0  0  0  0  0  0  0
    7.1141   -0.2143   21.2106 C   0  0  2  0  0  0  0  0  0  0  0  0
    6.4791   -0.0037   22.0773 H   0  0  0  0  0  0  0  0  0  0  0  0
    8.5235    0.4053   21.4312 C   0  0  0  0  0  0  0  0  0  0  0  0
    8.6276    1.3900   20.9547 H   0  0  0  0  0  0  0  0  0  0  0  0
    8.7355    0.5225   22.5103 H   0  0  0  0  0  0  0  0  0  0  0  0
    9.3994   -0.5633   20.7994 N   0  0  0  0  0  0  0  0  0  0  0  0
   10.4070   -0.5335   20.8211 H   0  0  0  0  0  0  0  0  0  0  0  0
    8.9162   -1.8339   20.8700 C   0  0  0  0  0  0  0  0  0  0  0  0
    9.6006   -2.8201   20.7548 O   0  0  0  0  0  0  0  0  0  0  0  0
    7.4119   -1.7549   21.0847 C   0  0  1  0  0  0  0  0  0  0  0  0
    6.9497   -2.1709   20.1842 H   0  0  0  0  0  0  0  0  0  0  0  0
    6.9834   -2.6686   22.2019 C   0  0  0  0  0  0  0  0  0  0  0  0
    5.9325   -3.5080   21.9109 O   0  0  0  0  0  0  0  0  0  0  0  0
    5.7319   -4.2947   23.0106 C   0  0  0  0  0  0  0  0  0  0  0  0
    4.7960   -5.3304   23.1392 C   0  0  0  0  0  0  0  0  0  0  0  0
    4.1635   -5.6279   22.3103 H   0  0  0  0  0  0  0  0  0  0  0  0
    4.7431   -5.9734   24.3769 C   0  0  0  0  0  0  0  0  0  0  0  0
    4.0228   -6.7741   24.5352 H   0  0  0  0  0  0  0  0  0  0  0  0
    5.6122   -5.6134   25.4310 C   0  0  0  0  0  0  0  0  0  0  0  0
    5.5302   -6.1249   26.3876 H   0  0  0  0  0  0  0  0  0  0  0  0
    6.5750   -4.6237   25.2558 C   0  0  0  0  0  0  0  0  0  0  0  0
    7.2752   -4.3767   26.0499 H   0  0  0  0  0  0  0  0  0  0  0  0
    6.6451   -3.9543   24.0193 C   0  0  0  0  0  0  0  0  0  0  0  0
    7.4729   -2.9170   23.4420 C   0  0  0  0  0  0  0  0  0  0  0  0
    8.3463   -2.4663   23.8916 H   0  0  0  0  0  0  0  0  0  0  0  0
    5.1589    0.9812   20.0327 C   0  0  0  0  0  0  0  0  0  0  0  0
    4.6255    1.0895   20.9816 H   0  0  0  0  0  0  0  0  0  0  0  0
    4.6037    1.5109   18.8598 C   0  0  0  0  0  0  0  0  0  0  0  0
    3.6416    2.0210   18.8527 H   0  0  0  0  0  0  0  0  0  0  0  0
  1  2  1  0
  2  3  2  0
  3  4  1  0
  4  5  1  0
  4  6  2  0
  6  7  1  0
  7  8  1  1
  7  9  1  0
  9 10  1  0
  9 11  1  0
  9 12  1  0
 12 13  1  0
 12 14  1  0
 14 15  2  0
 14 16  1  0
 16 17  1  6
 16 18  1  0
 18 19  1  0
 19 20  1  0
 20 21  2  0
 21 22  1  0
 21 23  1  0
 23 24  1  0
 23 25  2  0
 25 26  1  0
 25 27  1  0
 27 28  1  0
 27 29  2  0
 29 30  1  0
 30 31  1  0
  6 32  1  0
 32 33  1  0
 32 34  2  0
 34 35  1  0
 34  2  1  0
 16  7  1  0
 30 18  2  0
 29 20  1  0
M  END
>  <cnnaffinity>  (1) 
-5.21608

>  <filename>  (1) 
O=C1NC[C@@H](c2cccnc2)[C@@H]1c1cc2ccccc2o1

$$$$
