
     RDKit          3D

 33 35  0  0  0  0  0  0  0  0999 V2000
    9.7146    3.5741   21.0040 H   0  0  0  0  0  0  0  0  0  0  0  0
    9.1729    2.8091   21.2422 O   0  0  0  0  0  0  0  0  0  0  0  0
   10.0157    1.7706   21.5028 C   0  0  0  0  0  0  0  0  0  0  0  0
   11.3967    1.9511   21.4127 C   0  0  0  0  0  0  0  0  0  0  0  0
   11.7910    2.9069   21.0713 H   0  0  0  0  0  0  0  0  0  0  0  0
   12.2505    0.8940   21.7218 C   0  0  0  0  0  0  0  0  0  0  0  0
   13.3282    1.0389   21.7319 H   0  0  0  0  0  0  0  0  0  0  0  0
   11.7277   -0.3731   21.9863 C   0  0  0  0  0  0  0  0  0  0  0  0
   12.3848   -1.2295   22.1023 H   0  0  0  0  0  0  0  0  0  0  0  0
   10.3469   -0.5469   22.0689 C   0  0  0  0  0  0  0  0  0  0  0  0
    9.9342   -1.5269   22.3184 H   0  0  0  0  0  0  0  0  0  0  0  0
    9.4661    0.5246   21.8649 C   0  0  0  0  0  0  0  0  0  0  0  0
    7.9799    0.3130   22.0510 C   0  0  2  0  0  0  0  0  0  0  0  0
    7.4902    1.2890   21.9415 H   0  0  0  0  0  0  0  0  0  0  0  0
    7.5996   -0.2483   23.4498 C   0  0  0  0  0  0  0  0  0  0  0  0
    8.4681   -0.6117   24.0216 H   0  0  0  0  0  0  0  0  0  0  0  0
    7.1265    0.5231   24.0687 H   0  0  0  0  0  0  0  0  0  0  0  0
    6.6944   -1.3249   23.1402 N   0  0  0  0  0  0  0  0  0  0  0  0
    6.1334   -1.8664   23.7716 H   0  0  0  0  0  0  0  0  0  0  0  0
    6.5230   -1.6420   21.8414 C   0  0  0  0  0  0  0  0  0  0  0  0
    5.8252   -2.5623   21.4676 O   0  0  0  0  0  0  0  0  0  0  0  0
    7.3949   -0.6901   21.0114 C   0  0  1  0  0  0  0  0  0  0  0  0
    8.1907   -1.3164   20.5795 H   0  0  0  0  0  0  0  0  0  0  0  0
    6.6551   -0.0018   19.8768 C   0  0  0  0  0  0  0  0  0  0  0  0
    7.1724    0.0666   18.5691 C   0  0  0  0  0  0  0  0  0  0  0  0
    8.1281   -0.4077   18.3355 H   0  0  0  0  0  0  0  0  0  0  0  0
    6.5610    0.6867   17.5516 N   0  0  0  0  0  0  0  0  0  0  0  0
    5.3972    1.2982   17.8197 C   0  0  0  0  0  0  0  0  0  0  0  0
    4.9224    1.8015   16.9820 H   0  0  0  0  0  0  0  0  0  0  0  0
    4.8012    1.3109   19.0856 C   0  0  0  0  0  0  0  0  0  0  0  0
    3.8724    1.8450   19.2401 H   0  0  0  0  0  0  0  0  0  0  0  0
    5.4416    0.6466   20.1331 C   0  0  0  0  0  0  0  0  0  0  0  0
    5.0138    0.6289   21.1386 H   0  0  0  0  0  0  0  0  0  0  0  0
  1  2  1  0
  2  3  1  0
  3  4  2  0
  4  5  1  0
  4  6  1  0
  6  7  1  0
  6  8  2  0
  8  9  1  0
  8 10  1  0
 10 11  1  0
 10 12  2  0
 12 13  1  0
 13 14  1  6
 13 15  1  0
 15 16  1  0
 15 17  1  0
 15 18  1  0
 18 19  1  0
 18 20  1  0
 20 21  2  0
 20 22  1  0
 22 23  1  6
 22 24  1  0
 24 25  2  0
 25 26  1  0
 25 27  1  0
 27 28  2  0
 28 29  1  0
 28 30  1  0
 30 31  1  0
 30 32  2  0
 32 33  1  0
 12  3  1  0
 22 13  1  0
 32 24  1  0
M  END
>  <cnnaffinity>  (1) 
-5.27035

>  <filename>  (1) 
O=C1NC[C@@H](c2ccccc2O)[C@@H]1c1cccnc1

$$$$
