
     RDKit          3D

 33 35  0  0  0  0  0  0  0  0999 V2000
    4.9240    1.8097   16.9751 H   0  0  0  0  0  0  0  0  0  0  0  0
    5.3871    1.3055   17.8206 C   0  0  0  0  0  0  0  0  0  0  0  0
    6.5457    0.6809   17.5565 N   0  0  0  0  0  0  0  0  0  0  0  0
    7.1439    0.0575   18.5801 C   0  0  0  0  0  0  0  0  0  0  0  0
    8.0974   -0.4256   18.3596 H   0  0  0  0  0  0  0  0  0  0  0  0
    6.6249   -0.0115   19.8906 C   0  0  0  0  0  0  0  0  0  0  0  0
    7.3134   -0.7567   20.9443 C   0  0  0  0  0  0  0  0  0  0  0  0
    8.5927   -0.5676   21.3495 C   0  0  0  0  0  0  0  0  0  0  0  0
    9.6070    0.4091   20.8547 C   0  0  0  0  0  0  0  0  0  0  0  0
    9.1511    1.0437   20.0879 H   0  0  0  0  0  0  0  0  0  0  0  0
   10.4004   -0.1954   20.4059 H   0  0  0  0  0  0  0  0  0  0  0  0
   10.2028    1.2793   21.9392 C   0  0  0  0  0  0  0  0  0  0  0  0
   11.5044    1.0287   22.3926 C   0  0  0  0  0  0  0  0  0  0  0  0
   12.0610    0.2205   21.9206 H   0  0  0  0  0  0  0  0  0  0  0  0
   12.0680    1.7690   23.4322 C   0  0  0  0  0  0  0  0  0  0  0  0
   13.0715    1.5417   23.7797 H   0  0  0  0  0  0  0  0  0  0  0  0
   11.3254    2.7896   24.0299 C   0  0  0  0  0  0  0  0  0  0  0  0
   11.7713    3.3808   24.8207 H   0  0  0  0  0  0  0  0  0  0  0  0
   10.0248    3.0671   23.5972 C   0  0  0  0  0  0  0  0  0  0  0  0
    9.4213    3.8474   24.0517 H   0  0  0  0  0  0  0  0  0  0  0  0
    9.4781    2.3158   22.5528 C   0  0  0  0  0  0  0  0  0  0  0  0
    7.8599    2.7025   22.0257 Cl  0  0  0  0  0  0  0  0  0  0  0  0
    8.9176   -1.5615   22.3971 C   0  0  0  0  0  0  0  0  0  0  0  0
    9.9524   -1.8077   22.9936 O   0  0  0  0  0  0  0  0  0  0  0  0
    7.7703   -2.2669   22.5921 N   0  0  0  0  0  0  0  0  0  0  0  0
    7.8068   -2.9432   23.3314 H   0  0  0  0  0  0  0  0  0  0  0  0
    6.6691   -1.8403   21.7657 C   0  0  0  0  0  0  0  0  0  0  0  0
    6.2573   -2.6501   21.1478 H   0  0  0  0  0  0  0  0  0  0  0  0
    5.8521   -1.4234   22.3532 H   0  0  0  0  0  0  0  0  0  0  0  0
    5.4084    0.6453   20.1350 C   0  0  0  0  0  0  0  0  0  0  0  0
    4.9925    0.6429   21.1438 H   0  0  0  0  0  0  0  0  0  0  0  0
    4.7865    1.3215   19.0850 C   0  0  0  0  0  0  0  0  0  0  0  0
    3.8594    1.8625   19.2305 H   0  0  0  0  0  0  0  0  0  0  0  0
  1  2  1  0
  2  3  2  0
  3  4  1  0
  4  5  1  0
  4  6  2  0
  6  7  1  0
  7  8  2  0
  8  9  1  0
  9 10  1  0
  9 11  1  0
  9 12  1  0
 12 13  2  0
 13 14  1  0
 13 15  1  0
 15 16  1  0
 15 17  2  0
 17 18  1  0
 17 19  1  0
 19 20  1  0
 19 21  2  0
 21 22  1  0
  8 23  1  0
 23 24  2  0
 23 25  1  0
 25 26  1  0
 25 27  1  0
 27 28  1  0
 27 29  1  0
  6 30  1  0
 30 31  1  0
 30 32  2  0
 32 33  1  0
 32  2  1  0
 27  7  1  0
 21 12  1  0
M  END
>  <cnnaffinity>  (1) 
-5.35694

>  <filename>  (1) 
O=C1NCC(c2cccnc2)=C1Cc1ccccc1Cl

$$$$
