
     RDKit          3D

 26 27  0  0  0  0  0  0  0  0999 V2000
    9.5236    0.7250   20.2807 H   0  0  0  0  0  0  0  0  0  0  0  0
    9.3209    0.9762   21.3202 C   0  0  0  0  0  0  0  0  0  0  0  0
   10.1065    1.8830   21.9428 C   0  0  0  0  0  0  0  0  0  0  0  0
   10.0154    2.4373   23.6172 S   0  0  0  0  0  0  0  0  0  0  0  0
   11.4734    3.4866   23.4159 C   0  0  0  0  0  0  0  0  0  0  0  0
   11.9441    4.2107   24.2420 O   0  0  0  0  0  0  0  0  0  0  0  0
   11.9722    3.3236   22.1611 N   0  0  0  0  0  0  0  0  0  0  0  0
   12.6916    3.9274   21.8082 H   0  0  0  0  0  0  0  0  0  0  0  0
   11.2502    2.5925   21.2658 C   0  0  0  0  0  0  0  0  0  0  0  0
   11.5489    2.5577   20.1038 O   0  0  0  0  0  0  0  0  0  0  0  0
    8.1797    0.2212   21.9501 C   0  0  0  0  0  0  0  0  0  0  0  0
    7.3174    1.1072   22.5412 F   0  0  0  0  0  0  0  0  0  0  0  0
    8.6525   -0.5696   22.9646 F   0  0  0  0  0  0  0  0  0  0  0  0
    7.3806   -0.7113   21.0085 C   0  0  0  0  0  0  0  0  0  0  0  0
    6.6909   -1.2322   21.6861 H   0  0  0  0  0  0  0  0  0  0  0  0
    8.0882   -1.4705   20.6557 H   0  0  0  0  0  0  0  0  0  0  0  0
    6.6421   -0.0376   19.8552 C   0  0  0  0  0  0  0  0  0  0  0  0
    7.1349    0.0146   18.5345 C   0  0  0  0  0  0  0  0  0  0  0  0
    8.0821   -0.4624   18.2698 H   0  0  0  0  0  0  0  0  0  0  0  0
    6.5322    0.6585   17.5246 N   0  0  0  0  0  0  0  0  0  0  0  0
    5.3860    1.3014   17.7911 C   0  0  0  0  0  0  0  0  0  0  0  0
    4.9401    1.8512   16.9637 H   0  0  0  0  0  0  0  0  0  0  0  0
    4.7890    1.3048   19.0517 C   0  0  0  0  0  0  0  0  0  0  0  0
    3.8683    1.8562   19.2058 H   0  0  0  0  0  0  0  0  0  0  0  0
    5.4332    0.6377   20.0959 C   0  0  0  0  0  0  0  0  0  0  0  0
    5.0301    0.6783   21.1074 H   0  0  0  0  0  0  0  0  0  0  0  0
  1  2  1  0
  2  3  2  3
  3  4  1  0
  4  5  1  0
  5  6  2  0
  5  7  1  0
  7  8  1  0
  7  9  1  0
  9 10  2  0
  2 11  1  0
 11 12  1  0
 11 13  1  0
 11 14  1  0
 14 15  1  0
 14 16  1  0
 14 17  1  0
 17 18  2  0
 18 19  1  0
 18 20  1  0
 20 21  2  0
 21 22  1  0
 21 23  1  0
 23 24  1  0
 23 25  2  0
 25 26  1  0
  9  3  1  0
 25 17  1  0
M  END
>  <cnnaffinity>  (1) 
-4.97817

>  <filename>  (1) 
O=C1NC(=O)C(=CC(F)(F)Cc2cccnc2)S1

$$$$
