
     RDKit          3D

 31 33  0  0  0  0  0  0  0  0999 V2000
    4.9411    1.8526   16.9830 H   0  0  0  0  0  0  0  0  0  0  0  0
    5.4020    1.3225   17.8183 C   0  0  0  0  0  0  0  0  0  0  0  0
    6.5506    0.6801   17.5507 N   0  0  0  0  0  0  0  0  0  0  0  0
    7.1530    0.0237   18.5518 C   0  0  0  0  0  0  0  0  0  0  0  0
    8.0981   -0.4623   18.3057 H   0  0  0  0  0  0  0  0  0  0  0  0
    6.6343   -0.0573   19.8663 C   0  0  0  0  0  0  0  0  0  0  0  0
    7.2810   -0.7840   20.9289 N   0  0  0  0  0  0  0  0  0  0  0  0
    8.5609   -0.5975   21.4525 C   0  0  0  0  0  0  0  0  0  0  0  0
    9.6021    0.3367   20.9104 C   0  0  0  0  0  0  0  0  0  0  0  0
    9.2009    0.9293   20.0842 H   0  0  0  0  0  0  0  0  0  0  0  0
   10.3864   -0.2998   20.4915 H   0  0  0  0  0  0  0  0  0  0  0  0
   10.2131    1.2310   21.9742 C   0  0  0  0  0  0  0  0  0  0  0  0
   11.4623    0.9070   22.5220 C   0  0  0  0  0  0  0  0  0  0  0  0
   12.0054    0.0609   22.1097 H   0  0  0  0  0  0  0  0  0  0  0  0
   12.0325    1.6533   23.5570 C   0  0  0  0  0  0  0  0  0  0  0  0
   12.9836    1.3550   23.9894 H   0  0  0  0  0  0  0  0  0  0  0  0
   11.3542    2.7703   24.0461 C   0  0  0  0  0  0  0  0  0  0  0  0
   11.8107    3.3852   24.8130 H   0  0  0  0  0  0  0  0  0  0  0  0
   10.0913    3.0996   23.5482 C   0  0  0  0  0  0  0  0  0  0  0  0
    9.5122    3.9143   23.9701 H   0  0  0  0  0  0  0  0  0  0  0  0
    9.5414    2.3405   22.5086 C   0  0  0  0  0  0  0  0  0  0  0  0
    7.9895    2.8199   21.8767 Cl  0  0  0  0  0  0  0  0  0  0  0  0
    8.8220   -1.4268   22.4178 N   0  0  0  0  0  0  0  0  0  0  0  0
    7.6860   -2.1836   22.5254 N   0  0  0  0  0  0  0  0  0  0  0  0
    7.5565   -2.8718   23.2413 H   0  0  0  0  0  0  0  0  0  0  0  0
    6.6886   -1.8438   21.6624 C   0  0  0  0  0  0  0  0  0  0  0  0
    5.6003   -2.3723   21.5498 O   0  0  0  0  0  0  0  0  0  0  0  0
    5.4279    0.6046   20.1202 C   0  0  0  0  0  0  0  0  0  0  0  0
    5.0052    0.5540   21.1221 H   0  0  0  0  0  0  0  0  0  0  0  0
    4.8075    1.3160   19.0823 C   0  0  0  0  0  0  0  0  0  0  0  0
    3.8809    1.8607   19.2373 H   0  0  0  0  0  0  0  0  0  0  0  0
  1  2  1  0
  2  3  2  0
  3  4  1  0
  4  5  1  0
  4  6  2  0
  6  7  1  0
  7  8  1  0
  8  9  1  0
  9 10  1  0
  9 11  1  0
  9 12  1  0
 12 13  2  0
 13 14  1  0
 13 15  1  0
 15 16  1  0
 15 17  2  0
 17 18  1  0
 17 19  1  0
 19 20  1  0
 19 21  2  0
 21 22  1  0
  8 23  2  0
 23 24  1  0
 24 25  1  0
 24 26  1  0
 26 27  2  0
  6 28  1  0
 28 29  1  0
 28 30  2  0
 30 31  1  0
 30  2  1  0
 26  7  1  0
 21 12  1  0
M  END
>  <cnnaffinity>  (1) 
-5.39169

>  <filename>  (1) 
O=c1[nH]nc(Cc2ccccc2Cl)n1-c1cccnc1

$$$$
