
     RDKit          3D

 32 34  0  0  0  0  0  0  0  0999 V2000
    4.8800    1.8403   17.0149 H   0  0  0  0  0  0  0  0  0  0  0  0
    5.4099    1.3143   17.8078 C   0  0  0  0  0  0  0  0  0  0  0  0
    6.5694    0.7298   17.4610 N   0  0  0  0  0  0  0  0  0  0  0  0
    7.2522    0.0858   18.4170 C   0  0  0  0  0  0  0  0  0  0  0  0
    8.1896   -0.3810   18.1291 H   0  0  0  0  0  0  0  0  0  0  0  0
    6.8065   -0.0239   19.7554 C   0  0  0  0  0  0  0  0  0  0  0  0
    7.5132   -0.7535   20.7776 N   0  0  0  0  0  0  0  0  0  0  0  0
    8.8376   -0.5940   21.1653 C   0  0  0  0  0  0  0  0  0  0  0  0
    9.6595    0.0980   20.6285 O   0  0  0  0  0  0  0  0  0  0  0  0
    8.9832   -1.4945   22.4182 C   0  0  0  0  0  0  0  0  0  0  0  0
    9.9613   -1.8265   23.0359 O   0  0  0  0  0  0  0  0  0  0  0  0
    7.6976   -1.8936   22.7098 N   0  0  0  0  0  0  0  0  0  0  0  0
    7.3320   -2.8174   23.7857 C   0  0  0  0  0  0  0  0  0  0  0  0
    8.0868   -2.7121   24.5718 H   0  0  0  0  0  0  0  0  0  0  0  0
    6.3718   -2.5227   24.2199 H   0  0  0  0  0  0  0  0  0  0  0  0
    7.2595   -4.2528   23.2877 C   0  0  0  0  0  0  0  0  0  0  0  0
    8.4502   -4.9318   22.9647 C   0  0  0  0  0  0  0  0  0  0  0  0
    9.3943   -4.3979   23.0567 H   0  0  0  0  0  0  0  0  0  0  0  0
    8.4253   -6.2544   22.5081 C   0  0  0  0  0  0  0  0  0  0  0  0
    9.3365   -6.8119   22.3147 H   0  0  0  0  0  0  0  0  0  0  0  0
    7.2032   -6.8912   22.2930 C   0  0  0  0  0  0  0  0  0  0  0  0
    7.1788   -7.8952   21.8797 H   0  0  0  0  0  0  0  0  0  0  0  0
    6.0089   -6.2359   22.5831 C   0  0  0  0  0  0  0  0  0  0  0  0
    5.0519   -6.7201   22.4230 H   0  0  0  0  0  0  0  0  0  0  0  0
    6.0422   -4.9312   23.0860 C   0  0  0  0  0  0  0  0  0  0  0  0
    4.5082   -4.1779   23.4271 Cl  0  0  0  0  0  0  0  0  0  0  0  0
    6.8767   -1.6645   21.6229 C   0  0  0  0  0  0  0  0  0  0  0  0
    5.8259   -2.1988   21.4068 O   0  0  0  0  0  0  0  0  0  0  0  0
    5.5822    0.5627   20.0894 C   0  0  0  0  0  0  0  0  0  0  0  0
    5.1937    0.4535   21.1020 H   0  0  0  0  0  0  0  0  0  0  0  0
    4.8769    1.2598   19.1014 C   0  0  0  0  0  0  0  0  0  0  0  0
    3.9328    1.7530   19.3228 H   0  0  0  0  0  0  0  0  0  0  0  0
  1  2  1  0
  2  3  2  0
  3  4  1  0
  4  5  1  0
  4  6  2  0
  6  7  1  0
  7  8  1  0
  8  9  2  0
  8 10  1  0
 10 11  2  0
 10 12  1  0
 12 13  1  0
 13 14  1  0
 13 15  1  0
 13 16  1  0
 16 17  2  0
 17 18  1  0
 17 19  1  0
 19 20  1  0
 19 21  2  0
 21 22  1  0
 21 23  1  0
 23 24  1  0
 23 25  2  0
 25 26  1  0
 12 27  1  0
 27 28  2  0
  6 29  1  0
 29 30  1  0
 29 31  2  0
 31 32  1  0
 31  2  1  0
 27  7  1  0
 25 16  1  0
M  END
>  <cnnaffinity>  (1) 
-5.10959

>  <filename>  (1) 
O=C1C(=O)N(c2cccnc2)C(=O)N1Cc1ccccc1Cl

$$$$
