
     RDKit          3D

 40 42  0  0  0  0  0  0  0  0999 V2000
    5.0658    1.8442   17.0227 H   0  0  0  0  0  0  0  0  0  0  0  0
    5.4702    1.2809   17.8573 C   0  0  0  0  0  0  0  0  0  0  0  0
    6.6062    0.6048   17.6149 N   0  0  0  0  0  0  0  0  0  0  0  0
    7.1485   -0.0839   18.6244 C   0  0  0  0  0  0  0  0  0  0  0  0
    8.0712   -0.6280   18.4085 H   0  0  0  0  0  0  0  0  0  0  0  0
    6.5758   -0.1545   19.9178 C   0  0  0  0  0  0  0  0  0  0  0  0
    7.2006   -0.8406   21.0131 N   0  0  0  0  0  0  0  0  0  0  0  0
    6.4225   -1.6596   21.8308 C   0  0  0  0  0  0  0  0  0  0  0  0
    5.4623   -2.2790   21.4292 O   0  0  0  0  0  0  0  0  0  0  0  0
    6.8077   -1.7470   23.1583 N   0  0  0  0  0  0  0  0  0  0  0  0
    6.7181   -3.2948   23.7185 S   0  0  0  0  0  0  0  0  0  0  0  0
    7.5165   -3.2893   24.9345 O   0  0  0  0  0  0  0  0  0  0  0  0
    7.0130   -4.1887   22.6224 O   0  0  0  0  0  0  0  0  0  0  0  0
    5.0048   -3.4458   24.1770 C   0  0  0  0  0  0  0  0  0  0  0  0
    4.1062   -4.2018   23.4122 C   0  0  0  0  0  0  0  0  0  0  0  0
    4.3917   -4.6170   22.4474 H   0  0  0  0  0  0  0  0  0  0  0  0
    2.8038   -4.3899   23.8847 C   0  0  0  0  0  0  0  0  0  0  0  0
    2.0959   -5.0019   23.3346 H   0  0  0  0  0  0  0  0  0  0  0  0
    2.3906   -3.7520   25.0564 C   0  0  0  0  0  0  0  0  0  0  0  0
    0.7378   -3.8896   25.5788 Cl  0  0  0  0  0  0  0  0  0  0  0  0
    3.2858   -3.0009   25.8212 C   0  0  0  0  0  0  0  0  0  0  0  0
    2.9650   -2.5496   26.7539 H   0  0  0  0  0  0  0  0  0  0  0  0
    4.6028   -2.8686   25.3907 C   0  0  0  0  0  0  0  0  0  0  0  0
    5.3033   -2.3326   26.0296 H   0  0  0  0  0  0  0  0  0  0  0  0
    7.0632   -0.5965   24.0314 C   0  0  0  0  0  0  0  0  0  0  0  0
    6.8692   -0.8903   25.0663 H   0  0  0  0  0  0  0  0  0  0  0  0
    6.3602    0.2103   23.7815 H   0  0  0  0  0  0  0  0  0  0  0  0
    8.5001   -0.1243   23.8752 C   0  0  0  0  0  0  0  0  0  0  0  0
    9.1529   -0.9872   24.0710 H   0  0  0  0  0  0  0  0  0  0  0  0
    8.6940    0.6430   24.6364 H   0  0  0  0  0  0  0  0  0  0  0  0
    8.7970    0.4601   22.4903 C   0  0  0  0  0  0  0  0  0  0  0  0
    8.1808    1.3509   22.3108 H   0  0  0  0  0  0  0  0  0  0  0  0
    9.8363    0.8083   22.4643 H   0  0  0  0  0  0  0  0  0  0  0  0
    8.6044   -0.5251   21.3270 C   0  0  0  0  0  0  0  0  0  0  0  0
    9.1488   -1.4597   21.5205 H   0  0  0  0  0  0  0  0  0  0  0  0
    9.0467   -0.0810   20.4312 H   0  0  0  0  0  0  0  0  0  0  0  0
    5.3666    0.5197   20.1342 C   0  0  0  0  0  0  0  0  0  0  0  0
    4.8907    0.4390   21.1126 H   0  0  0  0  0  0  0  0  0  0  0  0
    4.8168    1.2648   19.0941 C   0  0  0  0  0  0  0  0  0  0  0  0
    3.8978    1.8267   19.2310 H   0  0  0  0  0  0  0  0  0  0  0  0
  1  2  1  0
  2  3  2  0
  3  4  1  0
  4  5  1  0
  4  6  2  0
  6  7  1  0
  7  8  1  0
  8  9  2  0
  8 10  1  0
 10 11  1  0
 11 12  2  0
 11 13  2  0
 11 14  1  0
 14 15  2  0
 15 16  1  0
 15 17  1  0
 17 18  1  0
 17 19  2  0
 19 20  1  0
 19 21  1  0
 21 22  1  0
 21 23  2  0
 23 24  1  0
 10 25  1  0
 25 26  1  0
 25 27  1  0
 25 28  1  0
 28 29  1  0
 28 30  1  0
 28 31  1  0
 31 32  1  0
 31 33  1  0
 31 34  1  0
 34 35  1  0
 34 36  1  0
  6 37  1  0
 37 38  1  0
 37 39  2  0
 39 40  1  0
 39  2  1  0
 34  7  1  0
 23 14  1  0
M  END
>  <cnnaffinity>  (1) 
-5.61921

>  <filename>  (1) 
O=C1N(c2cccnc2)CCCCN1S(=O)(=O)c1ccc(Cl)cc1

$$$$
