
     RDKit          3D

 35 37  0  0  0  0  0  0  0  0999 V2000
    4.8987    1.8664   16.9563 H   0  0  0  0  0  0  0  0  0  0  0  0
    5.3654    1.3302   17.7805 C   0  0  0  0  0  0  0  0  0  0  0  0
    6.5190    0.7048   17.4939 N   0  0  0  0  0  0  0  0  0  0  0  0
    7.1407    0.0702   18.4962 C   0  0  0  0  0  0  0  0  0  0  0  0
    8.0965   -0.3982   18.2646 H   0  0  0  0  0  0  0  0  0  0  0  0
    6.6325   -0.0068   19.8123 C   0  0  0  0  0  0  0  0  0  0  0  0
    7.3562   -0.6905   20.8809 N   0  0  0  0  0  0  0  0  0  0  0  0
    8.6180   -0.1945   21.3190 C   0  0  0  0  0  0  0  0  0  0  0  0
    9.1181    0.7694   20.7816 O   0  0  0  0  0  0  0  0  0  0  0  0
    9.2692   -0.9086   22.4063 C   0  0  0  0  0  0  0  0  0  0  0  0
   10.2144   -0.4900   22.7105 H   0  0  0  0  0  0  0  0  0  0  0  0
    8.7288   -1.9966   22.9881 C   0  0  0  0  0  0  0  0  0  0  0  0
    9.3463   -2.7291   24.1707 C   0  0  0  0  0  0  0  0  0  0  0  0
   10.3016   -3.1776   23.8947 H   0  0  0  0  0  0  0  0  0  0  0  0
    8.6942   -3.5403   24.5200 H   0  0  0  0  0  0  0  0  0  0  0  0
    9.7142   -1.8707   25.2482 O   0  0  0  0  0  0  0  0  0  0  0  0
    8.7494   -1.3057   26.0368 C   0  0  0  0  0  0  0  0  0  0  0  0
    7.3813   -1.5927   25.9566 C   0  0  0  0  0  0  0  0  0  0  0  0
    7.0183   -2.2983   25.2192 H   0  0  0  0  0  0  0  0  0  0  0  0
    6.4820   -0.9538   26.8196 C   0  0  0  0  0  0  0  0  0  0  0  0
    5.4216   -1.1727   26.7454 H   0  0  0  0  0  0  0  0  0  0  0  0
    6.9309   -0.0430   27.7739 C   0  0  0  0  0  0  0  0  0  0  0  0
    6.2320    0.4568   28.4440 H   0  0  0  0  0  0  0  0  0  0  0  0
    8.3018    0.2187   27.8575 C   0  0  0  0  0  0  0  0  0  0  0  0
    8.6630    0.8930   28.6217 H   0  0  0  0  0  0  0  0  0  0  0  0
    9.2096   -0.3881   26.9902 C   0  0  0  0  0  0  0  0  0  0  0  0
   10.2741   -0.1730   27.0081 H   0  0  0  0  0  0  0  0  0  0  0  0
    7.5240   -2.4231   22.4736 N   0  0  0  0  0  0  0  0  0  0  0  0
    7.0161   -3.2331   22.7776 H   0  0  0  0  0  0  0  0  0  0  0  0
    6.7887   -1.8101   21.4770 C   0  0  0  0  0  0  0  0  0  0  0  0
    5.7268   -2.2982   21.1646 O   0  0  0  0  0  0  0  0  0  0  0  0
    5.4184    0.6271   20.0872 C   0  0  0  0  0  0  0  0  0  0  0  0
    4.9974    0.5921   21.0904 H   0  0  0  0  0  0  0  0  0  0  0  0
    4.7821    1.3205   19.0492 C   0  0  0  0  0  0  0  0  0  0  0  0
    3.8631    1.8672   19.2136 H   0  0  0  0  0  0  0  0  0  0  0  0
  1  2  1  0
  2  3  2  0
  3  4  1  0
  4  5  1  0
  4  6  2  0
  6  7  1  0
  7  8  1  0
  8  9  2  0
  8 10  1  0
 10 11  1  0
 10 12  2  0
 12 13  1  0
 13 14  1  0
 13 15  1  0
 13 16  1  0
 16 17  1  0
 17 18  2  0
 18 19  1  0
 18 20  1  0
 20 21  1  0
 20 22  2  0
 22 23  1  0
 22 24  1  0
 24 25  1  0
 24 26  2  0
 26 27  1  0
 12 28  1  0
 28 29  1  0
 28 30  1  0
 30 31  2  0
  6 32  1  0
 32 33  1  0
 32 34  2  0
 34 35  1  0
 34  2  1  0
 30  7  1  0
 26 17  1  0
M  END
>  <cnnaffinity>  (1) 
-5.25434

>  <filename>  (1) 
O=c1cc(COc2ccccc2)[nH]c(=O)n1-c1cccnc1

$$$$
