
     RDKit          3D

 33 35  0  0  0  0  0  0  0  0999 V2000
    4.9515    1.7951   16.9992 H   0  0  0  0  0  0  0  0  0  0  0  0
    5.4228    1.3156   17.8529 C   0  0  0  0  0  0  0  0  0  0  0  0
    6.6007    0.7167   17.6206 N   0  0  0  0  0  0  0  0  0  0  0  0
    7.1987    0.0875   18.6433 C   0  0  0  0  0  0  0  0  0  0  0  0
    8.1510   -0.3968   18.4265 H   0  0  0  0  0  0  0  0  0  0  0  0
    6.6487    0.0311   19.9457 C   0  0  0  0  0  0  0  0  0  0  0  0
    7.2669   -0.6582   21.0443 N   0  0  0  0  0  0  0  0  0  0  0  0
    7.6616   -0.1258   22.2897 C   0  0  0  0  0  0  0  0  0  0  0  0
    7.4079    1.1699   22.6878 N   0  0  0  0  0  0  0  0  0  0  0  0
    6.6571    1.2825   23.9457 C   0  0  0  0  0  0  0  0  0  0  0  0
    5.5999    1.0294   23.7694 H   0  0  0  0  0  0  0  0  0  0  0  0
    7.0111    0.5319   24.6703 H   0  0  0  0  0  0  0  0  0  0  0  0
    6.8033    2.6621   24.5384 C   0  0  0  0  0  0  0  0  0  0  0  0
    6.1053    2.8838   25.3469 H   0  0  0  0  0  0  0  0  0  0  0  0
    7.8244    2.8941   24.8462 H   0  0  0  0  0  0  0  0  0  0  0  0
    6.3321    3.8559   23.3194 S   0  0  0  0  0  0  0  0  0  0  0  0
    4.9070    3.6464   23.0906 O   0  0  0  0  0  0  0  0  0  0  0  0
    6.8465    5.1357   23.7827 O   0  0  0  0  0  0  0  0  0  0  0  0
    7.1775    3.4194   21.8245 C   0  0  0  0  0  0  0  0  0  0  0  0
    7.6467    4.3452   21.4944 H   0  0  0  0  0  0  0  0  0  0  0  0
    6.3840    3.1351   21.1318 H   0  0  0  0  0  0  0  0  0  0  0  0
    8.1315    2.2667   22.0457 C   0  0  0  0  0  0  0  0  0  0  0  0
    9.0283    2.5682   22.6175 H   0  0  0  0  0  0  0  0  0  0  0  0
    8.4966    1.9181   21.0740 H   0  0  0  0  0  0  0  0  0  0  0  0
    8.1675   -1.1417   23.0049 C   0  0  0  0  0  0  0  0  0  0  0  0
    8.7270   -1.1345   23.9277 H   0  0  0  0  0  0  0  0  0  0  0  0
    7.9659   -2.3285   22.3297 O   0  0  0  0  0  0  0  0  0  0  0  0
    7.2745   -2.0473   21.1842 C   0  0  0  0  0  0  0  0  0  0  0  0
    6.7604   -2.8729   20.4821 O   0  0  0  0  0  0  0  0  0  0  0  0
    5.4382    0.6813   20.1721 C   0  0  0  0  0  0  0  0  0  0  0  0
    5.0287    0.6955   21.1815 H   0  0  0  0  0  0  0  0  0  0  0  0
    4.8058    1.3213   19.1054 C   0  0  0  0  0  0  0  0  0  0  0  0
    3.8583    1.8232   19.2405 H   0  0  0  0  0  0  0  0  0  0  0  0
  1  2  1  0
  2  3  2  0
  3  4  1  0
  4  5  1  0
  4  6  2  0
  6  7  1  0
  7  8  1  0
  8  9  1  0
  9 10  1  0
 10 11  1  0
 10 12  1  0
 10 13  1  0
 13 14  1  0
 13 15  1  0
 13 16  1  0
 16 17  2  0
 16 18  2  0
 16 19  1  0
 19 20  1  0
 19 21  1  0
 19 22  1  0
 22 23  1  0
 22 24  1  0
  8 25  2  0
 25 26  1  0
 25 27  1  0
 27 28  1  0
 28 29  2  0
  6 30  1  0
 30 31  1  0
 30 32  2  0
 32 33  1  0
 32  2  1  0
 28  7  1  0
 22  9  1  0
M  END
>  <cnnaffinity>  (1) 
-4.65026

>  <filename>  (1) 
O=c1occ(N2CCS(=O)(=O)CC2)n1-c1cccnc1

$$$$
