
     RDKit          3D

 30 32  0  0  0  0  0  0  0  0999 V2000
    4.9451    1.7772   17.0048 H   0  0  0  0  0  0  0  0  0  0  0  0
    5.4197    1.2756   17.8444 C   0  0  0  0  0  0  0  0  0  0  0  0
    6.5797    0.6555   17.5803 N   0  0  0  0  0  0  0  0  0  0  0  0
    7.2045    0.0595   18.5998 C   0  0  0  0  0  0  0  0  0  0  0  0
    8.1560   -0.4202   18.3797 H   0  0  0  0  0  0  0  0  0  0  0  0
    6.6944    0.0155   19.9017 C   0  0  0  0  0  0  0  0  0  0  0  0
    7.4634   -0.7124   20.9343 C   0  0  0  0  0  0  0  0  0  0  0  0
    8.7652   -0.6726   20.8576 N   0  0  0  0  0  0  0  0  0  0  0  0
    9.4835   -1.2989   21.8390 C   0  0  0  0  0  0  0  0  0  0  0  0
   10.6916   -1.3206   21.9308 O   0  0  0  0  0  0  0  0  0  0  0  0
    8.7821   -2.0004   22.8278 N   0  0  0  0  0  0  0  0  0  0  0  0
    9.4711   -2.3419   23.4743 H   0  0  0  0  0  0  0  0  0  0  0  0
    7.4256   -2.0474   22.9381 C   0  0  0  0  0  0  0  0  0  0  0  0
    6.7696   -2.7076   24.1329 C   0  0  0  0  0  0  0  0  0  0  0  0
    7.3974   -3.5345   24.4714 H   0  0  0  0  0  0  0  0  0  0  0  0
    5.8165   -3.1417   23.8201 H   0  0  0  0  0  0  0  0  0  0  0  0
    6.5297   -1.8095   25.2679 N   0  0  0  0  0  0  0  0  0  0  0  0
    5.4540   -0.9874   25.4766 C   0  0  0  0  0  0  0  0  0  0  0  0
    4.5342   -1.0651   24.9217 H   0  0  0  0  0  0  0  0  0  0  0  0
    5.6272   -0.1828   26.4918 N   0  0  0  0  0  0  0  0  0  0  0  0
    6.8735   -0.4828   26.9808 C   0  0  0  0  0  0  0  0  0  0  0  0
    7.2763    0.0280   27.8468 H   0  0  0  0  0  0  0  0  0  0  0  0
    7.4442   -1.4800   26.2469 C   0  0  0  0  0  0  0  0  0  0  0  0
    8.3850   -1.9963   26.3507 H   0  0  0  0  0  0  0  0  0  0  0  0
    6.7383   -1.4218   21.9374 C   0  0  0  0  0  0  0  0  0  0  0  0
    5.6632   -1.4621   21.8498 H   0  0  0  0  0  0  0  0  0  0  0  0
    5.4672    0.6544   20.1604 C   0  0  0  0  0  0  0  0  0  0  0  0
    5.0256    0.6576   21.1624 H   0  0  0  0  0  0  0  0  0  0  0  0
    4.8215    1.3038   19.1104 C   0  0  0  0  0  0  0  0  0  0  0  0
    3.8805    1.8319   19.2565 H   0  0  0  0  0  0  0  0  0  0  0  0
  1  2  1  0
  2  3  2  0
  3  4  1  0
  4  5  1  0
  4  6  2  0
  6  7  1  0
  7  8  2  0
  8  9  1  0
  9 10  2  0
  9 11  1  0
 11 12  1  0
 11 13  1  0
 13 14  1  0
 14 15  1  0
 14 16  1  0
 14 17  1  0
 17 18  1  0
 18 19  1  0
 18 20  2  0
 20 21  1  0
 21 22  1  0
 21 23  2  0
 23 24  1  0
 13 25  2  0
 25 26  1  0
  6 27  1  0
 27 28  1  0
 27 29  2  0
 29 30  1  0
 29  2  1  0
 25  7  1  0
 23 17  1  0
M  END
>  <cnnaffinity>  (1) 
-4.9774

>  <filename>  (1) 
O=c1nc(-c2cccnc2)cc(Cn2ccnc2)[nH]1

$$$$
