
     RDKit          3D

 23 24  0  0  0  0  0  0  0  0999 V2000
    5.4206   -3.7482   19.8825 H   0  0  0  0  0  0  0  0  0  0  0  0
    6.3699   -4.0600   19.7994 O   0  0  0  0  0  0  0  0  0  0  0  0
    6.4289   -3.2879   21.0589 P   0  0  0  0  0  0  0  0  0  0  0  0
    5.0498   -3.1861   20.6004 O   0  0  0  0  0  0  0  0  0  0  0  0
    6.4997   -4.1813   22.3332 O   0  0  0  0  0  0  0  0  0  0  0  0
    5.7489   -4.7512   22.1008 H   0  0  0  0  0  0  0  0  0  0  0  0
    7.5752   -1.8361   21.3548 C   0  0  0  0  0  0  0  0  0  0  0  0
    8.4475   -1.8716   22.4178 C   0  0  0  0  0  0  0  0  0  0  0  0
    8.6109   -2.7011   23.1123 H   0  0  0  0  0  0  0  0  0  0  0  0
    9.0579   -0.6590   22.5900 O   0  0  0  0  0  0  0  0  0  0  0  0
    8.5970    0.1794   21.6254 C   0  0  0  0  0  0  0  0  0  0  0  0
    8.8721    1.3712   21.5127 O   0  0  0  0  0  0  0  0  0  0  0  0
    7.7490   -0.5539   20.7867 N   0  0  0  0  0  0  0  0  0  0  0  0
    6.9486    0.0014   19.7729 C   0  0  0  0  0  0  0  0  0  0  0  0
    7.3815    0.0249   18.4330 C   0  0  0  0  0  0  0  0  0  0  0  0
    8.3494   -0.4139   18.2067 H   0  0  0  0  0  0  0  0  0  0  0  0
    6.6776    0.5982   17.4341 N   0  0  0  0  0  0  0  0  0  0  0  0
    5.5059    1.1803   17.7471 C   0  0  0  0  0  0  0  0  0  0  0  0
    4.9218    1.6347   16.9538 H   0  0  0  0  0  0  0  0  0  0  0  0
    5.0058    1.2026   19.0538 C   0  0  0  0  0  0  0  0  0  0  0  0
    4.0604    1.6946   19.2516 H   0  0  0  0  0  0  0  0  0  0  0  0
    5.7328    0.6079   20.0895 C   0  0  0  0  0  0  0  0  0  0  0  0
    5.3803    0.6117   21.1203 H   0  0  0  0  0  0  0  0  0  0  0  0
  1  2  1  0
  2  3  1  0
  3  4  2  0
  3  5  1  0
  5  6  1  0
  3  7  1  0
  7  8  2  0
  8  9  1  0
  8 10  1  0
 10 11  1  0
 11 12  2  0
 11 13  1  0
 13 14  1  0
 14 15  2  0
 15 16  1  0
 15 17  1  0
 17 18  2  0
 18 19  1  0
 18 20  1  0
 20 21  1  0
 20 22  2  0
 22 23  1  0
 13  7  1  0
 22 14  1  0
M  END
>  <cnnaffinity>  (1) 
-3.92977

>  <filename>  (1) 
O=c1occ(P(=O)(O)O)n1-c1cccnc1

$$$$
