
     RDKit          3D

 30 32  0  0  0  0  0  0  0  0999 V2000
    5.0023    1.9355   16.8849 H   0  0  0  0  0  0  0  0  0  0  0  0
    5.4305    1.3581   17.7026 C   0  0  0  0  0  0  0  0  0  0  0  0
    6.5767    0.7124   17.4252 N   0  0  0  0  0  0  0  0  0  0  0  0
    7.1624    0.0236   18.4134 C   0  0  0  0  0  0  0  0  0  0  0  0
    8.0781   -0.5222   18.1722 H   0  0  0  0  0  0  0  0  0  0  0  0
    6.6318   -0.0423   19.7189 C   0  0  0  0  0  0  0  0  0  0  0  0
    7.3432   -0.6393   20.7979 N   0  0  0  0  0  0  0  0  0  0  0  0
    8.5806   -0.2055   21.2757 C   0  0  0  0  0  0  0  0  0  0  0  0
    9.0843    0.6259   20.8061 H   0  0  0  0  0  0  0  0  0  0  0  0
    8.9249   -0.9944   22.3211 C   0  0  0  0  0  0  0  0  0  0  0  0
   10.2375   -1.2699   22.9644 C   0  0  2  0  0  0  0  0  0  0  0  0
   10.0731   -1.7214   23.9494 H   0  0  0  0  0  0  0  0  0  0  0  0
   11.1611   -0.0451   23.1051 C   0  0  0  0  0  0  0  0  0  0  0  0
   10.8831    0.7364   22.3800 H   0  0  0  0  0  0  0  0  0  0  0  0
   11.1498    0.3926   24.1085 H   0  0  0  0  0  0  0  0  0  0  0  0
   12.4694   -0.5247   22.8646 O   0  0  0  0  0  0  0  0  0  0  0  0
   12.3789   -1.4890   21.8329 C   0  0  0  0  0  0  0  0  0  0  0  0
   12.3607   -1.0124   20.8408 H   0  0  0  0  0  0  0  0  0  0  0  0
   13.2645   -2.1290   21.8991 H   0  0  0  0  0  0  0  0  0  0  0  0
   11.0770   -2.2492   22.0948 C   0  0  0  0  0  0  0  0  0  0  0  0
   11.2672   -3.1807   22.6315 H   0  0  0  0  0  0  0  0  0  0  0  0
   10.5667   -2.5030   21.1599 H   0  0  0  0  0  0  0  0  0  0  0  0
    7.8665   -1.8719   22.5036 N   0  0  0  0  0  0  0  0  0  0  0  0
    7.7316   -2.5637   23.2130 H   0  0  0  0  0  0  0  0  0  0  0  0
    6.8512   -1.6704   21.6092 C   0  0  0  0  0  0  0  0  0  0  0  0
    5.8084   -2.2927   21.5565 O   0  0  0  0  0  0  0  0  0  0  0  0
    5.3888    0.5486   19.9696 C   0  0  0  0  0  0  0  0  0  0  0  0
    4.9230    0.4201   20.9471 H   0  0  0  0  0  0  0  0  0  0  0  0
    4.7952    1.2933   18.9475 C   0  0  0  0  0  0  0  0  0  0  0  0
    3.8733    1.8415   19.1052 H   0  0  0  0  0  0  0  0  0  0  0  0
  1  2  1  0
  2  3  2  0
  3  4  1  0
  4  5  1  0
  4  6  2  0
  6  7  1  0
  7  8  1  0
  8  9  1  0
  8 10  2  0
 10 11  1  0
 11 12  1  1
 11 13  1  0
 13 14  1  0
 13 15  1  0
 13 16  1  0
 16 17  1  0
 17 18  1  0
 17 19  1  0
 17 20  1  0
 20 21  1  0
 20 22  1  0
 10 23  1  0
 23 24  1  0
 23 25  1  0
 25 26  2  0
  6 27  1  0
 27 28  1  0
 27 29  2  0
 29 30  1  0
 29  2  1  0
 25  7  1  0
 20 11  1  0
M  END
>  <cnnaffinity>  (1) 
-5.02362

>  <filename>  (1) 
O=c1[nH]c([C@H]2CCOC2)cn1-c1cccnc1

$$$$
