
     RDKit          3D

 29 31  0  0  0  0  0  0  0  0999 V2000
    4.9958    1.7978   16.9656 H   0  0  0  0  0  0  0  0  0  0  0  0
    5.4854    1.3160   17.8086 C   0  0  0  0  0  0  0  0  0  0  0  0
    6.6788    0.7571   17.5536 N   0  0  0  0  0  0  0  0  0  0  0  0
    7.3005    0.1497   18.5696 C   0  0  0  0  0  0  0  0  0  0  0  0
    8.2822   -0.2751   18.3639 H   0  0  0  0  0  0  0  0  0  0  0  0
    6.7394    0.0152   19.8517 C   0  0  0  0  0  0  0  0  0  0  0  0
    7.4751   -0.7811   20.8768 C   0  0  0  0  0  0  0  0  0  0  0  0
    8.7455   -0.4912   20.9859 N   0  0  0  0  0  0  0  0  0  0  0  0
    9.4871   -1.1224   21.9507 N   0  0  0  0  0  0  0  0  0  0  0  0
   10.8798   -0.8013   21.9710 C   0  0  0  0  0  0  0  0  0  0  0  0
   11.2886    0.5422   21.9563 C   0  0  0  0  0  0  0  0  0  0  0  0
   10.5364    1.3242   21.9219 H   0  0  0  0  0  0  0  0  0  0  0  0
   12.5754    0.9038   22.0668 N   0  0  0  0  0  0  0  0  0  0  0  0
   13.5131   -0.0565   22.0955 C   0  0  0  0  0  0  0  0  0  0  0  0
   14.5526    0.2439   22.1865 H   0  0  0  0  0  0  0  0  0  0  0  0
   13.1854   -1.4086   21.9835 C   0  0  0  0  0  0  0  0  0  0  0  0
   14.1617   -2.3201   21.9153 F   0  0  0  0  0  0  0  0  0  0  0  0
   11.8542   -1.8089   21.9785 C   0  0  0  0  0  0  0  0  0  0  0  0
   11.5797   -2.8539   21.9776 H   0  0  0  0  0  0  0  0  0  0  0  0
    8.9107   -1.9276   22.9097 C   0  0  0  0  0  0  0  0  0  0  0  0
    9.5827   -2.2590   23.7051 H   0  0  0  0  0  0  0  0  0  0  0  0
    7.6123   -2.2752   22.8529 C   0  0  0  0  0  0  0  0  0  0  0  0
    7.1360   -2.8971   23.5988 H   0  0  0  0  0  0  0  0  0  0  0  0
    6.7919   -1.8521   21.7216 C   0  0  0  0  0  0  0  0  0  0  0  0
    5.6828   -2.3215   21.5027 O   0  0  0  0  0  0  0  0  0  0  0  0
    5.5096    0.6373   20.1113 C   0  0  0  0  0  0  0  0  0  0  0  0
    5.0709    0.5972   21.1095 H   0  0  0  0  0  0  0  0  0  0  0  0
    4.8723    1.2985   19.0641 C   0  0  0  0  0  0  0  0  0  0  0  0
    3.9270    1.8064   19.2078 H   0  0  0  0  0  0  0  0  0  0  0  0
  1  2  1  0
  2  3  2  0
  3  4  1  0
  4  5  1  0
  4  6  2  0
  6  7  1  0
  7  8  2  0
  8  9  1  0
  9 10  1  0
 10 11  2  0
 11 12  1  0
 11 13  1  0
 13 14  2  0
 14 15  1  0
 14 16  1  0
 16 17  1  0
 16 18  2  0
 18 19  1  0
  9 20  1  0
 20 21  1  0
 20 22  2  0
 22 23  1  0
 22 24  1  0
 24 25  2  0
  6 26  1  0
 26 27  1  0
 26 28  2  0
 28 29  1  0
 28  2  1  0
 24  7  1  0
 18 10  1  0
M  END
>  <cnnaffinity>  (1) 
-5.60477

>  <filename>  (1) 
O=c1ccn(-c2cncc(F)c2)nc1-c1cccnc1

$$$$
