
     RDKit          3D

 35 37  0  0  0  0  0  0  0  0999 V2000
    5.6044   -2.2502   21.2346 O   0  0  0  0  0  0  0  0  0  0  0  0
    6.6820   -1.7890   21.5650 C   0  0  0  0  0  0  0  0  0  0  0  0
    7.4926   -2.4883   22.6825 C   0  0  0  0  0  0  0  0  0  0  0  0
    8.7414   -1.8614   23.1477 N   0  0  0  0  0  0  0  0  0  0  0  0
    8.8863   -1.4559   24.4755 C   0  0  0  0  0  0  0  0  0  0  0  0
    8.8689   -0.1563   24.7741 N   0  0  0  0  0  0  0  0  0  0  0  0
    8.9178    0.2589   26.0512 N   0  0  0  0  0  0  0  0  0  0  0  0
    9.0260   -0.6325   27.0335 C   0  0  0  0  0  0  0  0  0  0  0  0
    9.1238   -2.0136   26.7786 C   0  0  0  0  0  0  0  0  0  0  0  0
    9.0793   -2.4468   25.4650 C   0  0  0  0  0  0  0  0  0  0  0  0
    9.2203   -3.8739   25.0078 C   0  0  0  0  0  0  0  0  0  0  0  0
    8.0052   -4.4120   24.7363 F   0  0  0  0  0  0  0  0  0  0  0  0
    9.9665   -4.0068   23.9060 F   0  0  0  0  0  0  0  0  0  0  0  0
    9.7860   -4.6450   25.9587 F   0  0  0  0  0  0  0  0  0  0  0  0
    9.2501   -2.7462   27.5553 H   0  0  0  0  0  0  0  0  0  0  0  0
    9.0252   -0.2191   28.0337 H   0  0  0  0  0  0  0  0  0  0  0  0
    9.4626   -1.1301   22.1171 C   0  0  0  0  0  0  0  0  0  0  0  0
    8.5514   -0.0991   21.4522 C   0  0  0  0  0  0  0  0  0  0  0  0
    7.3147   -0.7221   20.9267 N   0  0  0  0  0  0  0  0  0  0  0  0
    6.6418   -0.0328   19.8651 C   0  0  0  0  0  0  0  0  0  0  0  0
    5.4250    0.6125   20.1100 C   0  0  0  0  0  0  0  0  0  0  0  0
    4.8138    1.3127   19.0635 C   0  0  0  0  0  0  0  0  0  0  0  0
    5.4344    1.3229   17.8085 C   0  0  0  0  0  0  0  0  0  0  0  0
    6.5954    0.6971   17.5544 N   0  0  0  0  0  0  0  0  0  0  0  0
    7.1905    0.0519   18.5678 C   0  0  0  0  0  0  0  0  0  0  0  0
    8.1369   -0.4402   18.3369 H   0  0  0  0  0  0  0  0  0  0  0  0
    4.9780    1.8560   16.9767 H   0  0  0  0  0  0  0  0  0  0  0  0
    3.8836    1.8495   19.2127 H   0  0  0  0  0  0  0  0  0  0  0  0
    4.9919    0.5625   21.1086 H   0  0  0  0  0  0  0  0  0  0  0  0
    9.0888    0.3942   20.6324 H   0  0  0  0  0  0  0  0  0  0  0  0
    8.3146    0.6665   22.2022 H   0  0  0  0  0  0  0  0  0  0  0  0
   10.3158   -0.6187   22.5685 H   0  0  0  0  0  0  0  0  0  0  0  0
    9.8671   -1.8423   21.3872 H   0  0  0  0  0  0  0  0  0  0  0  0
    7.6983   -3.4792   22.2648 H   0  0  0  0  0  0  0  0  0  0  0  0
    6.7994   -2.6444   23.5124 H   0  0  0  0  0  0  0  0  0  0  0  0
  1  2  2  0
  2  3  1  0
  3  4  1  0
  4  5  1  0
  5  6  2  0
  6  7  1  0
  7  8  2  0
  8  9  1  0
  9 10  2  0
 10 11  1  0
 11 12  1  0
 11 13  1  0
 11 14  1  0
  9 15  1  0
  8 16  1  0
  4 17  1  0
 17 18  1  0
 18 19  1  0
 19 20  1  0
 20 21  2  0
 21 22  1  0
 22 23  2  0
 23 24  1  0
 24 25  2  0
 25 26  1  0
 23 27  1  0
 22 28  1  0
 21 29  1  0
 18 30  1  0
 18 31  1  0
 17 32  1  0
 17 33  1  0
  3 34  1  0
  3 35  1  0
 19  2  1  0
 25 20  1  0
 10  5  1  0
M  END
>  <cnnaffinity>  (1) 
-5.44293

>  <filename>  (1) 
O=C1CN(c2nnccc2C(F)(F)F)CCN1c1cccnc1

$$$$
