
     RDKit          3D

 33 35  0  0  0  0  0  0  0  0999 V2000
    4.9874    1.8386   16.9251 H   0  0  0  0  0  0  0  0  0  0  0  0
    5.4184    1.3224   17.7773 C   0  0  0  0  0  0  0  0  0  0  0  0
    6.5715    0.6726   17.5472 N   0  0  0  0  0  0  0  0  0  0  0  0
    7.1241    0.0357   18.5881 C   0  0  0  0  0  0  0  0  0  0  0  0
    8.0669   -0.4783   18.3956 H   0  0  0  0  0  0  0  0  0  0  0  0
    6.5604   -0.0232   19.8782 C   0  0  0  0  0  0  0  0  0  0  0  0
    7.2436   -0.7822   20.9620 C   0  0  0  0  0  0  0  0  0  0  0  0
    8.6655   -0.6912   21.1145 C   0  0  0  0  0  0  0  0  0  0  0  0
    9.2439   -0.0587   20.4458 H   0  0  0  0  0  0  0  0  0  0  0  0
    9.3569   -1.3541   22.1018 C   0  0  0  0  0  0  0  0  0  0  0  0
   10.7573   -1.2133   22.2030 N   0  0  0  0  0  0  0  0  0  0  0  0
   11.2605   -1.9636   22.6591 H   0  0  0  0  0  0  0  0  0  0  0  0
   11.4782   -0.0059   22.2457 C   0  0  0  0  0  0  0  0  0  0  0  0
   12.8812   -0.0972   22.2805 C   0  0  0  0  0  0  0  0  0  0  0  0
   13.3385   -1.0810   22.2151 H   0  0  0  0  0  0  0  0  0  0  0  0
   13.6672    1.0507   22.3823 C   0  0  0  0  0  0  0  0  0  0  0  0
   14.7580    0.9899   22.3638 H   0  0  0  0  0  0  0  0  0  0  0  0
   13.0505    2.3064   22.4515 C   0  0  0  0  0  0  0  0  0  0  0  0
   13.6596    3.2019   22.4968 H   0  0  0  0  0  0  0  0  0  0  0  0
   11.6571    2.4075   22.4109 C   0  0  0  0  0  0  0  0  0  0  0  0
   11.1728    3.3798   22.4580 H   0  0  0  0  0  0  0  0  0  0  0  0
   10.8671    1.2559   22.3083 C   0  0  0  0  0  0  0  0  0  0  0  0
    9.7847    1.3247   22.3289 H   0  0  0  0  0  0  0  0  0  0  0  0
    8.5900   -2.2468   23.0331 C   0  0  0  0  0  0  0  0  0  0  0  0
    9.0002   -2.9513   23.9432 O   0  0  0  0  0  0  0  0  0  0  0  0
    7.2128   -2.2616   22.8104 N   0  0  0  0  0  0  0  0  0  0  0  0
    6.7880   -2.8528   23.5160 H   0  0  0  0  0  0  0  0  0  0  0  0
    6.5450   -1.5812   21.8260 C   0  0  0  0  0  0  0  0  0  0  0  0
    5.4714   -1.7228   21.7485 H   0  0  0  0  0  0  0  0  0  0  0  0
    5.3546    0.6666   20.0892 C   0  0  0  0  0  0  0  0  0  0  0  0
    4.9038    0.6906   21.0826 H   0  0  0  0  0  0  0  0  0  0  0  0
    4.7768    1.3543   19.0213 C   0  0  0  0  0  0  0  0  0  0  0  0
    3.8541    1.9129   19.1448 H   0  0  0  0  0  0  0  0  0  0  0  0
  1  2  1  0
  2  3  2  0
  3  4  1  0
  4  5  1  0
  4  6  2  0
  6  7  1  0
  7  8  1  0
  8  9  1  0
  8 10  2  0
 10 11  1  0
 11 12  1  0
 11 13  1  0
 13 14  2  0
 14 15  1  0
 14 16  1  0
 16 17  1  0
 16 18  2  0
 18 19  1  0
 18 20  1  0
 20 21  1  0
 20 22  2  0
 22 23  1  0
 10 24  1  0
 24 25  2  0
 24 26  1  0
 26 27  1  0
 26 28  1  0
 28 29  1  0
  6 30  1  0
 30 31  1  0
 30 32  2  0
 32 33  1  0
 32  2  1  0
 28  7  2  0
 22 13  1  0
M  END
>  <cnnaffinity>  (1) 
-4.95586

>  <filename>  (1) 
O=c1[nH]cc(-c2cccnc2)cc1Nc1ccccc1

$$$$
