
     RDKit          3D

 42 45  0  0  0  0  0  0  0  0999 V2000
    7.9922   -6.2782   25.8560 O   0  0  0  0  0  0  0  0  0  0  0  0
    7.2516   -5.4688   25.3264 C   0  0  0  0  0  0  0  0  0  0  0  0
    7.7628   -4.2080   25.0351 N   0  0  0  0  0  0  0  0  0  0  0  0
    7.0818   -3.1627   24.4501 C   0  0  0  0  0  0  0  0  0  0  0  0
    7.7932   -1.8382   24.2969 C   0  0  0  0  0  0  0  0  0  0  0  0
    7.7945   -1.3744   22.8686 C   0  0  0  0  0  0  0  0  0  0  0  0
    6.8510   -0.6557   22.2860 N   0  0  0  0  0  0  0  0  0  0  0  0
    7.2906   -0.5257   21.0116 C   0  0  0  0  0  0  0  0  0  0  0  0
    6.5562    0.1221   19.9333 C   0  0  0  0  0  0  0  0  0  0  0  0
    5.3232    0.7717   20.0950 C   0  0  0  0  0  0  0  0  0  0  0  0
    4.7649    1.3778   18.9709 C   0  0  0  0  0  0  0  0  0  0  0  0
    5.4410    1.3061   17.7474 C   0  0  0  0  0  0  0  0  0  0  0  0
    6.5978    0.6504   17.5787 N   0  0  0  0  0  0  0  0  0  0  0  0
    7.1331    0.0716   18.6540 C   0  0  0  0  0  0  0  0  0  0  0  0
    8.0656   -0.4666   18.4960 H   0  0  0  0  0  0  0  0  0  0  0  0
    5.0383    1.7893   16.8604 H   0  0  0  0  0  0  0  0  0  0  0  0
    3.8270    1.9184   19.0253 H   0  0  0  0  0  0  0  0  0  0  0  0
    4.8195    0.8082   21.0642 H   0  0  0  0  0  0  0  0  0  0  0  0
    8.4612   -1.0944   20.7868 N   0  0  0  0  0  0  0  0  0  0  0  0
    8.7589   -1.6753   21.9661 N   0  0  0  0  0  0  0  0  0  0  0  0
   10.0261   -2.3695   22.0153 C   0  0  0  0  0  0  0  0  0  0  0  0
   11.1639   -1.4049   22.2650 C   0  0  0  0  0  0  0  0  0  0  0  0
   12.3388   -2.0836   22.1866 F   0  0  0  0  0  0  0  0  0  0  0  0
   11.0529   -0.9028   23.5325 F   0  0  0  0  0  0  0  0  0  0  0  0
   11.1910   -0.5730   21.5564 H   0  0  0  0  0  0  0  0  0  0  0  0
   10.1586   -2.8120   21.0278 H   0  0  0  0  0  0  0  0  0  0  0  0
   10.0345   -3.1558   22.7707 H   0  0  0  0  0  0  0  0  0  0  0  0
    8.8191   -1.8783   24.6913 H   0  0  0  0  0  0  0  0  0  0  0  0
    7.2435   -1.0651   24.8477 H   0  0  0  0  0  0  0  0  0  0  0  0
    5.8111   -3.3772   24.0214 C   0  0  0  0  0  0  0  0  0  0  0  0
    5.1598   -4.6496   24.2186 C   0  0  0  0  0  0  0  0  0  0  0  0
    3.8523   -4.9178   23.7274 C   0  0  0  0  0  0  0  0  0  0  0  0
    3.2350   -6.1249   23.9917 C   0  0  0  0  0  0  0  0  0  0  0  0
    3.8808   -7.1055   24.7816 C   0  0  0  0  0  0  0  0  0  0  0  0
    5.1735   -6.8843   25.2351 C   0  0  0  0  0  0  0  0  0  0  0  0
    5.8348   -5.6823   24.9258 C   0  0  0  0  0  0  0  0  0  0  0  0
    5.7108   -7.6235   25.8262 H   0  0  0  0  0  0  0  0  0  0  0  0
    3.3533   -8.0258   25.0172 H   0  0  0  0  0  0  0  0  0  0  0  0
    2.2392   -6.3233   23.6033 H   0  0  0  0  0  0  0  0  0  0  0  0
    3.3394   -4.1575   23.1485 H   0  0  0  0  0  0  0  0  0  0  0  0
    5.2875   -2.5741   23.5244 H   0  0  0  0  0  0  0  0  0  0  0  0
    8.7382   -4.1765   25.2925 H   0  0  0  0  0  0  0  0  0  0  0  0
  1  2  2  0
  2  3  1  0
  3  4  1  0
  4  5  1  0
  5  6  1  0
  6  7  2  0
  7  8  1  0
  8  9  1  0
  9 10  2  0
 10 11  1  0
 11 12  2  0
 12 13  1  0
 13 14  2  0
 14 15  1  0
 12 16  1  0
 11 17  1  0
 10 18  1  0
  8 19  2  0
 19 20  1  0
 20 21  1  0
 21 22  1  0
 22 23  1  0
 22 24  1  0
 22 25  1  0
 21 26  1  0
 21 27  1  0
  5 28  1  0
  5 29  1  0
  4 30  2  0
 30 31  1  0
 31 32  2  0
 32 33  1  0
 33 34  2  0
 34 35  1  0
 35 36  2  0
 35 37  1  0
 34 38  1  0
 33 39  1  0
 32 40  1  0
 30 41  1  0
  3 42  1  0
 36  2  1  0
 20  6  1  0
 36 31  1  0
 14  9  1  0
M  END
>  <cnnaffinity>  (1) 
-6.38213

>  <filename>  (1) 
O=c1[nH]c(Cc2nc(-c3cccnc3)nn2CC(F)F)cc2ccccc12

$$$$
