
     RDKit          3D

 30 32  0  0  0  0  0  0  0  0999 V2000
   13.0973   -1.8297   22.2062 H   0  0  0  0  0  0  0  0  0  0  0  0
   12.0264   -1.7960   22.3616 C   0  0  0  0  0  0  0  0  0  0  0  0
   11.3565   -0.6335   22.0767 N   0  0  0  0  0  0  0  0  0  0  0  0
   10.1014   -0.7819   22.3604 C   0  0  0  0  0  0  0  0  0  0  0  0
    9.3055    0.3072   22.2591 N   0  0  0  0  0  0  0  0  0  0  0  0
    9.9136    1.0681   21.9923 H   0  0  0  0  0  0  0  0  0  0  0  0
    7.8593    0.2991   22.1516 C   0  0  2  0  0  0  0  0  0  0  0  0
    7.5399    1.3318   21.9507 H   0  0  0  0  0  0  0  0  0  0  0  0
    7.1879   -0.2107   23.4663 C   0  0  0  0  0  0  0  0  0  0  0  0
    7.9474   -0.3516   24.2452 H   0  0  0  0  0  0  0  0  0  0  0  0
    6.4467    0.5070   23.8481 H   0  0  0  0  0  0  0  0  0  0  0  0
    6.5871   -1.4760   23.0961 N   0  0  0  0  0  0  0  0  0  0  0  0
    5.8527   -1.9418   23.6107 H   0  0  0  0  0  0  0  0  0  0  0  0
    6.5690   -1.7353   21.7633 C   0  0  0  0  0  0  0  0  0  0  0  0
    5.9856   -2.6810   21.2797 O   0  0  0  0  0  0  0  0  0  0  0  0
    7.3748   -0.6632   21.0232 C   0  0  1  0  0  0  0  0  0  0  0  0
    8.2322   -1.1956   20.6005 H   0  0  0  0  0  0  0  0  0  0  0  0
    6.6461    0.0093   19.8639 C   0  0  0  0  0  0  0  0  0  0  0  0
    7.1662    0.0674   18.5506 C   0  0  0  0  0  0  0  0  0  0  0  0
    8.1194   -0.4083   18.3087 H   0  0  0  0  0  0  0  0  0  0  0  0
    6.5646    0.6988   17.5345 N   0  0  0  0  0  0  0  0  0  0  0  0
    5.4016    1.3177   17.7938 C   0  0  0  0  0  0  0  0  0  0  0  0
    4.9324    1.8325   16.9577 H   0  0  0  0  0  0  0  0  0  0  0  0
    4.7959    1.3189   19.0525 C   0  0  0  0  0  0  0  0  0  0  0  0
    3.8643    1.8488   19.2042 H   0  0  0  0  0  0  0  0  0  0  0  0
    5.4290    0.6530   20.1012 C   0  0  0  0  0  0  0  0  0  0  0  0
    4.9970    0.6448   21.1032 H   0  0  0  0  0  0  0  0  0  0  0  0
    9.6203   -2.3641   22.9260 S   0  0  0  0  0  0  0  0  0  0  0  0
   11.2879   -2.8150   22.8549 C   0  0  0  0  0  0  0  0  0  0  0  0
   11.6335   -3.7713   23.2032 H   0  0  0  0  0  0  0  0  0  0  0  0
  1  2  1  0
  2  3  1  0
  3  4  2  0
  4  5  1  0
  5  6  1  0
  5  7  1  0
  7  8  1  6
  7  9  1  0
  9 10  1  0
  9 11  1  0
  9 12  1  0
 12 13  1  0
 12 14  1  0
 14 15  2  0
 14 16  1  0
 16 17  1  6
 16 18  1  0
 18 19  2  0
 19 20  1  0
 19 21  1  0
 21 22  2  0
 22 23  1  0
 22 24  1  0
 24 25  1  0
 24 26  2  0
 26 27  1  0
  4 28  1  0
 28 29  1  0
 29 30  1  0
 29  2  2  0
 16  7  1  0
 26 18  1  0
M  END
>  <cnnaffinity>  (1) 
-5.28444

>  <filename>  (1) 
O=C1NC[C@@H](Nc2nccs2)[C@@H]1c1cccnc1

$$$$
