
     RDKit          3D

 29 31  0  0  0  0  0  0  0  0999 V2000
    9.9121   -2.5121   22.1567 O   0  0  0  0  0  0  0  0  0  0  0  0
    8.9164   -1.8534   21.9035 C   0  0  0  0  0  0  0  0  0  0  0  0
    8.5913   -1.3373   20.7142 O   0  0  0  0  0  0  0  0  0  0  0  0
    7.4058   -0.7008   20.9515 C   0  0  0  0  0  0  0  0  0  0  0  0
    6.9481   -0.7530   22.1840 N   0  0  0  0  0  0  0  0  0  0  0  0
    7.8821   -1.5076   22.8571 C   0  0  0  0  0  0  0  0  0  0  0  0
    7.7945   -1.9008   24.1847 C   0  0  0  0  0  0  0  0  0  0  0  0
    6.6953   -1.5037   25.0770 C   0  0  0  0  0  0  0  0  0  0  0  0
    6.1768   -0.1997   25.0326 C   0  0  0  0  0  0  0  0  0  0  0  0
    5.1322    0.1839   25.8828 C   0  0  0  0  0  0  0  0  0  0  0  0
    4.5893   -0.7372   26.7820 C   0  0  0  0  0  0  0  0  0  0  0  0
    5.1000   -2.0382   26.8313 C   0  0  0  0  0  0  0  0  0  0  0  0
    6.1518   -2.4249   25.9913 C   0  0  0  0  0  0  0  0  0  0  0  0
    6.7928   -4.2286   26.0866 Br  0  0  0  0  0  0  0  0  0  0  0  0
    4.6831   -2.7593   27.5278 H   0  0  0  0  0  0  0  0  0  0  0  0
    3.7790   -0.4450   27.4439 H   0  0  0  0  0  0  0  0  0  0  0  0
    4.7454    1.1988   25.8503 H   0  0  0  0  0  0  0  0  0  0  0  0
    6.5972    0.5263   24.3424 H   0  0  0  0  0  0  0  0  0  0  0  0
    8.5524   -2.5586   24.5979 H   0  0  0  0  0  0  0  0  0  0  0  0
    6.6731   -0.0015   19.9179 C   0  0  0  0  0  0  0  0  0  0  0  0
    5.4525    0.6414   20.1725 C   0  0  0  0  0  0  0  0  0  0  0  0
    4.8320    1.2951   19.1105 C   0  0  0  0  0  0  0  0  0  0  0  0
    5.4134    1.2847   17.8404 C   0  0  0  0  0  0  0  0  0  0  0  0
    6.5803    0.6570   17.6072 N   0  0  0  0  0  0  0  0  0  0  0  0
    7.1975    0.0370   18.6256 C   0  0  0  0  0  0  0  0  0  0  0  0
    8.1435   -0.4486   18.4078 H   0  0  0  0  0  0  0  0  0  0  0  0
    4.9000    1.7928   17.0236 H   0  0  0  0  0  0  0  0  0  0  0  0
    3.8961    1.8227   19.2568 H   0  0  0  0  0  0  0  0  0  0  0  0
    4.9945    0.6448   21.1650 H   0  0  0  0  0  0  0  0  0  0  0  0
  1  2  2  0
  2  3  1  0
  3  4  1  0
  4  5  2  0
  5  6  1  0
  6  7  2  3
  7  8  1  0
  8  9  2  0
  9 10  1  0
 10 11  2  0
 11 12  1  0
 12 13  2  0
 13 14  1  0
 12 15  1  0
 11 16  1  0
 10 17  1  0
  9 18  1  0
  7 19  1  0
  4 20  1  0
 20 21  2  0
 21 22  1  0
 22 23  2  0
 23 24  1  0
 24 25  2  0
 25 26  1  0
 23 27  1  0
 22 28  1  0
 21 29  1  0
  6  2  1  0
 13  8  1  0
 25 20  1  0
M  END
>  <cnnaffinity>  (1) 
-4.98002

>  <filename>  (1) 
O=C1OC(c2cccnc2)=NC1=Cc1ccccc1Br

$$$$
