
     RDKit          3D

 31 33  0  0  0  0  0  0  0  0999 V2000
    1.6202   -5.0839   25.5829 H   0  0  0  0  0  0  0  0  0  0  0  0
    2.6901   -5.1929   25.7454 C   0  0  0  0  0  0  0  0  0  0  0  0
    3.4568   -4.4237   24.9669 N   0  0  0  0  0  0  0  0  0  0  0  0
    4.7876   -4.5129   25.1272 C   0  0  0  0  0  0  0  0  0  0  0  0
    5.6065   -3.6656   24.2710 C   0  0  0  0  0  0  0  0  0  0  0  0
    6.3607   -2.9900   23.6008 C   0  0  0  0  0  0  0  0  0  0  0  0
    7.1688   -2.2095   22.8015 N   0  0  0  0  0  0  0  0  0  0  0  0
    6.5769   -1.4892   21.7686 N   0  0  0  0  0  0  0  0  0  0  0  0
    7.3172   -0.7480   20.9936 C   0  0  0  0  0  0  0  0  0  0  0  0
    6.5986   -0.0314   19.8966 C   0  0  0  0  0  0  0  0  0  0  0  0
    7.1365    0.0353   18.5973 C   0  0  0  0  0  0  0  0  0  0  0  0
    8.1085   -0.4106   18.3927 H   0  0  0  0  0  0  0  0  0  0  0  0
    6.5470    0.6673   17.5813 N   0  0  0  0  0  0  0  0  0  0  0  0
    5.3928    1.2982   17.8351 C   0  0  0  0  0  0  0  0  0  0  0  0
    4.9323    1.7973   16.9838 H   0  0  0  0  0  0  0  0  0  0  0  0
    4.7898    1.3230   19.0984 C   0  0  0  0  0  0  0  0  0  0  0  0
    3.8628    1.8662   19.2351 H   0  0  0  0  0  0  0  0  0  0  0  0
    5.3951    0.6369   20.1510 C   0  0  0  0  0  0  0  0  0  0  0  0
    4.9833    0.6214   21.1603 H   0  0  0  0  0  0  0  0  0  0  0  0
    8.8197   -0.5527   21.1862 C   0  0  0  0  0  0  0  0  0  0  0  0
    9.5228    0.1818   20.5018 O   0  0  0  0  0  0  0  0  0  0  0  0
    9.3501   -1.3409   22.2913 C   0  0  0  0  0  0  0  0  0  0  0  0
   10.4137   -1.2615   22.4710 H   0  0  0  0  0  0  0  0  0  0  0  0
    8.5361   -2.1063   23.0324 C   0  0  0  0  0  0  0  0  0  0  0  0
    8.8908   -2.7016   23.8716 H   0  0  0  0  0  0  0  0  0  0  0  0
    5.3830   -5.3800   26.0679 C   0  0  0  0  0  0  0  0  0  0  0  0
    6.4601   -5.4054   26.1471 H   0  0  0  0  0  0  0  0  0  0  0  0
    4.5713   -6.1823   26.8727 C   0  0  0  0  0  0  0  0  0  0  0  0
    4.9984   -6.8658   27.6110 H   0  0  0  0  0  0  0  0  0  0  0  0
    3.1871   -6.0823   26.7042 C   0  0  0  0  0  0  0  0  0  0  0  0
    2.4919   -6.6703   27.2916 H   0  0  0  0  0  0  0  0  0  0  0  0
  1  2  1  0
  2  3  2  0
  3  4  1  0
  4  5  1  0
  5  6  3  0
  6  7  1  0
  7  8  1  0
  8  9  2  0
  9 10  1  0
 10 11  2  0
 11 12  1  0
 11 13  1  0
 13 14  2  0
 14 15  1  0
 14 16  1  0
 16 17  1  0
 16 18  2  0
 18 19  1  0
  9 20  1  0
 20 21  2  0
 20 22  1  0
 22 23  1  0
 22 24  2  0
 24 25  1  0
  4 26  2  0
 26 27  1  0
 26 28  1  0
 28 29  1  0
 28 30  2  0
 30 31  1  0
 30  2  1  0
 24  7  1  0
 18 10  1  0
M  END
>  <cnnaffinity>  (1) 
-5.32078

>  <filename>  (1) 
O=c1ccn(C#Cc2ccccn2)nc1-c1cccnc1

$$$$
