
     RDKit          3D

 25 27  0  0  0  0  0  0  0  0999 V2000
    5.6395   -4.3652   25.9310 H   0  0  0  0  0  0  0  0  0  0  0  0
    6.5252   -3.9580   25.4604 C   0  0  0  0  0  0  0  0  0  0  0  0
    6.3904   -3.1808   24.3433 N   0  0  0  0  0  0  0  0  0  0  0  0
    7.5593   -2.7834   23.9275 C   0  0  0  0  0  0  0  0  0  0  0  0
    7.7391   -1.9410   22.7591 C   0  0  0  0  0  0  0  0  0  0  0  0
    6.7696   -1.4471   21.9531 C   0  0  0  0  0  0  0  0  0  0  0  0
    5.7005   -1.5986   22.0105 H   0  0  0  0  0  0  0  0  0  0  0  0
    7.3567   -0.6891   20.9535 N   0  0  0  0  0  0  0  0  0  0  0  0
    6.6665    0.0005   19.9097 C   0  0  0  0  0  0  0  0  0  0  0  0
    7.1807    0.0585   18.5936 C   0  0  0  0  0  0  0  0  0  0  0  0
    8.1296   -0.4309   18.3839 H   0  0  0  0  0  0  0  0  0  0  0  0
    6.5637    0.6785   17.5793 N   0  0  0  0  0  0  0  0  0  0  0  0
    5.3976    1.2939   17.8432 C   0  0  0  0  0  0  0  0  0  0  0  0
    4.9070    1.7758   17.0019 H   0  0  0  0  0  0  0  0  0  0  0  0
    4.8077    1.3114   19.1115 C   0  0  0  0  0  0  0  0  0  0  0  0
    3.8732    1.8439   19.2679 H   0  0  0  0  0  0  0  0  0  0  0  0
    5.4471    0.6444   20.1626 C   0  0  0  0  0  0  0  0  0  0  0  0
    5.0153    0.6307   21.1626 H   0  0  0  0  0  0  0  0  0  0  0  0
    8.7581   -0.6841   21.1389 C   0  0  0  0  0  0  0  0  0  0  0  0
    9.5923   -0.1112   20.4683 O   0  0  0  0  0  0  0  0  0  0  0  0
    8.9519   -1.4737   22.2432 N   0  0  0  0  0  0  0  0  0  0  0  0
    9.8856   -1.6207   22.5847 H   0  0  0  0  0  0  0  0  0  0  0  0
    8.9058   -3.3460   24.8756 S   0  0  0  0  0  0  0  0  0  0  0  0
    7.7953   -4.1632   25.8976 C   0  0  0  0  0  0  0  0  0  0  0  0
    8.1051   -4.7451   26.7523 H   0  0  0  0  0  0  0  0  0  0  0  0
  1  2  1  0
  2  3  1  0
  3  4  2  0
  4  5  1  0
  5  6  2  0
  6  7  1  0
  6  8  1  0
  8  9  1  0
  9 10  2  0
 10 11  1  0
 10 12  1  0
 12 13  2  0
 13 14  1  0
 13 15  1  0
 15 16  1  0
 15 17  2  0
 17 18  1  0
  8 19  1  0
 19 20  2  0
 19 21  1  0
 21 22  1  0
  4 23  1  0
 23 24  1  0
 24 25  1  0
 24  2  2  0
 21  5  1  0
 17  9  1  0
M  END
>  <cnnaffinity>  (1) 
-5.08025

>  <filename>  (1) 
O=c1[nH]c(-c2nccs2)cn1-c1cccnc1

$$$$
