
     RDKit          3D

 32 34  0  0  0  0  0  0  0  0999 V2000
    4.9107    1.7873   16.9880 H   0  0  0  0  0  0  0  0  0  0  0  0
    5.3969    1.2986   17.8298 C   0  0  0  0  0  0  0  0  0  0  0  0
    6.5595    0.6828   17.5641 N   0  0  0  0  0  0  0  0  0  0  0  0
    7.1847    0.0812   18.5831 C   0  0  0  0  0  0  0  0  0  0  0  0
    8.1180   -0.4292   18.3599 H   0  0  0  0  0  0  0  0  0  0  0  0
    6.6812    0.0373   19.8971 C   0  0  0  0  0  0  0  0  0  0  0  0
    7.3768   -0.6644   20.9539 N   0  0  0  0  0  0  0  0  0  0  0  0
    8.6611   -0.2862   21.2924 C   0  0  0  0  0  0  0  0  0  0  0  0
    9.0588    0.5479   20.7080 H   0  0  0  0  0  0  0  0  0  0  0  0
    9.3518   -0.9005   22.2922 C   0  0  0  0  0  0  0  0  0  0  0  0
   10.3619   -0.5837   22.5359 H   0  0  0  0  0  0  0  0  0  0  0  0
    8.7292   -1.9715   23.0137 C   0  0  0  0  0  0  0  0  0  0  0  0
    9.4779   -2.5707   23.9971 O   0  0  0  0  0  0  0  0  0  0  0  0
    8.9208   -3.1622   25.1224 C   0  0  0  0  0  0  0  0  0  0  0  0
    7.7584   -2.6817   25.7418 C   0  0  0  0  0  0  0  0  0  0  0  0
    7.2387   -1.8283   25.3163 H   0  0  0  0  0  0  0  0  0  0  0  0
    7.2779   -3.3075   26.8978 C   0  0  0  0  0  0  0  0  0  0  0  0
    6.3609   -2.9436   27.3527 H   0  0  0  0  0  0  0  0  0  0  0  0
    7.9536   -4.3954   27.4564 C   0  0  0  0  0  0  0  0  0  0  0  0
    7.5659   -4.8801   28.3512 H   0  0  0  0  0  0  0  0  0  0  0  0
    9.1329   -4.8471   26.8518 C   0  0  0  0  0  0  0  0  0  0  0  0
    9.6678   -5.6846   27.2911 H   0  0  0  0  0  0  0  0  0  0  0  0
    9.6248   -4.2347   25.6927 C   0  0  0  0  0  0  0  0  0  0  0  0
   10.5492   -4.5769   25.2364 H   0  0  0  0  0  0  0  0  0  0  0  0
    7.4848   -2.3972   22.6602 C   0  0  0  0  0  0  0  0  0  0  0  0
    6.9759   -3.2149   23.1459 H   0  0  0  0  0  0  0  0  0  0  0  0
    6.7217   -1.7673   21.6184 C   0  0  0  0  0  0  0  0  0  0  0  0
    5.6104   -2.1435   21.2898 O   0  0  0  0  0  0  0  0  0  0  0  0
    5.4525    0.6554   20.1580 C   0  0  0  0  0  0  0  0  0  0  0  0
    5.0230    0.6080   21.1614 H   0  0  0  0  0  0  0  0  0  0  0  0
    4.8117    1.3140   19.1017 C   0  0  0  0  0  0  0  0  0  0  0  0
    3.8755    1.8412   19.2572 H   0  0  0  0  0  0  0  0  0  0  0  0
  1  2  1  0
  2  3  2  0
  3  4  1  0
  4  5  1  0
  4  6  2  0
  6  7  1  0
  7  8  1  0
  8  9  1  0
  8 10  2  0
 10 11  1  0
 10 12  1  0
 12 13  1  0
 13 14  1  0
 14 15  2  0
 15 16  1  0
 15 17  1  0
 17 18  1  0
 17 19  2  0
 19 20  1  0
 19 21  1  0
 21 22  1  0
 21 23  2  0
 23 24  1  0
 12 25  2  0
 25 26  1  0
 25 27  1  0
 27 28  2  0
  6 29  1  0
 29 30  1  0
 29 31  2  0
 31 32  1  0
 31  2  1  0
 27  7  1  0
 23 14  1  0
M  END
>  <cnnaffinity>  (1) 
-4.93908

>  <filename>  (1) 
O=c1cc(Oc2ccccc2)ccn1-c1cccnc1

$$$$
