
     RDKit          3D

 32 34  0  0  0  0  0  0  0  0999 V2000
    5.0065    1.7916   17.0215 H   0  0  0  0  0  0  0  0  0  0  0  0
    5.4257    1.2448   17.8625 C   0  0  0  0  0  0  0  0  0  0  0  0
    6.5773    0.5901   17.6374 N   0  0  0  0  0  0  0  0  0  0  0  0
    7.1321   -0.0531   18.6688 C   0  0  0  0  0  0  0  0  0  0  0  0
    8.0892   -0.5479   18.4989 H   0  0  0  0  0  0  0  0  0  0  0  0
    6.5512   -0.0909   19.9348 C   0  0  0  0  0  0  0  0  0  0  0  0
    7.5058   -0.8838   21.2115 S   0  0  0  0  0  4  0  0  0  0  0  0
    7.5046    0.0379   22.3744 O   0  0  0  0  0  0  0  0  0  0  0  0
    6.3780   -2.0676   21.6996 N   0  0  0  0  0  0  0  0  0  0  0  0
    5.7887   -1.5251   22.3396 H   0  0  0  0  0  0  0  0  0  0  0  0
    7.0502   -3.0635   22.5395 C   0  0  0  0  0  0  0  0  0  0  0  0
    7.8072   -3.5996   21.9616 H   0  0  0  0  0  0  0  0  0  0  0  0
    7.5097   -2.6371   23.4408 H   0  0  0  0  0  0  0  0  0  0  0  0
    6.0402   -3.9763   22.9311 N   0  0  0  0  0  0  0  0  0  0  0  0
    5.6080   -4.9860   22.0942 C   0  0  0  0  0  0  0  0  0  0  0  0
    6.1523   -5.3006   21.0608 O   0  0  0  0  0  0  0  0  0  0  0  0
    4.4199   -5.5757   22.7614 C   0  0  0  0  0  0  0  0  0  0  0  0
    3.6065   -6.6354   22.3741 C   0  0  0  0  0  0  0  0  0  0  0  0
    3.7896   -7.1730   21.4538 H   0  0  0  0  0  0  0  0  0  0  0  0
    2.5454   -6.9786   23.2119 C   0  0  0  0  0  0  0  0  0  0  0  0
    1.8902   -7.7970   22.9307 H   0  0  0  0  0  0  0  0  0  0  0  0
    2.3151   -6.2751   24.4078 C   0  0  0  0  0  0  0  0  0  0  0  0
    1.4723   -6.5519   25.0325 H   0  0  0  0  0  0  0  0  0  0  0  0
    3.1409   -5.2156   24.7966 C   0  0  0  0  0  0  0  0  0  0  0  0
    2.9578   -4.6806   25.7235 H   0  0  0  0  0  0  0  0  0  0  0  0
    4.1919   -4.8717   23.9464 C   0  0  0  0  0  0  0  0  0  0  0  0
    5.2242   -3.7975   24.0327 C   0  0  0  0  0  0  0  0  0  0  0  0
    5.3898   -2.9349   24.8615 O   0  0  0  0  0  0  0  0  0  0  0  0
    5.3678    0.6075   20.1875 C   0  0  0  0  0  0  0  0  0  0  0  0
    4.9364    0.6729   21.1902 H   0  0  0  0  0  0  0  0  0  0  0  0
    4.7850    1.2771   19.1083 C   0  0  0  0  0  0  0  0  0  0  0  0
    3.8755    1.8549   19.2363 H   0  0  0  0  0  0  0  0  0  0  0  0
  1  2  1  0
  2  3  2  0
  3  4  1  0
  4  5  1  0
  4  6  2  0
  6  7  1  0
  7  8  2  0
  7  9  1  6
  9 10  1  0
  9 11  1  0
 11 12  1  0
 11 13  1  0
 11 14  1  0
 14 15  1  0
 15 16  2  0
 15 17  1  0
 17 18  2  0
 18 19  1  0
 18 20  1  0
 20 21  1  0
 20 22  2  0
 22 23  1  0
 22 24  1  0
 24 25  1  0
 24 26  2  0
 26 27  1  0
 27 28  2  0
  6 29  1  0
 29 30  1  0
 29 31  2  0
 31 32  1  0
 31  2  1  0
 27 14  1  0
 26 17  1  0
M  END
>  <cnnaffinity>  (1) 
-4.86633

>  <filename>  (1) 
O=C1c2ccccc2C(=O)N1CN[S@@](=O)c1cccnc1

$$$$
