
     RDKit          3D

 32 34  0  0  0  0  0  0  0  0999 V2000
    4.9203    1.8042   16.9717 H   0  0  0  0  0  0  0  0  0  0  0  0
    5.3852    1.3074   17.8236 C   0  0  0  0  0  0  0  0  0  0  0  0
    6.5526    0.6929   17.5778 N   0  0  0  0  0  0  0  0  0  0  0  0
    7.1605    0.0860   18.6028 C   0  0  0  0  0  0  0  0  0  0  0  0
    8.1113   -0.3881   18.3694 H   0  0  0  0  0  0  0  0  0  0  0  0
    6.6383    0.0296   19.9082 C   0  0  0  0  0  0  0  0  0  0  0  0
    7.3490   -0.7200   21.0065 C   0  0  2  0  0  0  0  0  0  0  0  0
    6.9266   -0.4313   21.9869 H   0  0  0  0  0  0  0  0  0  0  0  0
    8.7731   -0.5398   20.9340 N   0  0  0  0  0  0  0  0  0  0  0  0
    9.2947    0.2964   21.1174 H   0  0  0  0  0  0  0  0  0  0  0  0
    9.4631   -1.6955   21.0805 C   0  0  0  0  0  0  0  0  0  0  0  0
   10.6523   -1.7919   21.2162 O   0  0  0  0  0  0  0  0  0  0  0  0
    8.6048   -2.7420   21.0683 O   0  0  0  0  0  0  0  0  0  0  0  0
    7.2667   -2.2879   20.8752 C   0  0  1  0  0  0  0  0  0  0  0  0
    6.9466   -2.5410   19.8608 H   0  0  0  0  0  0  0  0  0  0  0  0
    6.4078   -2.9450   21.7887 N   0  0  0  0  0  0  0  0  0  0  0  0
    5.5064   -3.2678   21.4850 H   0  0  0  0  0  0  0  0  0  0  0  0
    6.6068   -3.1071   23.1485 C   0  0  0  0  0  0  0  0  0  0  0  0
    7.6490   -2.4827   23.8496 C   0  0  0  0  0  0  0  0  0  0  0  0
    8.3278   -1.8282   23.3163 H   0  0  0  0  0  0  0  0  0  0  0  0
    7.8208   -2.7178   25.2163 C   0  0  0  0  0  0  0  0  0  0  0  0
    8.6369   -2.2537   25.7663 H   0  0  0  0  0  0  0  0  0  0  0  0
    6.9405   -3.5821   25.8744 C   0  0  0  0  0  0  0  0  0  0  0  0
    7.1882   -3.9612   27.5502 Cl  0  0  0  0  0  0  0  0  0  0  0  0
    5.8726   -4.1826   25.1980 C   0  0  0  0  0  0  0  0  0  0  0  0
    5.1924   -4.8344   25.7408 H   0  0  0  0  0  0  0  0  0  0  0  0
    5.7076   -3.9401   23.8342 C   0  0  0  0  0  0  0  0  0  0  0  0
    4.8932   -4.3977   23.2760 H   0  0  0  0  0  0  0  0  0  0  0  0
    5.4178    0.6736   20.1434 C   0  0  0  0  0  0  0  0  0  0  0  0
    4.9790    0.6594   21.1419 H   0  0  0  0  0  0  0  0  0  0  0  0
    4.7785    1.3281   19.0843 C   0  0  0  0  0  0  0  0  0  0  0  0
    3.8391    1.8591   19.2199 H   0  0  0  0  0  0  0  0  0  0  0  0
  1  2  1  0
  2  3  2  0
  3  4  1  0
  4  5  1  0
  4  6  2  0
  6  7  1  0
  7  8  1  1
  7  9  1  0
  9 10  1  0
  9 11  1  0
 11 12  2  0
 11 13  1  0
 13 14  1  0
 14 15  1  6
 14 16  1  0
 16 17  1  0
 16 18  1  0
 18 19  2  0
 19 20  1  0
 19 21  1  0
 21 22  1  0
 21 23  2  0
 23 24  1  0
 23 25  1  0
 25 26  1  0
 25 27  2  0
 27 28  1  0
  6 29  1  0
 29 30  1  0
 29 31  2  0
 31 32  1  0
 31  2  1  0
 14  7  1  0
 27 18  1  0
M  END
>  <cnnaffinity>  (1) 
-5.1197

>  <filename>  (1) 
O=C1N[C@@H](c2cccnc2)[C@H](Nc2ccc(Cl)cc2)O1

$$$$
