
     RDKit          3D

 31 34  0  0  0  0  0  0  0  0999 V2000
    4.9897    1.7382   16.9636 H   0  0  0  0  0  0  0  0  0  0  0  0
    5.4460    1.2792   17.8375 C   0  0  0  0  0  0  0  0  0  0  0  0
    6.6171    0.6568   17.6372 N   0  0  0  0  0  0  0  0  0  0  0  0
    7.1852    0.0694   18.6968 C   0  0  0  0  0  0  0  0  0  0  0  0
    8.1258   -0.4444   18.5087 H   0  0  0  0  0  0  0  0  0  0  0  0
    6.6535    0.0857   20.0016 C   0  0  0  0  0  0  0  0  0  0  0  0
    7.3568   -0.6225   21.0837 C   0  0  0  0  0  0  0  0  0  0  0  0
    7.8328   -1.8744   21.1182 C   0  0  0  0  0  0  0  0  0  0  0  0
    7.7387   -2.7146   20.4525 H   0  0  0  0  0  0  0  0  0  0  0  0
    8.4503   -2.1272   22.3104 O   0  0  0  0  0  0  0  0  0  0  0  0
    8.3539   -1.0178   23.1024 C   0  0  0  0  0  0  0  0  0  0  0  0
    8.7917   -0.9556   24.2212 O   0  0  0  0  0  0  0  0  0  0  0  0
    7.6633   -0.0651   22.3509 N   0  0  0  0  0  0  0  0  0  0  0  0
    7.1953    1.1575   22.9139 C   0  0  0  0  0  0  0  0  0  0  0  0
    7.5002    2.3802   22.4200 C   0  0  0  0  0  0  0  0  0  0  0  0
    8.1081    2.5834   21.5487 H   0  0  0  0  0  0  0  0  0  0  0  0
    6.8524    3.6918   23.3413 S   0  0  0  0  0  0  0  0  0  0  0  0
    6.1128    2.5874   24.4671 C   0  0  0  0  0  0  0  0  0  0  0  0
    5.3473    2.9272   25.6041 C   0  0  0  0  0  0  0  0  0  0  0  0
    5.1749    3.9656   25.8736 H   0  0  0  0  0  0  0  0  0  0  0  0
    4.7975    1.9024   26.3649 C   0  0  0  0  0  0  0  0  0  0  0  0
    4.1961    2.1427   27.2422 H   0  0  0  0  0  0  0  0  0  0  0  0
    4.9903    0.5536   26.0021 C   0  0  0  0  0  0  0  0  0  0  0  0
    4.5254   -0.2324   26.5958 H   0  0  0  0  0  0  0  0  0  0  0  0
    5.7558    0.2189   24.8893 C   0  0  0  0  0  0  0  0  0  0  0  0
    5.8983   -0.8252   24.6197 H   0  0  0  0  0  0  0  0  0  0  0  0
    6.3558    1.2423   24.1103 C   0  0  0  0  0  0  0  0  0  0  0  0
    5.4246    0.7460   20.1794 C   0  0  0  0  0  0  0  0  0  0  0  0
    4.9906    0.7870   21.1771 H   0  0  0  0  0  0  0  0  0  0  0  0
    4.8043    1.3365   19.0789 C   0  0  0  0  0  0  0  0  0  0  0  0
    3.8504    1.8444   19.1720 H   0  0  0  0  0  0  0  0  0  0  0  0
  1  2  1  0
  2  3  2  0
  3  4  1  0
  4  5  1  0
  4  6  2  0
  6  7  1  0
  7  8  2  0
  8  9  1  0
  8 10  1  0
 10 11  1  0
 11 12  2  0
 11 13  1  0
 13 14  1  0
 14 15  2  0
 15 16  1  0
 15 17  1  0
 17 18  1  0
 18 19  2  0
 19 20  1  0
 19 21  1  0
 21 22  1  0
 21 23  2  0
 23 24  1  0
 23 25  1  0
 25 26  1  0
 25 27  2  0
  6 28  1  0
 28 29  1  0
 28 30  2  0
 30 31  1  0
 30  2  1  0
 13  7  1  0
 27 14  1  0
 27 18  1  0
M  END
>  <cnnaffinity>  (1) 
-5.13251

>  <filename>  (1) 
O=c1occ(-c2cccnc2)n1-c1csc2ccccc12

$$$$
