
     RDKit          3D

 29 31  0  0  0  0  0  0  0  0999 V2000
    4.0509   -5.0404   24.7260 H   0  0  0  0  0  0  0  0  0  0  0  0
    4.8992   -4.3662   24.7422 C   0  0  0  0  0  0  0  0  0  0  0  0
    5.5585   -3.8241   25.7588 C   0  0  0  0  0  0  0  0  0  0  0  0
    5.4266   -3.9048   26.8312 H   0  0  0  0  0  0  0  0  0  0  0  0
    6.6310   -2.9294   25.2234 C   0  0  0  0  0  0  0  0  0  0  0  0
    7.3952   -2.2617   25.8617 O   0  0  0  0  0  0  0  0  0  0  0  0
    6.5519   -3.0050   23.8183 N   0  0  0  0  0  0  0  0  0  0  0  0
    7.3368   -2.2232   22.9147 C   0  0  0  0  0  0  0  0  0  0  0  0
    6.6967   -1.5589   21.8920 C   0  0  0  0  0  0  0  0  0  0  0  0
    5.6293   -1.7109   21.7586 H   0  0  0  0  0  0  0  0  0  0  0  0
    7.3835   -0.7052   20.9801 C   0  0  0  0  0  0  0  0  0  0  0  0
    6.6608    0.0133   19.8979 C   0  0  0  0  0  0  0  0  0  0  0  0
    7.1677    0.0714   18.5840 C   0  0  0  0  0  0  0  0  0  0  0  0
    8.1082   -0.4236   18.3386 H   0  0  0  0  0  0  0  0  0  0  0  0
    6.5537    0.6824   17.5635 N   0  0  0  0  0  0  0  0  0  0  0  0
    5.3917    1.2999   17.8272 C   0  0  0  0  0  0  0  0  0  0  0  0
    4.9152    1.7950   16.9842 H   0  0  0  0  0  0  0  0  0  0  0  0
    4.8035    1.3176   19.0956 C   0  0  0  0  0  0  0  0  0  0  0  0
    3.8718    1.8446   19.2477 H   0  0  0  0  0  0  0  0  0  0  0  0
    5.4398    0.6548   20.1445 C   0  0  0  0  0  0  0  0  0  0  0  0
    5.0210    0.6329   21.1519 H   0  0  0  0  0  0  0  0  0  0  0  0
    8.7318   -0.5497   21.1207 C   0  0  0  0  0  0  0  0  0  0  0  0
    9.3140    0.0954   20.4694 H   0  0  0  0  0  0  0  0  0  0  0  0
    9.3801   -1.2046   22.1173 N   0  0  0  0  0  0  0  0  0  0  0  0
   10.3728   -1.1755   22.2972 H   0  0  0  0  0  0  0  0  0  0  0  0
    8.8306   -2.0824   23.0527 C   0  0  0  0  0  0  0  0  0  0  0  0
    9.6300   -2.5993   23.8089 O   0  0  0  0  0  0  0  0  0  0  0  0
    5.5008   -3.8737   23.4622 C   0  0  0  0  0  0  0  0  0  0  0  0
    5.1723   -4.1799   22.3461 O   0  0  0  0  0  0  0  0  0  0  0  0
  1  2  1  0
  2  3  2  0
  3  4  1  0
  3  5  1  0
  5  6  2  0
  5  7  1  0
  7  8  1  0
  8  9  2  0
  9 10  1  0
  9 11  1  0
 11 12  1  0
 12 13  2  0
 13 14  1  0
 13 15  1  0
 15 16  2  0
 16 17  1  0
 16 18  1  0
 18 19  1  0
 18 20  2  0
 20 21  1  0
 11 22  2  0
 22 23  1  0
 22 24  1  0
 24 25  1  0
 24 26  1  0
 26 27  2  0
  7 28  1  0
 28 29  2  0
 28  2  1  0
 26  8  1  0
 20 12  1  0
M  END
>  <cnnaffinity>  (1) 
-5.02944

>  <filename>  (1) 
O=C1C=CC(=O)N1c1cc(-c2cccnc2)c[nH]c1=O

$$$$
