
     RDKit          3D

 30 32  0  0  0  0  0  0  0  0999 V2000
    5.0482    1.7736   16.9605 H   0  0  0  0  0  0  0  0  0  0  0  0
    5.5043    1.2790   17.8173 C   0  0  0  0  0  0  0  0  0  0  0  0
    6.6835    0.6769   17.6000 N   0  0  0  0  0  0  0  0  0  0  0  0
    7.2770    0.0725   18.6380 C   0  0  0  0  0  0  0  0  0  0  0  0
    8.2425   -0.3867   18.4285 H   0  0  0  0  0  0  0  0  0  0  0  0
    6.7197    0.0078   19.9280 C   0  0  0  0  0  0  0  0  0  0  0  0
    7.4355   -0.7000   21.0570 C   0  0  2  0  0  0  0  0  0  0  0  0
    7.0971   -0.2907   22.0183 H   0  0  0  0  0  0  0  0  0  0  0  0
    8.8400   -0.4446   20.9326 O   0  0  0  0  0  0  0  0  0  0  0  0
    9.5523   -1.5664   21.2087 C   0  0  0  0  0  0  0  0  0  0  0  0
   10.7395   -1.6135   21.3619 O   0  0  0  0  0  0  0  0  0  0  0  0
    8.7002   -2.6209   21.2578 N   0  0  0  0  0  0  0  0  0  0  0  0
    9.1053   -3.4982   21.5211 H   0  0  0  0  0  0  0  0  0  0  0  0
    7.3165   -2.2634   21.0869 C   0  0  1  0  0  0  0  0  0  0  0  0
    6.9600   -2.6014   20.1037 H   0  0  0  0  0  0  0  0  0  0  0  0
    6.3475   -2.8410   22.1178 C   0  0  0  0  0  0  0  0  0  0  0  0
    5.2621   -3.5975   21.6455 C   0  0  0  0  0  0  0  0  0  0  0  0
    5.1810   -3.7485   20.5774 H   0  0  0  0  0  0  0  0  0  0  0  0
    4.3498   -4.2232   22.4936 C   0  0  0  0  0  0  0  0  0  0  0  0
    3.5051   -4.7630   22.0692 H   0  0  0  0  0  0  0  0  0  0  0  0
    4.5307   -4.1124   23.8736 C   0  0  0  0  0  0  0  0  0  0  0  0
    3.8758   -4.6518   24.5493 H   0  0  0  0  0  0  0  0  0  0  0  0
    5.5695   -3.3277   24.3860 C   0  0  0  0  0  0  0  0  0  0  0  0
    5.7012   -3.2029   25.4574 H   0  0  0  0  0  0  0  0  0  0  0  0
    6.4789   -2.7133   23.5133 C   0  0  0  0  0  0  0  0  0  0  0  0
    7.7855   -1.8076   24.2358 Cl  0  0  0  0  0  0  0  0  0  0  0  0
    5.4926    0.6517   20.1326 C   0  0  0  0  0  0  0  0  0  0  0  0
    5.0453    0.6603   21.1278 H   0  0  0  0  0  0  0  0  0  0  0  0
    4.8696    1.2954   19.0617 C   0  0  0  0  0  0  0  0  0  0  0  0
    3.9224    1.8096   19.1810 H   0  0  0  0  0  0  0  0  0  0  0  0
  1  2  1  0
  2  3  2  0
  3  4  1  0
  4  5  1  0
  4  6  2  0
  6  7  1  0
  7  8  1  1
  7  9  1  0
  9 10  1  0
 10 11  2  0
 10 12  1  0
 12 13  1  0
 12 14  1  0
 14 15  1  6
 14 16  1  0
 16 17  2  0
 17 18  1  0
 17 19  1  0
 19 20  1  0
 19 21  2  0
 21 22  1  0
 21 23  1  0
 23 24  1  0
 23 25  2  0
 25 26  1  0
  6 27  1  0
 27 28  1  0
 27 29  2  0
 29 30  1  0
 29  2  1  0
 14  7  1  0
 25 16  1  0
M  END
>  <cnnaffinity>  (1) 
-4.61482

>  <filename>  (1) 
O=C1N[C@@H](c2ccccc2Cl)[C@H](c2cccnc2)O1

$$$$
