
     RDKit          3D

 33 35  0  0  0  0  0  0  0  0999 V2000
    4.9920    1.8769   16.7707 H   0  0  0  0  0  0  0  0  0  0  0  0
    5.4156    1.4029   17.6528 C   0  0  0  0  0  0  0  0  0  0  0  0
    6.5979    0.7867   17.4899 N   0  0  0  0  0  0  0  0  0  0  0  0
    7.1417    0.2253   18.5731 C   0  0  0  0  0  0  0  0  0  0  0  0
    8.1033   -0.2574   18.4128 H   0  0  0  0  0  0  0  0  0  0  0  0
    6.5600    0.2196   19.8537 C   0  0  0  0  0  0  0  0  0  0  0  0
    7.2112   -0.5386   20.9153 C   0  0  0  0  0  0  0  0  0  0  0  0
    8.1531   -1.5086   20.8192 C   0  0  0  0  0  0  0  0  0  0  0  0
    8.7553   -1.8219   19.9871 H   0  0  0  0  0  0  0  0  0  0  0  0
    8.2509   -2.1435   22.0453 N   0  0  0  0  0  0  0  0  0  0  0  0
    9.1437   -3.2171   22.2908 N   0  0  0  0  0  0  0  0  0  0  0  0
    9.7530   -3.3099   21.4754 H   0  0  0  0  0  0  0  0  0  0  0  0
    9.9639   -2.9667   23.4929 C   0  0  0  0  0  0  0  0  0  0  0  0
    9.2912   -2.9707   24.3545 H   0  0  0  0  0  0  0  0  0  0  0  0
   10.6310   -3.8300   23.5907 H   0  0  0  0  0  0  0  0  0  0  0  0
   10.7285   -1.6499   23.5003 C   0  0  0  0  0  0  0  0  0  0  0  0
   10.6032   -0.7494   24.5743 C   0  0  0  0  0  0  0  0  0  0  0  0
    9.8609   -0.9153   25.3494 H   0  0  0  0  0  0  0  0  0  0  0  0
   11.4466    0.3652   24.6389 C   0  0  0  0  0  0  0  0  0  0  0  0
   11.4055    1.0260   25.5047 H   0  0  0  0  0  0  0  0  0  0  0  0
   12.3560    0.6601   23.7012 N   0  0  0  0  0  0  0  0  0  0  0  0
   12.4198   -0.1518   22.6370 C   0  0  0  0  0  0  0  0  0  0  0  0
   13.1496    0.1147   21.8740 H   0  0  0  0  0  0  0  0  0  0  0  0
   11.6484   -1.3101   22.4952 C   0  0  0  0  0  0  0  0  0  0  0  0
   11.7973   -1.9509   21.6304 H   0  0  0  0  0  0  0  0  0  0  0  0
    7.4321   -1.4793   22.9781 C   0  0  0  0  0  0  0  0  0  0  0  0
    7.3226   -1.6373   24.1808 O   0  0  0  0  0  0  0  0  0  0  0  0
    6.7763   -0.5272   22.2359 N   0  0  0  0  0  0  0  0  0  0  0  0
    6.3396    0.2132   22.7621 H   0  0  0  0  0  0  0  0  0  0  0  0
    5.3205    0.8700   19.9987 C   0  0  0  0  0  0  0  0  0  0  0  0
    4.8168    0.8893   20.9658 H   0  0  0  0  0  0  0  0  0  0  0  0
    4.7429    1.4666   18.8797 C   0  0  0  0  0  0  0  0  0  0  0  0
    3.7977    1.9959   18.9550 H   0  0  0  0  0  0  0  0  0  0  0  0
  1  2  1  0
  2  3  2  0
  3  4  1  0
  4  5  1  0
  4  6  2  0
  6  7  1  0
  7  8  2  0
  8  9  1  0
  8 10  1  0
 10 11  1  0
 11 12  1  0
 11 13  1  0
 13 14  1  0
 13 15  1  0
 13 16  1  0
 16 17  2  0
 17 18  1  0
 17 19  1  0
 19 20  1  0
 19 21  2  0
 21 22  1  0
 22 23  1  0
 22 24  2  0
 24 25  1  0
 10 26  1  0
 26 27  2  0
 26 28  1  0
 28 29  1  0
  6 30  1  0
 30 31  1  0
 30 32  2  0
 32 33  1  0
 32  2  1  0
 28  7  1  0
 24 16  1  0
M  END
>  <cnnaffinity>  (1) 
-5.19289

>  <filename>  (1) 
O=c1[nH]c(-c2cccnc2)cn1NCc1ccncc1

$$$$
