
     RDKit          3D

 33 35  0  0  0  0  0  0  0  0999 V2000
    4.9419    1.8711   16.9517 H   0  0  0  0  0  0  0  0  0  0  0  0
    5.4042    1.3391   17.7823 C   0  0  0  0  0  0  0  0  0  0  0  0
    6.5643    0.7167   17.5146 N   0  0  0  0  0  0  0  0  0  0  0  0
    7.1645    0.0689   18.5202 C   0  0  0  0  0  0  0  0  0  0  0  0
    8.1131   -0.4117   18.2824 H   0  0  0  0  0  0  0  0  0  0  0  0
    6.6289   -0.0255   19.8237 C   0  0  0  0  0  0  0  0  0  0  0  0
    7.3419   -0.6967   20.8962 N   0  0  0  0  0  0  0  0  0  0  0  0
    8.5858   -0.2052   21.2415 C   0  0  0  0  0  0  0  0  0  0  0  0
    8.9065    0.7076   20.7323 H   0  0  0  0  0  0  0  0  0  0  0  0
    9.3606   -0.8297   22.1524 C   0  0  0  0  0  0  0  0  0  0  0  0
   10.7168   -0.3853   22.3807 C   0  0  0  0  0  0  0  0  0  0  0  0
   10.8371    0.9462   22.4244 N   0  0  0  0  0  0  0  0  0  0  0  0
   12.0467    1.4903   22.6014 C   0  0  0  0  0  0  0  0  0  0  0  0
   12.1019    3.0385   22.6742 C   0  0  0  0  0  0  0  0  0  0  0  0
   13.0472    3.5435   21.8551 F   0  0  0  0  0  0  0  0  0  0  0  0
   10.9450    3.6177   22.3456 F   0  0  0  0  0  0  0  0  0  0  0  0
   12.4122    3.4615   23.9145 F   0  0  0  0  0  0  0  0  0  0  0  0
   13.2123    0.7060   22.6923 C   0  0  0  0  0  0  0  0  0  0  0  0
   14.1910    1.1611   22.8140 H   0  0  0  0  0  0  0  0  0  0  0  0
   13.0900   -0.6823   22.5621 C   0  0  0  0  0  0  0  0  0  0  0  0
   13.9727   -1.3203   22.5638 H   0  0  0  0  0  0  0  0  0  0  0  0
   11.8225   -1.2461   22.4170 C   0  0  0  0  0  0  0  0  0  0  0  0
   11.6582   -2.3111   22.3112 H   0  0  0  0  0  0  0  0  0  0  0  0
    8.8625   -1.9426   22.9303 C   0  0  0  0  0  0  0  0  0  0  0  0
    9.4324   -2.6047   23.7688 O   0  0  0  0  0  0  0  0  0  0  0  0
    7.5542   -2.2445   22.6379 N   0  0  0  0  0  0  0  0  0  0  0  0
    7.1659   -3.0134   23.1407 H   0  0  0  0  0  0  0  0  0  0  0  0
    6.7707   -1.7735   21.6304 C   0  0  0  0  0  0  0  0  0  0  0  0
    5.6971   -2.2805   21.4072 O   0  0  0  0  0  0  0  0  0  0  0  0
    5.4183    0.6212   20.0861 C   0  0  0  0  0  0  0  0  0  0  0  0
    4.9877    0.5825   21.0866 H   0  0  0  0  0  0  0  0  0  0  0  0
    4.7978    1.3193   19.0426 C   0  0  0  0  0  0  0  0  0  0  0  0
    3.8679    1.8580   19.1991 H   0  0  0  0  0  0  0  0  0  0  0  0
  1  2  1  0
  2  3  2  0
  3  4  1  0
  4  5  1  0
  4  6  2  0
  6  7  1  0
  7  8  1  0
  8  9  1  0
  8 10  2  0
 10 11  1  0
 11 12  2  0
 12 13  1  0
 13 14  1  0
 14 15  1  0
 14 16  1  0
 14 17  1  0
 13 18  2  0
 18 19  1  0
 18 20  1  0
 20 21  1  0
 20 22  2  0
 22 23  1  0
 10 24  1  0
 24 25  2  0
 24 26  1  0
 26 27  1  0
 26 28  1  0
 28 29  2  0
  6 30  1  0
 30 31  1  0
 30 32  2  0
 32 33  1  0
 32  2  1  0
 28  7  1  0
 22 11  1  0
M  END
>  <cnnaffinity>  (1) 
-5.58856

>  <filename>  (1) 
O=c1[nH]c(=O)n(-c2cccnc2)cc1-c1cccc(C(F)(F)F)n1

$$$$
