
     RDKit          3D

 42 46  0  0  0  0  0  0  0  0999 V2000
    9.8491   -2.1020   25.2440 O   0  0  0  0  0  0  0  0  0  0  0  0
   10.3801   -1.2136   24.6143 C   0  0  0  0  0  0  0  0  0  0  0  0
   11.1531   -0.0168   25.1496 C   0  0  0  0  0  0  0  0  0  0  0  0
   11.4074    0.8038   23.9144 C   0  0  0  0  0  0  0  0  0  0  0  0
   12.1156    1.9785   23.7099 C   0  0  0  0  0  0  0  0  0  0  0  0
   12.2281    2.4775   22.4088 C   0  0  0  0  0  0  0  0  0  0  0  0
   12.9839    3.5689   22.1913 F   0  0  0  0  0  0  0  0  0  0  0  0
   11.6063    1.8547   21.3225 C   0  0  0  0  0  0  0  0  0  0  0  0
   10.8768    0.6785   21.5356 C   0  0  0  0  0  0  0  0  0  0  0  0
   10.8491    0.1269   22.8210 C   0  0  0  0  0  0  0  0  0  0  0  0
   10.3552   -1.1113   23.2368 N   0  0  0  0  0  0  0  0  0  0  0  0
    9.7634   -2.1204   22.3620 C   0  0  0  0  0  0  0  0  0  0  0  0
    8.4139   -1.7031   21.8653 C   0  0  0  0  0  0  0  0  0  0  0  0
    8.1501   -1.2727   20.6504 N   0  0  0  0  0  0  0  0  0  0  0  0
    6.9227   -0.7050   20.7929 C   0  0  0  0  0  0  0  0  0  0  0  0
    6.3191    0.0390   19.6973 C   0  0  0  0  0  0  0  0  0  0  0  0
    5.1468    0.7949   19.8461 C   0  0  0  0  0  0  0  0  0  0  0  0
    4.6822    1.4937   18.7376 C   0  0  0  0  0  0  0  0  0  0  0  0
    5.3997    1.4182   17.5370 C   0  0  0  0  0  0  0  0  0  0  0  0
    6.5260    0.7042   17.3890 N   0  0  0  0  0  0  0  0  0  0  0  0
    6.9748    0.0397   18.4584 C   0  0  0  0  0  0  0  0  0  0  0  0
    7.9015   -0.5152   18.3267 H   0  0  0  0  0  0  0  0  0  0  0  0
    5.0538    1.9582   16.6590 H   0  0  0  0  0  0  0  0  0  0  0  0
    3.7922    2.1097   18.7942 H   0  0  0  0  0  0  0  0  0  0  0  0
    4.6390    0.8372   20.8129 H   0  0  0  0  0  0  0  0  0  0  0  0
    6.4059   -0.8150   21.9985 N   0  0  0  0  0  0  0  0  0  0  0  0
    7.3626   -1.4846   22.6898 N   0  0  0  0  0  0  0  0  0  0  0  0
    7.2124   -1.7474   24.1059 C   0  0  0  0  0  0  0  0  0  0  0  0
    7.2089   -3.1472   24.6518 C   0  0  0  0  0  0  0  0  0  0  0  0
    5.9452   -2.3481   24.6459 C   0  0  0  0  0  0  0  0  0  0  0  0
    5.1939   -2.6374   23.9188 H   0  0  0  0  0  0  0  0  0  0  0  0
    5.5602   -1.9410   25.5782 H   0  0  0  0  0  0  0  0  0  0  0  0
    7.7294   -3.3140   25.5912 H   0  0  0  0  0  0  0  0  0  0  0  0
    7.2697   -3.9632   23.9365 H   0  0  0  0  0  0  0  0  0  0  0  0
    7.6666   -0.9784   24.7271 H   0  0  0  0  0  0  0  0  0  0  0  0
    9.7067   -3.0565   22.9222 H   0  0  0  0  0  0  0  0  0  0  0  0
   10.4100   -2.2760   21.4925 H   0  0  0  0  0  0  0  0  0  0  0  0
   10.3313    0.1971   20.7331 H   0  0  0  0  0  0  0  0  0  0  0  0
   11.7031    2.3037   20.3368 H   0  0  0  0  0  0  0  0  0  0  0  0
   12.5620    2.5133   24.5300 H   0  0  0  0  0  0  0  0  0  0  0  0
   10.5636    0.4696   25.9293 H   0  0  0  0  0  0  0  0  0  0  0  0
   12.0769   -0.3717   25.6066 H   0  0  0  0  0  0  0  0  0  0  0  0
  1  2  2  0
  2  3  1  0
  3  4  1  0
  4  5  2  0
  5  6  1  0
  6  7  1  0
  6  8  2  0
  8  9  1  0
  9 10  2  0
 10 11  1  0
 11 12  1  0
 12 13  1  0
 13 14  2  0
 14 15  1  0
 15 16  1  0
 16 17  2  0
 17 18  1  0
 18 19  2  0
 19 20  1  0
 20 21  2  0
 21 22  1  0
 19 23  1  0
 18 24  1  0
 17 25  1  0
 15 26  2  0
 26 27  1  0
 27 28  1  0
 28 29  1  0
 29 30  1  0
 30 31  1  0
 30 32  1  0
 29 33  1  0
 29 34  1  0
 28 35  1  0
 12 36  1  0
 12 37  1  0
  9 38  1  0
  8 39  1  0
  5 40  1  0
  3 41  1  0
  3 42  1  0
 11  2  1  0
 27 13  1  0
 30 28  1  0
 10  4  1  0
 21 16  1  0
M  END
>  <cnnaffinity>  (1) 
-5.60333

>  <filename>  (1) 
O=C1Cc2cc(F)ccc2N1Cc1nc(-c2cccnc2)nn1C1CC1

$$$$
