
     RDKit          3D

 35 38  0  0  0  0  0  0  0  0999 V2000
    4.9594    1.8444   17.0319 H   0  0  0  0  0  0  0  0  0  0  0  0
    5.4199    1.2862   17.8461 C   0  0  0  0  0  0  0  0  0  0  0  0
    6.5596    0.6365   17.5616 N   0  0  0  0  0  0  0  0  0  0  0  0
    7.1737   -0.0097   18.5603 C   0  0  0  0  0  0  0  0  0  0  0  0
    8.1136   -0.4989   18.3208 H   0  0  0  0  0  0  0  0  0  0  0  0
    6.6706   -0.0589   19.8715 C   0  0  0  0  0  0  0  0  0  0  0  0
    7.3778   -0.7108   20.9321 N   0  0  0  0  0  0  0  0  0  0  0  0
    6.6237   -1.5882   21.6562 N   0  0  0  0  0  0  0  0  0  0  0  0
    7.1666   -2.2383   22.6651 C   0  0  0  0  0  0  0  0  0  0  0  0
    6.2707   -3.2559   23.3078 C   0  0  0  0  0  0  0  0  0  0  0  0
    5.4323   -4.0346   22.5201 C   0  0  0  0  0  0  0  0  0  0  0  0
    5.3853   -3.8392   21.4538 H   0  0  0  0  0  0  0  0  0  0  0  0
    4.6344   -5.0737   23.0590 C   0  0  0  0  0  0  0  0  0  0  0  0
    4.0411   -5.6969   22.3942 H   0  0  0  0  0  0  0  0  0  0  0  0
    4.6079   -5.3009   24.4145 C   0  0  0  0  0  0  0  0  0  0  0  0
    3.9881   -6.0899   24.8376 H   0  0  0  0  0  0  0  0  0  0  0  0
    5.3979   -4.4968   25.2769 C   0  0  0  0  0  0  0  0  0  0  0  0
    5.3743   -4.6634   26.6896 C   0  0  0  0  0  0  0  0  0  0  0  0
    4.7485   -5.4351   27.1424 H   0  0  0  0  0  0  0  0  0  0  0  0
    6.1422   -3.8319   27.4644 C   0  0  0  0  0  0  0  0  0  0  0  0
    6.1319   -3.9127   28.5400 H   0  0  0  0  0  0  0  0  0  0  0  0
    6.9636   -2.8577   26.8327 C   0  0  0  0  0  0  0  0  0  0  0  0
    7.5929   -2.2166   27.4487 H   0  0  0  0  0  0  0  0  0  0  0  0
    7.0380   -2.6864   25.5345 N   0  0  0  0  0  0  0  0  0  0  0  0
    6.2525   -3.4672   24.7294 C   0  0  0  0  0  0  0  0  0  0  0  0
    8.5592   -2.0428   22.9971 C   0  0  0  0  0  0  0  0  0  0  0  0
    8.9845   -2.5749   23.8387 H   0  0  0  0  0  0  0  0  0  0  0  0
    9.3178   -1.1899   22.2577 C   0  0  0  0  0  0  0  0  0  0  0  0
   10.3735   -1.0197   22.4188 H   0  0  0  0  0  0  0  0  0  0  0  0
    8.7619   -0.4090   21.1704 C   0  0  0  0  0  0  0  0  0  0  0  0
    9.3844    0.4017   20.5099 O   0  0  0  0  0  0  0  0  0  0  0  0
    5.4457    0.5522   20.1441 C   0  0  0  0  0  0  0  0  0  0  0  0
    5.0144    0.4449   21.1385 H   0  0  0  0  0  0  0  0  0  0  0  0
    4.8314    1.2682   19.1158 C   0  0  0  0  0  0  0  0  0  0  0  0
    3.9129    1.8124   19.2874 H   0  0  0  0  0  0  0  0  0  0  0  0
  1  2  1  0
  2  3  2  0
  3  4  1  0
  4  5  1  0
  4  6  2  0
  6  7  1  0
  7  8  1  0
  8  9  2  0
  9 10  1  0
 10 11  2  0
 11 12  1  0
 11 13  1  0
 13 14  1  0
 13 15  2  0
 15 16  1  0
 15 17  1  0
 17 18  2  0
 18 19  1  0
 18 20  1  0
 20 21  1  0
 20 22  2  0
 22 23  1  0
 22 24  1  0
 24 25  2  0
  9 26  1  0
 26 27  1  0
 26 28  2  0
 28 29  1  0
 28 30  1  0
 30 31  2  0
  6 32  1  0
 32 33  1  0
 32 34  2  0
 34 35  1  0
 34  2  1  0
 30  7  1  0
 25 10  1  0
 25 17  1  0
M  END
>  <cnnaffinity>  (1) 
-5.55516

>  <filename>  (1) 
O=c1ccc(-c2cccc3cccnc23)nn1-c1cccnc1

$$$$
