
     RDKit          3D

 30 32  0  0  0  0  0  0  0  0999 V2000
    5.0817    1.8572   16.9150 H   0  0  0  0  0  0  0  0  0  0  0  0
    5.5156    1.3470   17.7745 C   0  0  0  0  0  0  0  0  0  0  0  0
    6.7153    0.7727   17.5706 N   0  0  0  0  0  0  0  0  0  0  0  0
    7.2839    0.1429   18.6057 C   0  0  0  0  0  0  0  0  0  0  0  0
    8.2834   -0.2658   18.4547 H   0  0  0  0  0  0  0  0  0  0  0  0
    6.6403   -0.0208   19.8473 C   0  0  0  0  0  0  0  0  0  0  0  0
    7.2770   -0.7560   20.9004 N   0  0  0  0  0  0  0  0  0  0  0  0
    8.5774   -0.4014   21.1062 N   0  0  0  0  0  0  0  0  0  0  0  0
    9.2055   -0.8593   22.1628 C   0  0  0  0  0  0  0  0  0  0  0  0
   10.6106   -0.3617   22.2956 C   0  0  0  0  0  0  0  0  0  0  0  0
   10.8628    1.0182   22.1533 C   0  0  0  0  0  0  0  0  0  0  0  0
   10.0179    1.6813   21.9784 H   0  0  0  0  0  0  0  0  0  0  0  0
   12.1538    1.5366   22.2294 C   0  0  0  0  0  0  0  0  0  0  0  0
   12.3442    2.5953   22.1067 H   0  0  0  0  0  0  0  0  0  0  0  0
   13.2183    0.6521   22.4113 C   0  0  0  0  0  0  0  0  0  0  0  0
   14.8131    1.2709   22.6230 Cl  0  0  0  0  0  0  0  0  0  0  0  0
   13.0247   -0.7223   22.4790 C   0  0  0  0  0  0  0  0  0  0  0  0
   13.8820   -1.3799   22.5384 H   0  0  0  0  0  0  0  0  0  0  0  0
   11.7153   -1.2116   22.4685 C   0  0  0  0  0  0  0  0  0  0  0  0
   11.5188   -2.9156   22.6856 Cl  0  0  0  0  0  0  0  0  0  0  0  0
    8.5577   -1.7597   23.0909 C   0  0  0  0  0  0  0  0  0  0  0  0
    9.0802   -2.0663   23.9959 H   0  0  0  0  0  0  0  0  0  0  0  0
    7.3063   -2.2189   22.8103 C   0  0  0  0  0  0  0  0  0  0  0  0
    6.7705   -2.9474   23.4104 H   0  0  0  0  0  0  0  0  0  0  0  0
    6.5823   -1.8068   21.6113 C   0  0  0  0  0  0  0  0  0  0  0  0
    5.5405   -2.2973   21.2211 O   0  0  0  0  0  0  0  0  0  0  0  0
    5.3932    0.5763   20.0571 C   0  0  0  0  0  0  0  0  0  0  0  0
    4.8990    0.4993   21.0254 H   0  0  0  0  0  0  0  0  0  0  0  0
    4.8327    1.2913   18.9922 C   0  0  0  0  0  0  0  0  0  0  0  0
    3.8819    1.8041   19.0966 H   0  0  0  0  0  0  0  0  0  0  0  0
  1  2  1  0
  2  3  2  0
  3  4  1  0
  4  5  1  0
  4  6  2  0
  6  7  1  0
  7  8  1  0
  8  9  2  0
  9 10  1  0
 10 11  2  0
 11 12  1  0
 11 13  1  0
 13 14  1  0
 13 15  2  0
 15 16  1  0
 15 17  1  0
 17 18  1  0
 17 19  2  0
 19 20  1  0
  9 21  1  0
 21 22  1  0
 21 23  2  0
 23 24  1  0
 23 25  1  0
 25 26  2  0
  6 27  1  0
 27 28  1  0
 27 29  2  0
 29 30  1  0
 29  2  1  0
 25  7  1  0
 19 10  1  0
M  END
>  <cnnaffinity>  (1) 
-5.72555

>  <filename>  (1) 
O=c1ccc(-c2ccc(Cl)cc2Cl)nn1-c1cccnc1

$$$$
