
     RDKit          3D

 36 39  0  0  0  0  0  0  0  0999 V2000
    4.9121    1.7935   17.0005 H   0  0  0  0  0  0  0  0  0  0  0  0
    5.3921    1.2934   17.8385 C   0  0  0  0  0  0  0  0  0  0  0  0
    6.5536    0.6821   17.5591 N   0  0  0  0  0  0  0  0  0  0  0  0
    7.1806    0.0679   18.5666 C   0  0  0  0  0  0  0  0  0  0  0  0
    8.1276   -0.4208   18.3481 H   0  0  0  0  0  0  0  0  0  0  0  0
    6.6891    0.0196   19.8922 C   0  0  0  0  0  0  0  0  0  0  0  0
    7.4310   -0.6130   20.9227 N   0  0  0  0  0  0  0  0  0  0  0  0
    7.6853   -1.9742   20.9993 C   0  0  0  0  0  0  0  0  0  0  0  0
    7.0433   -2.8986   20.5745 O   0  0  0  0  0  0  0  0  0  0  0  0
    8.8387   -2.0880   21.7430 N   0  0  0  0  0  0  0  0  0  0  0  0
    9.2730   -2.9664   21.9336 H   0  0  0  0  0  0  0  0  0  0  0  0
    9.0621   -1.0111   22.5417 C   0  0  0  0  0  0  0  0  0  0  0  0
    9.8621   -1.0042   23.4418 O   0  0  0  0  0  0  0  0  0  0  0  0
    8.0893    0.0751   22.0479 C   0  0  2  0  0  0  0  0  0  0  0  0
    8.7114    0.9159   21.7195 H   0  0  0  0  0  0  0  0  0  0  0  0
    7.0887    0.5203   23.1031 C   0  0  0  0  0  0  0  0  0  0  0  0
    6.5296   -0.4120   23.9572 C   0  0  0  0  0  0  0  0  0  0  0  0
    6.7841   -1.4655   23.8587 H   0  0  0  0  0  0  0  0  0  0  0  0
    5.6151   -0.0318   24.9740 C   0  0  0  0  0  0  0  0  0  0  0  0
    5.2156   -0.7956   25.6390 H   0  0  0  0  0  0  0  0  0  0  0  0
    5.2392    1.2828   25.1121 C   0  0  0  0  0  0  0  0  0  0  0  0
    4.5509    1.5927   25.8955 H   0  0  0  0  0  0  0  0  0  0  0  0
    5.7414    2.2756   24.2130 C   0  0  0  0  0  0  0  0  0  0  0  0
    5.3303    3.6383   24.3191 C   0  0  0  0  0  0  0  0  0  0  0  0
    4.6508    3.9023   25.1266 H   0  0  0  0  0  0  0  0  0  0  0  0
    5.7704    4.5836   23.4240 C   0  0  0  0  0  0  0  0  0  0  0  0
    5.4473    5.6185   23.5153 H   0  0  0  0  0  0  0  0  0  0  0  0
    6.6396    4.2120   22.3654 C   0  0  0  0  0  0  0  0  0  0  0  0
    6.9730    4.9635   21.6519 H   0  0  0  0  0  0  0  0  0  0  0  0
    7.0620    2.9063   22.2401 C   0  0  0  0  0  0  0  0  0  0  0  0
    7.7041    2.6353   21.4062 H   0  0  0  0  0  0  0  0  0  0  0  0
    6.6554    1.8969   23.1730 C   0  0  0  0  0  0  0  0  0  0  0  0
    5.4687    0.6455   20.1662 C   0  0  0  0  0  0  0  0  0  0  0  0
    5.0773    0.6173   21.1858 H   0  0  0  0  0  0  0  0  0  0  0  0
    4.8157    1.2987   19.1144 C   0  0  0  0  0  0  0  0  0  0  0  0
    3.8831    1.8258   19.2659 H   0  0  0  0  0  0  0  0  0  0  0  0
  1  2  1  0
  2  3  2  0
  3  4  1  0
  4  5  1  0
  4  6  2  0
  6  7  1  0
  7  8  1  0
  8  9  2  0
  8 10  1  0
 10 11  1  0
 10 12  1  0
 12 13  2  0
 12 14  1  0
 14 15  1  6
 14 16  1  0
 16 17  2  0
 17 18  1  0
 17 19  1  0
 19 20  1  0
 19 21  2  0
 21 22  1  0
 21 23  1  0
 23 24  2  0
 24 25  1  0
 24 26  1  0
 26 27  1  0
 26 28  2  0
 28 29  1  0
 28 30  1  0
 30 31  1  0
 30 32  2  0
  6 33  1  0
 33 34  1  0
 33 35  2  0
 35 36  1  0
 35  2  1  0
 14  7  1  0
 32 16  1  0
 32 23  1  0
M  END
>  <cnnaffinity>  (1) 
-4.67598

>  <filename>  (1) 
O=C1NC(=O)N(c2cccnc2)[C@H]1c1cccc2ccccc12

$$$$
