
     RDKit          3D

 31 33  0  0  0  0  0  0  0  0999 V2000
    8.8435   -1.8868   20.1989 H   0  0  0  0  0  0  0  0  0  0  0  0
    8.4305   -1.4069   21.0747 C   0  0  0  0  0  0  0  0  0  0  0  0
    7.5569   -0.3894   21.0788 C   0  0  0  0  0  0  0  0  0  0  0  0
    6.8306    0.1826   19.9202 C   0  0  0  0  0  0  0  0  0  0  0  0
    7.2746    0.0679   18.5760 C   0  0  0  0  0  0  0  0  0  0  0  0
    8.2165   -0.4319   18.3510 H   0  0  0  0  0  0  0  0  0  0  0  0
    6.6203    0.5700   17.5205 N   0  0  0  0  0  0  0  0  0  0  0  0
    5.4678    1.2163   17.7660 C   0  0  0  0  0  0  0  0  0  0  0  0
    4.9533    1.6253   16.9006 H   0  0  0  0  0  0  0  0  0  0  0  0
    4.9339    1.3857   19.0454 C   0  0  0  0  0  0  0  0  0  0  0  0
    4.0023    1.9241   19.1812 H   0  0  0  0  0  0  0  0  0  0  0  0
    5.6220    0.8636   20.1373 C   0  0  0  0  0  0  0  0  0  0  0  0
    5.2518    0.9790   21.1540 H   0  0  0  0  0  0  0  0  0  0  0  0
    7.3359    0.0322   22.5220 C   0  0  0  0  0  0  0  0  0  0  0  0
    6.7308    0.9852   22.9682 O   0  0  0  0  0  0  0  0  0  0  0  0
    7.9726   -0.9533   23.2793 N   0  0  0  0  0  0  0  0  0  0  0  0
    8.4925   -0.6327   24.5337 O   0  0  0  0  0  0  0  0  0  0  0  0
    7.5900   -0.5331   25.5956 C   0  0  0  0  0  0  0  0  0  0  0  0
    6.2096   -0.7644   25.5458 C   0  0  0  0  0  0  0  0  0  0  0  0
    5.7464   -1.1125   24.6282 H   0  0  0  0  0  0  0  0  0  0  0  0
    5.4374   -0.5151   26.6900 C   0  0  0  0  0  0  0  0  0  0  0  0
    4.3610   -0.6729   26.6495 H   0  0  0  0  0  0  0  0  0  0  0  0
    6.0215   -0.0570   27.8739 C   0  0  0  0  0  0  0  0  0  0  0  0
    5.4243    0.1416   28.7622 H   0  0  0  0  0  0  0  0  0  0  0  0
    7.4058    0.1429   27.9005 C   0  0  0  0  0  0  0  0  0  0  0  0
    8.1302    0.8233   29.3282 Cl  0  0  0  0  0  0  0  0  0  0  0  0
    8.2046   -0.1347   26.7897 C   0  0  0  0  0  0  0  0  0  0  0  0
    9.2836   -0.0546   26.8382 H   0  0  0  0  0  0  0  0  0  0  0  0
    8.8083   -1.8309   22.4650 C   0  0  0  0  0  0  0  0  0  0  0  0
    9.8755   -1.6871   22.6769 H   0  0  0  0  0  0  0  0  0  0  0  0
    8.5684   -2.8829   22.6627 H   0  0  0  0  0  0  0  0  0  0  0  0
  1  2  1  0
  2  3  2  0
  3  4  1  0
  4  5  2  0
  5  6  1  0
  5  7  1  0
  7  8  2  0
  8  9  1  0
  8 10  1  0
 10 11  1  0
 10 12  2  0
 12 13  1  0
  3 14  1  0
 14 15  2  0
 14 16  1  0
 16 17  1  0
 17 18  1  0
 18 19  2  0
 19 20  1  0
 19 21  1  0
 21 22  1  0
 21 23  2  0
 23 24  1  0
 23 25  1  0
 25 26  1  0
 25 27  2  0
 27 28  1  0
 16 29  1  0
 29 30  1  0
 29 31  1  0
 29  2  1  0
 12  4  1  0
 27 18  1  0
M  END
>  <cnnaffinity>  (1) 
-5.65222

>  <filename>  (1) 
O=C1C(c2cccnc2)=CCN1Oc1cccc(Cl)c1

$$$$
