
     RDKit          3D

 36 38  0  0  0  0  0  0  0  0999 V2000
    6.2505   -1.3980   22.9808 H   0  0  0  0  0  0  0  0  0  0  0  0
    6.3329   -1.5101   21.9003 C   0  0  0  0  0  0  0  0  0  0  0  0
    5.8084   -2.6466   21.4112 C   0  0  0  0  0  0  0  0  0  0  0  0
    5.3079   -3.9746   22.4995 S   0  0  0  0  0  0  0  0  0  0  0  0
    5.4891   -5.1813   21.2353 C   0  0  0  0  0  0  0  0  0  0  0  0
    5.3743   -6.7909   21.4160 S   0  0  0  0  0  0  0  0  0  0  0  0
    5.6841   -4.5394   20.0589 N   0  0  0  0  0  0  0  0  0  0  0  0
    5.8829   -5.0627   19.2270 H   0  0  0  0  0  0  0  0  0  0  0  0
    5.7498   -3.1545   20.0082 C   0  0  0  0  0  0  0  0  0  0  0  0
    5.7375   -2.5733   18.9557 O   0  0  0  0  0  0  0  0  0  0  0  0
    7.2852   -0.5253   21.2256 C   0  0  0  0  0  0  0  0  0  0  0  0
    6.6337    0.0766   19.9604 C   0  0  0  0  0  0  0  0  0  0  0  0
    7.2037    0.0815   18.6723 C   0  0  0  0  0  0  0  0  0  0  0  0
    8.1221   -0.4664   18.4582 H   0  0  0  0  0  0  0  0  0  0  0  0
    6.6793    0.7143   17.6078 N   0  0  0  0  0  0  0  0  0  0  0  0
    5.5090    1.3470   17.7743 C   0  0  0  0  0  0  0  0  0  0  0  0
    5.1035    1.8513   16.8986 H   0  0  0  0  0  0  0  0  0  0  0  0
    4.8115    1.3503   18.9870 C   0  0  0  0  0  0  0  0  0  0  0  0
    3.8584    1.8641   19.0653 H   0  0  0  0  0  0  0  0  0  0  0  0
    5.3816    0.6995   20.0845 C   0  0  0  0  0  0  0  0  0  0  0  0
    4.8640    0.6653   21.0462 H   0  0  0  0  0  0  0  0  0  0  0  0
    7.6349    0.5806   22.2795 C   0  0  0  0  0  0  0  0  0  0  0  0
    6.7419    1.1704   22.5210 H   0  0  0  0  0  0  0  0  0  0  0  0
    7.9306    0.0513   23.1985 H   0  0  0  0  0  0  0  0  0  0  0  0
    8.7964    1.4883   21.8575 C   0  0  0  0  0  0  0  0  0  0  0  0
    8.5409    2.0059   20.9196 H   0  0  0  0  0  0  0  0  0  0  0  0
    8.9717    2.2548   22.6249 H   0  0  0  0  0  0  0  0  0  0  0  0
   10.0674    0.6556   21.6654 C   0  0  0  0  0  0  0  0  0  0  0  0
   10.3814    0.2513   22.6392 H   0  0  0  0  0  0  0  0  0  0  0  0
   10.8939    1.2858   21.3104 H   0  0  0  0  0  0  0  0  0  0  0  0
    9.8375   -0.4974   20.6834 C   0  0  0  0  0  0  0  0  0  0  0  0
    9.7322   -0.0933   19.6732 H   0  0  0  0  0  0  0  0  0  0  0  0
   10.7071   -1.1612   20.6966 H   0  0  0  0  0  0  0  0  0  0  0  0
    8.5874   -1.3326   20.9664 C   0  0  0  0  0  0  0  0  0  0  0  0
    8.7704   -1.9726   21.8436 H   0  0  0  0  0  0  0  0  0  0  0  0
    8.3983   -1.9969   20.1273 H   0  0  0  0  0  0  0  0  0  0  0  0
  1  2  1  0
  2  3  2  3
  3  4  1  0
  4  5  1  0
  5  6  2  0
  5  7  1  0
  7  8  1  0
  7  9  1  0
  9 10  2  0
  2 11  1  0
 11 12  1  0
 12 13  2  0
 13 14  1  0
 13 15  1  0
 15 16  2  0
 16 17  1  0
 16 18  1  0
 18 19  1  0
 18 20  2  0
 20 21  1  0
 11 22  1  0
 22 23  1  0
 22 24  1  0
 22 25  1  0
 25 26  1  0
 25 27  1  0
 25 28  1  0
 28 29  1  0
 28 30  1  0
 28 31  1  0
 31 32  1  0
 31 33  1  0
 31 34  1  0
 34 35  1  0
 34 36  1  0
  9  3  1  0
 34 11  1  0
 20 12  1  0
M  END
>  <cnnaffinity>  (1) 
-5.52873

>  <filename>  (1) 
O=C1NC(=S)SC1=CC1(c2cccnc2)CCCCC1

$$$$
