
     RDKit          3D

 26 28  0  0  0  0  0  0  0  0999 V2000
    6.5440    2.7733   25.5519 H   0  0  0  0  0  0  0  0  0  0  0  0
    6.8019    2.4522   24.5480 C   0  0  0  0  0  0  0  0  0  0  0  0
    7.2920    3.1038   23.4994 C   0  0  0  0  0  0  0  0  0  0  0  0
    7.5489    4.1472   23.3533 H   0  0  0  0  0  0  0  0  0  0  0  0
    7.5335    2.1434   22.3832 C   0  0  0  0  0  0  0  0  0  0  0  0
    7.9668    2.3638   21.2852 O   0  0  0  0  0  0  0  0  0  0  0  0
    7.1417    0.8891   22.8945 N   0  0  0  0  0  0  0  0  0  0  0  0
    7.4571   -0.3088   22.2732 N   0  0  0  0  0  0  0  0  0  0  0  0
    7.3840   -0.6846   20.9336 C   0  0  0  0  0  0  0  0  0  0  0  0
    6.6335    0.0181   19.8988 C   0  0  0  0  0  0  0  0  0  0  0  0
    7.1586    0.0483   18.6001 C   0  0  0  0  0  0  0  0  0  0  0  0
    8.1089   -0.4366   18.3689 H   0  0  0  0  0  0  0  0  0  0  0  0
    6.5588    0.6709   17.5827 N   0  0  0  0  0  0  0  0  0  0  0  0
    5.3964    1.2948   17.8302 C   0  0  0  0  0  0  0  0  0  0  0  0
    4.9344    1.7953   16.9816 H   0  0  0  0  0  0  0  0  0  0  0  0
    4.7917    1.3132   19.0899 C   0  0  0  0  0  0  0  0  0  0  0  0
    3.8644    1.8490   19.2347 H   0  0  0  0  0  0  0  0  0  0  0  0
    5.4096    0.6551   20.1454 C   0  0  0  0  0  0  0  0  0  0  0  0
    4.9730    0.6455   21.1444 H   0  0  0  0  0  0  0  0  0  0  0  0
    8.0372   -1.7989   20.7356 N   0  0  0  0  0  0  0  0  0  0  0  0
    8.5197   -2.1796   21.9633 C   0  0  0  0  0  0  0  0  0  0  0  0
    9.0805   -3.0968   22.0678 H   0  0  0  0  0  0  0  0  0  0  0  0
    8.1826   -1.2741   22.9194 C   0  0  0  0  0  0  0  0  0  0  0  0
    8.3454   -1.1912   23.9816 H   0  0  0  0  0  0  0  0  0  0  0  0
    6.6721    1.0097   24.2170 C   0  0  0  0  0  0  0  0  0  0  0  0
    6.2593    0.1291   24.9268 O   0  0  0  0  0  0  0  0  0  0  0  0
  1  2  1  0
  2  3  2  0
  3  4  1  0
  3  5  1  0
  5  6  2  0
  5  7  1  0
  7  8  1  0
  8  9  1  0
  9 10  1  0
 10 11  2  0
 11 12  1  0
 11 13  1  0
 13 14  2  0
 14 15  1  0
 14 16  1  0
 16 17  1  0
 16 18  2  0
 18 19  1  0
  9 20  2  0
 20 21  1  0
 21 22  1  0
 21 23  2  0
 23 24  1  0
  7 25  1  0
 25 26  2  0
 25  2  1  0
 23  8  1  0
 18 10  1  0
M  END
>  <cnnaffinity>  (1) 
-4.85184

>  <filename>  (1) 
O=C1C=CC(=O)N1n1ccnc1-c1cccnc1

$$$$
