
     RDKit          3D

 34 36  0  0  0  0  0  0  0  0999 V2000
    4.9153    1.7880   16.9888 H   0  0  0  0  0  0  0  0  0  0  0  0
    5.3947    1.2976   17.8307 C   0  0  0  0  0  0  0  0  0  0  0  0
    6.5568    0.6796   17.5658 N   0  0  0  0  0  0  0  0  0  0  0  0
    7.1691    0.0723   18.5882 C   0  0  0  0  0  0  0  0  0  0  0  0
    8.1089   -0.4238   18.3486 H   0  0  0  0  0  0  0  0  0  0  0  0
    6.6613    0.0149   19.8994 C   0  0  0  0  0  0  0  0  0  0  0  0
    7.3888   -0.7021   20.9747 C   0  0  0  0  0  0  0  0  0  0  0  0
    6.6871   -1.5562   21.8852 C   0  0  0  0  0  0  0  0  0  0  0  0
    5.6139   -1.6880   21.7571 H   0  0  0  0  0  0  0  0  0  0  0  0
    7.3313   -2.2318   22.8964 C   0  0  0  0  0  0  0  0  0  0  0  0
    6.5518   -3.0124   23.6918 O   0  0  0  0  0  0  0  0  0  0  0  0
    7.0882   -3.7653   24.7892 C   0  0  0  0  0  0  0  0  0  0  0  0
    7.8370   -4.4777   24.4318 H   0  0  0  0  0  0  0  0  0  0  0  0
    7.5696   -3.1015   25.5132 H   0  0  0  0  0  0  0  0  0  0  0  0
    5.9301   -4.4909   25.4265 C   0  0  0  0  0  0  0  0  0  0  0  0
    5.5386   -5.7616   24.9954 C   0  0  0  0  0  0  0  0  0  0  0  0
    6.0677   -6.2683   24.1996 H   0  0  0  0  0  0  0  0  0  0  0  0
    4.4429   -6.3802   25.5984 C   0  0  0  0  0  0  0  0  0  0  0  0
    4.1246   -7.3677   25.2742 H   0  0  0  0  0  0  0  0  0  0  0  0
    3.7215   -5.8265   26.5784 N   0  0  0  0  0  0  0  0  0  0  0  0
    4.0998   -4.6116   26.9901 C   0  0  0  0  0  0  0  0  0  0  0  0
    3.5054   -4.1742   27.7880 H   0  0  0  0  0  0  0  0  0  0  0  0
    5.1807   -3.9109   26.4541 C   0  0  0  0  0  0  0  0  0  0  0  0
    5.4221   -2.9279   26.8377 H   0  0  0  0  0  0  0  0  0  0  0  0
    8.8090   -2.0709   23.0629 C   0  0  0  0  0  0  0  0  0  0  0  0
    9.5633   -2.5749   23.8835 O   0  0  0  0  0  0  0  0  0  0  0  0
    9.3864   -1.2157   22.1218 N   0  0  0  0  0  0  0  0  0  0  0  0
   10.3793   -1.1608   22.2858 H   0  0  0  0  0  0  0  0  0  0  0  0
    8.7365   -0.5533   21.1130 C   0  0  0  0  0  0  0  0  0  0  0  0
    9.3209    0.0943   20.4590 H   0  0  0  0  0  0  0  0  0  0  0  0
    5.4365    0.6529   20.1478 C   0  0  0  0  0  0  0  0  0  0  0  0
    5.0132    0.6374   21.1555 H   0  0  0  0  0  0  0  0  0  0  0  0
    4.8050    1.3157   19.0985 C   0  0  0  0  0  0  0  0  0  0  0  0
    3.8743    1.8430   19.2532 H   0  0  0  0  0  0  0  0  0  0  0  0
  1  2  1  0
  2  3  2  0
  3  4  1  0
  4  5  1  0
  4  6  2  0
  6  7  1  0
  7  8  1  0
  8  9  1  0
  8 10  2  0
 10 11  1  0
 11 12  1  0
 12 13  1  0
 12 14  1  0
 12 15  1  0
 15 16  2  0
 16 17  1  0
 16 18  1  0
 18 19  1  0
 18 20  2  0
 20 21  1  0
 21 22  1  0
 21 23  2  0
 23 24  1  0
 10 25  1  0
 25 26  2  0
 25 27  1  0
 27 28  1  0
 27 29  1  0
 29 30  1  0
  6 31  1  0
 31 32  1  0
 31 33  2  0
 33 34  1  0
 33  2  1  0
 29  7  2  0
 23 15  1  0
M  END
>  <cnnaffinity>  (1) 
-4.92407

>  <filename>  (1) 
O=c1[nH]cc(-c2cccnc2)cc1OCc1ccncc1

$$$$
