
     RDKit          3D

 36 39  0  0  0  0  0  0  0  0999 V2000
    5.0261    1.7685   17.0765 H   0  0  0  0  0  0  0  0  0  0  0  0
    5.4823    1.2758   17.9343 C   0  0  0  0  0  0  0  0  0  0  0  0
    6.6396    0.6361   17.6963 N   0  0  0  0  0  0  0  0  0  0  0  0
    7.2312    0.0271   18.7310 C   0  0  0  0  0  0  0  0  0  0  0  0
    8.1730   -0.4816   18.5320 H   0  0  0  0  0  0  0  0  0  0  0  0
    6.6985    0.0009   20.0406 C   0  0  0  0  0  0  0  0  0  0  0  0
    7.3724   -0.6605   21.1092 N   0  0  0  0  0  0  0  0  0  0  0  0
    7.5683   -2.0291   21.1903 C   0  0  0  0  0  0  0  0  0  0  0  0
    6.9226   -2.9191   20.6821 O   0  0  0  0  0  0  0  0  0  0  0  0
    8.6775   -2.2075   21.9673 N   0  0  0  0  0  0  0  0  0  0  0  0
    8.9061   -3.1664   22.1568 H   0  0  0  0  0  0  0  0  0  0  0  0
    9.1198   -1.0199   22.6630 C   0  0  0  0  0  0  0  0  0  0  0  0
    9.0841   -1.1239   23.7569 H   0  0  0  0  0  0  0  0  0  0  0  0
   10.1496   -0.7556   22.4015 H   0  0  0  0  0  0  0  0  0  0  0  0
    8.1219    0.0548   22.1402 C   0  0  2  0  0  0  0  0  0  0  0  0
    8.6729    0.8738   21.6565 H   0  0  0  0  0  0  0  0  0  0  0  0
    7.1973    0.6666   23.1764 C   0  0  0  0  0  0  0  0  0  0  0  0
    7.1165    2.0371   23.2466 C   0  0  0  0  0  0  0  0  0  0  0  0
    7.7938    2.6463   22.6464 H   0  0  0  0  0  0  0  0  0  0  0  0
    6.2682    2.7379   24.0385 N   0  0  0  0  0  0  0  0  0  0  0  0
    5.4155    2.0458   24.7685 C   0  0  0  0  0  0  0  0  0  0  0  0
    4.7499    2.6219   25.4069 H   0  0  0  0  0  0  0  0  0  0  0  0
    5.3641    0.6171   24.8078 C   0  0  0  0  0  0  0  0  0  0  0  0
    4.4153   -0.1124   25.5962 C   0  0  0  0  0  0  0  0  0  0  0  0
    3.6516    0.4279   26.1501 H   0  0  0  0  0  0  0  0  0  0  0  0
    4.4877   -1.4812   25.6847 C   0  0  0  0  0  0  0  0  0  0  0  0
    3.7902   -2.0266   26.3145 H   0  0  0  0  0  0  0  0  0  0  0  0
    5.4987   -2.1919   24.9909 C   0  0  0  0  0  0  0  0  0  0  0  0
    5.5533   -3.2724   25.0874 H   0  0  0  0  0  0  0  0  0  0  0  0
    6.3861   -1.5184   24.1791 C   0  0  0  0  0  0  0  0  0  0  0  0
    7.1258   -2.0764   23.6238 H   0  0  0  0  0  0  0  0  0  0  0  0
    6.3318   -0.0963   24.0324 C   0  0  0  0  0  0  0  0  0  0  0  0
    5.5008    0.6822   20.2763 C   0  0  0  0  0  0  0  0  0  0  0  0
    5.1005    0.6812   21.2939 H   0  0  0  0  0  0  0  0  0  0  0  0
    4.8814    1.3329   19.1996 C   0  0  0  0  0  0  0  0  0  0  0  0
    3.9642    1.8989   19.3330 H   0  0  0  0  0  0  0  0  0  0  0  0
  1  2  1  0
  2  3  2  0
  3  4  1  0
  4  5  1  0
  4  6  2  0
  6  7  1  0
  7  8  1  0
  8  9  2  0
  8 10  1  0
 10 11  1  0
 10 12  1  0
 12 13  1  0
 12 14  1  0
 12 15  1  0
 15 16  1  6
 15 17  1  0
 17 18  2  0
 18 19  1  0
 18 20  1  0
 20 21  2  0
 21 22  1  0
 21 23  1  0
 23 24  2  0
 24 25  1  0
 24 26  1  0
 26 27  1  0
 26 28  2  0
 28 29  1  0
 28 30  1  0
 30 31  1  0
 30 32  2  0
  6 33  1  0
 33 34  1  0
 33 35  2  0
 35 36  1  0
 35  2  1  0
 15  7  1  0
 32 17  1  0
 32 23  1  0
M  END
>  <cnnaffinity>  (1) 
-5.13537

>  <filename>  (1) 
O=C1NC[C@H](c2cncc3ccccc23)N1c1cccnc1

$$$$
