
     RDKit          3D

 29 32  0  0  0  0  0  0  0  0999 V2000
    7.6130    1.2552   26.3025 H   0  0  0  0  0  0  0  0  0  0  0  0
    7.1171    1.5132   25.3670 C   0  0  0  0  0  0  0  0  0  0  0  0
    6.3382    2.6115   25.2976 C   0  0  0  0  0  0  0  0  0  0  0  0
    5.3919    3.1561   23.9051 S   0  0  0  0  0  0  0  0  0  0  0  0
    4.6381    4.4339   24.8373 C   0  0  0  0  0  0  0  0  0  0  0  0
    3.4746    5.4738   24.3481 S   0  0  0  0  0  0  0  0  0  0  0  0
    5.1721    4.4562   26.0884 N   0  0  0  0  0  0  0  0  0  0  0  0
    4.8551    5.1163   26.7726 H   0  0  0  0  0  0  0  0  0  0  0  0
    6.1015    3.5129   26.4654 C   0  0  0  0  0  0  0  0  0  0  0  0
    6.5868    3.4706   27.5689 O   0  0  0  0  0  0  0  0  0  0  0  0
    7.3412    0.5948   24.2683 C   0  0  0  0  0  0  0  0  0  0  0  0
    8.1265   -0.5074   24.4249 N   0  0  0  0  0  0  0  0  0  0  0  0
    8.0827   -1.0074   23.2202 C   0  0  0  0  0  0  0  0  0  0  0  0
    8.8681   -2.2837   22.3612 S   0  0  0  0  0  0  0  0  0  0  0  0
    8.2859   -1.6185   20.8690 C   0  0  0  0  0  0  0  0  0  0  0  0
    8.6921   -1.9907   19.9493 H   0  0  0  0  0  0  0  0  0  0  0  0
    7.4278   -0.5926   21.0261 C   0  0  0  0  0  0  0  0  0  0  0  0
    6.6633    0.0944   19.9673 C   0  0  0  0  0  0  0  0  0  0  0  0
    7.1622    0.0737   18.6463 C   0  0  0  0  0  0  0  0  0  0  0  0
    8.1086   -0.4146   18.4148 H   0  0  0  0  0  0  0  0  0  0  0  0
    6.5597    0.6532   17.6050 N   0  0  0  0  0  0  0  0  0  0  0  0
    5.4002    1.2850   17.8417 C   0  0  0  0  0  0  0  0  0  0  0  0
    4.9446    1.7825   16.9885 H   0  0  0  0  0  0  0  0  0  0  0  0
    4.7922    1.3321   19.1012 C   0  0  0  0  0  0  0  0  0  0  0  0
    3.8434    1.8451   19.2121 H   0  0  0  0  0  0  0  0  0  0  0  0
    5.4318    0.7390   20.1896 C   0  0  0  0  0  0  0  0  0  0  0  0
    5.0158    0.7765   21.1988 H   0  0  0  0  0  0  0  0  0  0  0  0
    7.3193   -0.2647   22.3859 N   0  0  0  0  0  0  0  0  0  0  0  0
    6.8132    0.7987   23.0517 N   0  0  0  0  0  0  0  0  0  0  0  0
  1  2  1  0
  2  3  2  3
  3  4  1  0
  4  5  1  0
  5  6  2  0
  5  7  1  0
  7  8  1  0
  7  9  1  0
  9 10  2  0
  2 11  1  0
 11 12  1  0
 12 13  2  0
 13 14  1  0
 14 15  1  0
 15 16  1  0
 15 17  2  0
 17 18  1  0
 18 19  2  0
 19 20  1  0
 19 21  1  0
 21 22  2  0
 22 23  1  0
 22 24  1  0
 24 25  1  0
 24 26  2  0
 26 27  1  0
 17 28  1  0
 28 29  1  0
  9  3  1  0
 29 11  2  0
 28 13  1  0
 26 18  1  0
M  END
>  <cnnaffinity>  (1) 
-5.20115

>  <filename>  (1) 
O=C1NC(=S)SC1=Cc1nc2scc(-c3cccnc3)n2n1

$$$$
