
     RDKit          3D

 50 54  0  0  0  0  0  0  0  0999 V2000
   13.6799    1.6152   24.1577 O   0  0  0  0  0  0  0  0  0  0  0  0
   12.8867    2.4781   23.8512 C   0  0  0  0  0  0  0  0  0  0  0  0
   13.2387    3.9343   23.6179 C   0  0  0  0  0  0  0  0  0  0  0  0
   13.6718    4.1504   22.1733 C   0  0  0  0  0  0  0  0  0  0  0  0
   12.5692    3.9002   21.1265 C   0  0  0  0  0  0  0  0  0  0  0  0
   11.2743    3.1327   21.4842 C   0  0  0  0  0  0  0  0  0  0  0  0
   11.1873    1.8295   22.2912 C   0  0  0  0  0  0  0  0  0  0  0  0
    9.7885    1.2500   22.1528 C   0  0  0  0  0  0  0  0  0  0  0  0
    9.4188    0.3573   21.2517 N   0  0  0  0  0  0  0  0  0  0  0  0
    8.1213    0.1073   21.5734 C   0  0  0  0  0  0  0  0  0  0  0  0
    7.2651   -0.8461   20.7937 C   0  0  0  0  0  0  0  0  0  0  0  0
    6.5254   -0.1567   19.6554 C   0  0  0  0  0  0  0  0  0  0  0  0
    5.3804    0.6058   19.9191 C   0  0  0  0  0  0  0  0  0  0  0  0
    4.8022    1.3339   18.8764 C   0  0  0  0  0  0  0  0  0  0  0  0
    5.3966    1.2818   17.6131 C   0  0  0  0  0  0  0  0  0  0  0  0
    6.4915    0.5563   17.3373 N   0  0  0  0  0  0  0  0  0  0  0  0
    7.0301   -0.1404   18.3451 C   0  0  0  0  0  0  0  0  0  0  0  0
    7.9253   -0.7179   18.1073 H   0  0  0  0  0  0  0  0  0  0  0  0
    4.9834    1.8499   16.7823 H   0  0  0  0  0  0  0  0  0  0  0  0
    3.9219    1.9488   19.0294 H   0  0  0  0  0  0  0  0  0  0  0  0
    4.9705    0.6388   20.9303 H   0  0  0  0  0  0  0  0  0  0  0  0
    6.5555   -1.2940   21.4985 H   0  0  0  0  0  0  0  0  0  0  0  0
    7.9142   -1.6405   20.4104 H   0  0  0  0  0  0  0  0  0  0  0  0
    7.6603    0.8069   22.5863 N   0  0  0  0  0  0  0  0  0  0  0  0
    8.7351    1.5450   22.9765 N   0  0  0  0  0  0  0  0  0  0  0  0
    8.6201    2.5453   23.9947 C   0  0  0  0  0  0  0  0  0  0  0  0
    8.5573    3.8922   23.6583 C   0  0  0  0  0  0  0  0  0  0  0  0
    8.7611    4.9382   24.5928 C   0  0  0  0  0  0  0  0  0  0  0  0
    8.9282    4.7554   25.9683 C   0  0  0  0  0  0  0  0  0  0  0  0
    8.7706    3.4320   26.3819 C   0  0  0  0  0  0  0  0  0  0  0  0
    8.6831    2.1621   25.4239 C   0  0  0  0  0  0  0  0  0  0  0  0
    9.3222    0.8931   25.7692 N   0  0  0  0  0  0  0  0  0  0  0  0
    9.0206    0.4025   26.9692 C   0  0  0  0  0  0  0  0  0  0  0  0
    7.8944    2.4745   26.5737 N   0  0  0  0  0  0  0  0  0  0  0  0
    9.7302   -0.3128   27.4337 H   0  0  0  0  0  0  0  0  0  0  0  0
    9.2622    0.2761   24.9513 H   0  0  0  0  0  0  0  0  0  0  0  0
    9.1762    5.6094   26.5800 H   0  0  0  0  0  0  0  0  0  0  0  0
    8.7507    5.9607   24.2106 H   0  0  0  0  0  0  0  0  0  0  0  0
    8.3978    4.1688   22.6218 H   0  0  0  0  0  0  0  0  0  0  0  0
   11.5458    2.0936   23.7095 N   0  0  0  0  0  0  0  0  0  0  0  0
   11.5608    1.2319   24.2516 H   0  0  0  0  0  0  0  0  0  0  0  0
   11.8319    1.0640   21.8237 H   0  0  0  0  0  0  0  0  0  0  0  0
   10.8023    2.8927   20.5247 H   0  0  0  0  0  0  0  0  0  0  0  0
   10.6365    3.8309   22.0430 H   0  0  0  0  0  0  0  0  0  0  0  0
   12.2127    4.8853   20.7998 H   0  0  0  0  0  0  0  0  0  0  0  0
   12.9781    3.4787   20.2070 H   0  0  0  0  0  0  0  0  0  0  0  0
   14.5523    3.5187   22.0254 H   0  0  0  0  0  0  0  0  0  0  0  0
   14.0497    5.1776   22.0643 H   0  0  0  0  0  0  0  0  0  0  0  0
   14.0879    4.1970   24.2533 H   0  0  0  0  0  0  0  0  0  0  0  0
   12.3793    4.5542   23.8937 H   0  0  0  0  0  0  0  0  0  0  0  0
  1  2  2  0
  2  3  1  0
  3  4  1  0
  4  5  1  0
  5  6  1  0
  6  7  1  0
  7  8  1  0
  8  9  2  0
  9 10  1  0
 10 11  1  0
 11 12  1  0
 12 13  2  0
 13 14  1  0
 14 15  2  0
 15 16  1  0
 16 17  2  0
 17 18  1  0
 15 19  1  0
 14 20  1  0
 13 21  1  0
 11 22  1  0
 11 23  1  0
 10 24  2  0
 24 25  1  0
 25 26  1  0
 26 27  2  0
 27 28  1  0
 28 29  2  0
 29 30  1  0
 30 31  2  0
 31 32  1  0
 32 33  1  0
 33 34  2  0
 33 35  1  0
 32 36  1  0
 29 37  1  0
 28 38  1  0
 27 39  1  0
  7 40  1  0
 40 41  1  0
  7 42  1  0
  6 43  1  0
  6 44  1  0
  5 45  1  0
  5 46  1  0
  4 47  1  0
  4 48  1  0
  3 49  1  0
  3 50  1  0
 40  2  1  0
 25  8  1  0
 31 26  1  0
 17 12  1  0
 34 30  1  0
M  END
>  <cnnaffinity>  (1) 
-6.04855

>  <filename>  (1) 
O=C1CCCCC(c2nc(Cc3cccnc3)nn2-c2cccc3nc[nH]c23)N1

$$$$
