
     RDKit          3D

 45 49  0  0  0  0  0  0  0  0999 V2000
    9.3248   -3.3946   25.9160 O   0  0  0  0  0  0  0  0  0  0  0  0
    8.7156   -4.0271   25.0740 C   0  0  0  0  0  0  0  0  0  0  0  0
    8.9950   -5.5073   24.8362 C   0  0  0  0  0  0  0  0  0  0  0  0
    8.5601   -5.9849   23.4433 C   0  0  0  0  0  0  0  0  0  0  0  0
    7.1348   -5.5604   23.2013 C   0  0  0  0  0  0  0  0  0  0  0  0
    6.1724   -6.3977   22.6346 C   0  0  0  0  0  0  0  0  0  0  0  0
    4.8666   -5.9489   22.4271 C   0  0  0  0  0  0  0  0  0  0  0  0
    4.5340   -4.6291   22.7592 C   0  0  0  0  0  0  0  0  0  0  0  0
    5.4945   -3.7688   23.2958 C   0  0  0  0  0  0  0  0  0  0  0  0
    6.7830   -4.2425   23.5745 C   0  0  0  0  0  0  0  0  0  0  0  0
    7.7360   -3.4404   24.2643 N   0  0  0  0  0  0  0  0  0  0  0  0
    7.5897   -1.9607   24.2418 C   0  0  0  0  0  0  0  0  0  0  0  0
    7.5937   -1.3514   22.8552 C   0  0  0  0  0  0  0  0  0  0  0  0
    6.6518   -0.6588   22.2390 N   0  0  0  0  0  0  0  0  0  0  0  0
    7.1290   -0.5383   20.9732 C   0  0  0  0  0  0  0  0  0  0  0  0
    6.4320    0.1232   19.8707 C   0  0  0  0  0  0  0  0  0  0  0  0
    5.2224    0.8245   20.0018 C   0  0  0  0  0  0  0  0  0  0  0  0
    4.7151    1.4618   18.8695 C   0  0  0  0  0  0  0  0  0  0  0  0
    5.4119    1.3633   17.6598 C   0  0  0  0  0  0  0  0  0  0  0  0
    6.5528    0.6724   17.5208 N   0  0  0  0  0  0  0  0  0  0  0  0
    7.0463    0.0762   18.6072 C   0  0  0  0  0  0  0  0  0  0  0  0
    7.9798   -0.4700   18.4756 H   0  0  0  0  0  0  0  0  0  0  0  0
    5.0475    1.8625   16.7642 H   0  0  0  0  0  0  0  0  0  0  0  0
    3.8065    2.0534   18.9025 H   0  0  0  0  0  0  0  0  0  0  0  0
    4.6979    0.8830   20.9578 H   0  0  0  0  0  0  0  0  0  0  0  0
    8.3133   -1.0967   20.7875 N   0  0  0  0  0  0  0  0  0  0  0  0
    8.6191   -1.5730   22.0083 N   0  0  0  0  0  0  0  0  0  0  0  0
    9.8128   -2.3343   22.2172 C   0  0  0  0  0  0  0  0  0  0  0  0
   11.1375   -1.6656   22.0173 C   0  0  0  0  0  0  0  0  0  0  0  0
   10.6947   -2.0600   23.3943 C   0  0  0  0  0  0  0  0  0  0  0  0
   10.4381   -1.2708   24.0959 H   0  0  0  0  0  0  0  0  0  0  0  0
   11.1385   -2.9338   23.8673 H   0  0  0  0  0  0  0  0  0  0  0  0
   11.1037   -0.6117   21.7501 H   0  0  0  0  0  0  0  0  0  0  0  0
   11.9330   -2.2368   21.5487 H   0  0  0  0  0  0  0  0  0  0  0  0
    9.6970   -3.3521   21.8717 H   0  0  0  0  0  0  0  0  0  0  0  0
    6.6746   -1.6696   24.7711 H   0  0  0  0  0  0  0  0  0  0  0  0
    8.4166   -1.5439   24.8194 H   0  0  0  0  0  0  0  0  0  0  0  0
    5.2598   -2.7263   23.4824 H   0  0  0  0  0  0  0  0  0  0  0  0
    3.5266   -4.2612   22.6022 H   0  0  0  0  0  0  0  0  0  0  0  0
    4.1303   -6.6213   21.9946 H   0  0  0  0  0  0  0  0  0  0  0  0
    6.4603   -7.4119   22.3543 H   0  0  0  0  0  0  0  0  0  0  0  0
    8.6873   -7.0658   23.3214 H   0  0  0  0  0  0  0  0  0  0  0  0
    9.1704   -5.5107   22.6597 H   0  0  0  0  0  0  0  0  0  0  0  0
   10.0621   -5.6489   25.0231 H   0  0  0  0  0  0  0  0  0  0  0  0
    8.4520   -6.0519   25.6231 H   0  0  0  0  0  0  0  0  0  0  0  0
  1  2  2  0
  2  3  1  0
  3  4  1  0
  4  5  1  0
  5  6  2  0
  6  7  1  0
  7  8  2  0
  8  9  1  0
  9 10  2  0
 10 11  1  0
 11 12  1  0
 12 13  1  0
 13 14  2  0
 14 15  1  0
 15 16  1  0
 16 17  2  0
 17 18  1  0
 18 19  2  0
 19 20  1  0
 20 21  2  0
 21 22  1  0
 19 23  1  0
 18 24  1  0
 17 25  1  0
 15 26  2  0
 26 27  1  0
 27 28  1  0
 28 29  1  0
 29 30  1  0
 30 31  1  0
 30 32  1  0
 29 33  1  0
 29 34  1  0
 28 35  1  0
 12 36  1  0
 12 37  1  0
  9 38  1  0
  8 39  1  0
  7 40  1  0
  6 41  1  0
  4 42  1  0
  4 43  1  0
  3 44  1  0
  3 45  1  0
 11  2  1  0
 27 13  1  0
 30 28  1  0
 10  5  1  0
 21 16  1  0
M  END
>  <cnnaffinity>  (1) 
-6.23987

>  <filename>  (1) 
O=C1CCc2ccccc2N1Cc1nc(-c2cccnc2)nn1C1CC1

$$$$
