
     RDKit          3D

 34 36  0  0  0  0  0  0  0  0999 V2000
    4.9374    1.8136   16.9620 H   0  0  0  0  0  0  0  0  0  0  0  0
    5.3962    1.3021   17.8070 C   0  0  0  0  0  0  0  0  0  0  0  0
    6.5567    0.6797   17.5550 N   0  0  0  0  0  0  0  0  0  0  0  0
    7.1467    0.0536   18.5822 C   0  0  0  0  0  0  0  0  0  0  0  0
    8.1082   -0.4095   18.3521 H   0  0  0  0  0  0  0  0  0  0  0  0
    6.6277   -0.0067   19.8832 C   0  0  0  0  0  0  0  0  0  0  0  0
    7.4237   -0.6976   20.9715 C   0  0  2  0  0  0  0  0  0  0  0  0
    8.2388   -1.2518   20.4823 H   0  0  0  0  0  0  0  0  0  0  0  0
    6.6510   -1.6378   21.7801 N   0  0  0  0  0  0  0  0  0  0  0  0
    5.8166   -2.7346   21.3116 C   0  0  1  0  0  0  0  0  0  0  0  0
    4.7608   -2.4919   21.5148 H   0  0  0  0  0  0  0  0  0  0  0  0
    6.0617   -2.9225   19.9010 N   0  0  0  0  0  0  0  0  0  0  0  0
    7.0488   -2.7353   19.8073 H   0  0  0  0  0  0  0  0  0  0  0  0
    5.8340   -4.3285   19.5613 C   0  0  0  0  0  0  0  0  0  0  0  0
    4.8998   -4.4226   19.0112 H   0  0  0  0  0  0  0  0  0  0  0  0
    6.5967   -4.6643   18.8580 H   0  0  0  0  0  0  0  0  0  0  0  0
    5.8791   -5.1457   20.8816 C   0  0  0  0  0  0  0  0  0  0  0  0
    4.9560   -5.7148   21.0495 H   0  0  0  0  0  0  0  0  0  0  0  0
    6.6956   -5.8709   20.8292 H   0  0  0  0  0  0  0  0  0  0  0  0
    6.1440   -4.0891   21.9713 C   0  0  0  0  0  0  0  0  0  0  0  0
    7.2010   -4.0772   22.2548 H   0  0  0  0  0  0  0  0  0  0  0  0
    5.5783   -4.1992   22.8955 H   0  0  0  0  0  0  0  0  0  0  0  0
    6.6448   -1.3495   23.1081 C   0  0  0  0  0  0  0  0  0  0  0  0
    6.2202   -2.0912   23.9782 O   0  0  0  0  0  0  0  0  0  0  0  0
    7.2598    0.0204   23.3210 C   0  0  0  0  0  0  0  0  0  0  0  0
    7.8783    0.0039   24.2237 H   0  0  0  0  0  0  0  0  0  0  0  0
    6.4501    0.7392   23.4984 H   0  0  0  0  0  0  0  0  0  0  0  0
    8.0169    0.2877   22.0117 C   0  0  0  0  0  0  0  0  0  0  0  0
    9.0834    0.0857   22.1333 H   0  0  0  0  0  0  0  0  0  0  0  0
    7.9419    1.3197   21.6508 H   0  0  0  0  0  0  0  0  0  0  0  0
    5.4174    0.6568   20.1254 C   0  0  0  0  0  0  0  0  0  0  0  0
    4.9807    0.6682   21.1259 H   0  0  0  0  0  0  0  0  0  0  0  0
    4.7891    1.3200   19.0687 C   0  0  0  0  0  0  0  0  0  0  0  0
    3.8608    1.8623   19.2154 H   0  0  0  0  0  0  0  0  0  0  0  0
  1  2  1  0
  2  3  2  0
  3  4  1  0
  4  5  1  0
  4  6  2  0
  6  7  1  0
  7  8  1  6
  7  9  1  0
  9 10  1  0
 10 11  1  6
 10 12  1  0
 12 13  1  0
 12 14  1  0
 14 15  1  0
 14 16  1  0
 14 17  1  0
 17 18  1  0
 17 19  1  0
 17 20  1  0
 20 21  1  0
 20 22  1  0
  9 23  1  0
 23 24  2  0
 23 25  1  0
 25 26  1  0
 25 27  1  0
 25 28  1  0
 28 29  1  0
 28 30  1  0
  6 31  1  0
 31 32  1  0
 31 33  2  0
 33 34  1  0
 33  2  1  0
 28  7  1  0
 20 10  1  0
M  END
>  <cnnaffinity>  (1) 
-3.95952

>  <filename>  (1) 
O=C1CC[C@H](c2cccnc2)N1[C@@H]1CCCN1

$$$$
