
     RDKit          3D

 33 35  0  0  0  0  0  0  0  0999 V2000
    9.3458    0.5405   20.5962 O   0  0  0  0  0  0  0  0  0  0  0  0
    8.7215   -0.3305   21.1721 C   0  0  0  0  0  0  0  0  0  0  0  0
    9.4322   -1.2120   22.2270 C   0  0  0  0  0  0  0  0  0  0  0  0
    8.5827   -2.0551   23.0998 N   0  0  0  0  0  0  0  0  0  0  0  0
    9.0940   -2.8322   24.0968 C   0  0  0  0  0  0  0  0  0  0  0  0
    8.4340   -3.3418   25.0923 N   0  0  0  0  0  0  0  0  0  0  0  0
    9.3893   -4.1145   25.7662 C   0  0  0  0  0  0  0  0  0  0  0  0
    9.2065   -5.0431   26.9572 C   0  0  0  0  0  0  0  0  0  0  0  0
   10.2128   -4.8740   27.8387 F   0  0  0  0  0  0  0  0  0  0  0  0
    9.2639   -6.3269   26.5544 F   0  0  0  0  0  0  0  0  0  0  0  0
    8.0651   -4.8838   27.6286 F   0  0  0  0  0  0  0  0  0  0  0  0
   10.5675   -4.0098   25.1235 C   0  0  0  0  0  0  0  0  0  0  0  0
   10.4029   -3.1726   24.0472 O   0  0  0  0  0  0  0  0  0  0  0  0
   11.5407   -4.4523   25.2761 H   0  0  0  0  0  0  0  0  0  0  0  0
    7.1264   -1.9087   22.9973 C   0  0  0  0  0  0  0  0  0  0  0  0
    6.7470   -1.7927   21.5234 C   0  0  0  0  0  0  0  0  0  0  0  0
    7.3882   -0.6241   20.9078 N   0  0  0  0  0  0  0  0  0  0  0  0
    6.6942    0.0346   19.8443 C   0  0  0  0  0  0  0  0  0  0  0  0
    5.4744    0.6560   20.1133 C   0  0  0  0  0  0  0  0  0  0  0  0
    4.8129    1.3172   19.0759 C   0  0  0  0  0  0  0  0  0  0  0  0
    5.3846    1.3078   17.7985 C   0  0  0  0  0  0  0  0  0  0  0  0
    6.5415    0.6873   17.5161 N   0  0  0  0  0  0  0  0  0  0  0  0
    7.1827    0.0755   18.5205 C   0  0  0  0  0  0  0  0  0  0  0  0
    8.1270   -0.4084   18.2799 H   0  0  0  0  0  0  0  0  0  0  0  0
    4.8927    1.8169   16.9721 H   0  0  0  0  0  0  0  0  0  0  0  0
    3.8767    1.8308   19.2488 H   0  0  0  0  0  0  0  0  0  0  0  0
    5.0907    0.6334   21.1339 H   0  0  0  0  0  0  0  0  0  0  0  0
    5.6619   -1.7083   21.4293 H   0  0  0  0  0  0  0  0  0  0  0  0
    7.0416   -2.7135   20.9969 H   0  0  0  0  0  0  0  0  0  0  0  0
    6.6398   -2.7986   23.4077 H   0  0  0  0  0  0  0  0  0  0  0  0
    6.7781   -1.0306   23.5677 H   0  0  0  0  0  0  0  0  0  0  0  0
   10.1349   -1.8218   21.6437 H   0  0  0  0  0  0  0  0  0  0  0  0
   10.0536   -0.5179   22.8043 H   0  0  0  0  0  0  0  0  0  0  0  0
  1  2  2  0
  2  3  1  0
  3  4  1  0
  4  5  1  0
  5  6  2  0
  6  7  1  0
  7  8  1  0
  8  9  1  0
  8 10  1  0
  8 11  1  0
  7 12  2  0
 12 13  1  0
 12 14  1  0
  4 15  1  0
 15 16  1  0
 16 17  1  0
 17 18  1  0
 18 19  2  0
 19 20  1  0
 20 21  2  0
 21 22  1  0
 22 23  2  0
 23 24  1  0
 21 25  1  0
 20 26  1  0
 19 27  1  0
 16 28  1  0
 16 29  1  0
 15 30  1  0
 15 31  1  0
  3 32  1  0
  3 33  1  0
 17  2  1  0
 23 18  1  0
 13  5  1  0
M  END
>  <cnnaffinity>  (1) 
-4.57723

>  <filename>  (1) 
O=C1CN(c2nc(C(F)(F)F)co2)CCN1c1cccnc1

$$$$
