
     RDKit          3D

 29 31  0  0  0  0  0  0  0  0999 V2000
    4.9301    1.7892   17.0319 H   0  0  0  0  0  0  0  0  0  0  0  0
    5.4050    1.2733   17.8624 C   0  0  0  0  0  0  0  0  0  0  0  0
    6.5620    0.6494   17.5854 N   0  0  0  0  0  0  0  0  0  0  0  0
    7.2026    0.0434   18.5898 C   0  0  0  0  0  0  0  0  0  0  0  0
    8.1513   -0.4315   18.3457 H   0  0  0  0  0  0  0  0  0  0  0  0
    6.7068   -0.0021   19.9154 C   0  0  0  0  0  0  0  0  0  0  0  0
    7.4133   -0.6720   20.9875 N   0  0  0  0  0  0  0  0  0  0  0  0
    8.7880   -0.6316   21.1761 C   0  0  0  0  0  0  0  0  0  0  0  0
    9.5797   -0.0235   20.5029 O   0  0  0  0  0  0  0  0  0  0  0  0
    9.0632   -1.5587   22.3744 C   0  0  0  0  0  0  0  0  0  0  0  0
   10.1187   -1.8930   22.8311 O   0  0  0  0  0  0  0  0  0  0  0  0
    7.8111   -2.0212   22.7757 N   0  0  0  0  0  0  0  0  0  0  0  0
    7.6073   -2.9663   23.8460 C   0  0  0  0  0  0  0  0  0  0  0  0
    6.7557   -4.0622   23.6492 C   0  0  0  0  0  0  0  0  0  0  0  0
    6.2277   -4.1249   22.7060 H   0  0  0  0  0  0  0  0  0  0  0  0
    6.5818   -5.0324   24.6437 C   0  0  0  0  0  0  0  0  0  0  0  0
    5.9173   -5.8761   24.4614 H   0  0  0  0  0  0  0  0  0  0  0  0
    7.2506   -4.9129   25.8653 C   0  0  0  0  0  0  0  0  0  0  0  0
    7.1152   -5.6689   26.6391 H   0  0  0  0  0  0  0  0  0  0  0  0
    8.0894   -3.8144   26.0930 C   0  0  0  0  0  0  0  0  0  0  0  0
    8.6334   -3.6847   27.0237 H   0  0  0  0  0  0  0  0  0  0  0  0
    8.2597   -2.8527   25.0973 C   0  0  0  0  0  0  0  0  0  0  0  0
    9.0468   -1.8023   25.3663 F   0  0  0  0  0  0  0  0  0  0  0  0
    6.8579   -1.6459   21.8250 C   0  0  0  0  0  0  0  0  0  0  0  0
    5.7636   -2.1211   21.6964 O   0  0  0  0  0  0  0  0  0  0  0  0
    5.4808    0.6179   20.1757 C   0  0  0  0  0  0  0  0  0  0  0  0
    5.0632    0.5598   21.1757 H   0  0  0  0  0  0  0  0  0  0  0  0
    4.8245    1.2859   19.1324 C   0  0  0  0  0  0  0  0  0  0  0  0
    3.8921    1.8212   19.2897 H   0  0  0  0  0  0  0  0  0  0  0  0
  1  2  1  0
  2  3  2  0
  3  4  1  0
  4  5  1  0
  4  6  2  0
  6  7  1  0
  7  8  1  0
  8  9  2  0
  8 10  1  0
 10 11  2  0
 10 12  1  0
 12 13  1  0
 13 14  2  0
 14 15  1  0
 14 16  1  0
 16 17  1  0
 16 18  2  0
 18 19  1  0
 18 20  1  0
 20 21  1  0
 20 22  2  0
 22 23  1  0
 12 24  1  0
 24 25  2  0
  6 26  1  0
 26 27  1  0
 26 28  2  0
 28 29  1  0
 28  2  1  0
 24  7  1  0
 22 13  1  0
M  END
>  <cnnaffinity>  (1) 
-5.19344

>  <filename>  (1) 
O=C1C(=O)N(c2ccccc2F)C(=O)N1c1cccnc1

$$$$
