
     RDKit          3D

 41 44  0  0  0  0  0  0  0  0999 V2000
    8.3148    2.5553   26.1117 O   0  0  0  0  0  0  0  0  0  0  0  0
    7.8494    1.5099   25.7095 C   0  0  0  0  0  0  0  0  0  0  0  0
    6.8838    1.3154   24.7384 N   0  0  0  0  0  0  0  0  0  0  0  0
    6.7341    2.2459   23.6151 C   0  0  0  0  0  0  0  0  0  0  0  0
    7.9882    2.2797   22.7461 C   0  0  0  0  0  0  0  0  0  0  0  0
    8.9514    3.2716   22.9659 C   0  0  0  0  0  0  0  0  0  0  0  0
   10.1931    3.2119   22.3301 C   0  0  0  0  0  0  0  0  0  0  0  0
   11.4314    4.3711   22.7284 Cl  0  0  0  0  0  0  0  0  0  0  0  0
   10.4618    2.2153   21.3935 C   0  0  0  0  0  0  0  0  0  0  0  0
    9.4886    1.2475   21.1203 C   0  0  0  0  0  0  0  0  0  0  0  0
    8.2795    1.2448   21.8306 C   0  0  0  0  0  0  0  0  0  0  0  0
    7.3751    0.2251   21.7703 O   0  0  0  0  0  0  0  0  0  0  0  0
    7.2810   -0.6397   20.6490 C   0  0  0  0  0  0  0  0  0  0  0  0
    6.6214    0.0459   19.4883 C   0  0  0  0  0  0  0  0  0  0  0  0
    5.3940    0.6982   19.6738 C   0  0  0  0  0  0  0  0  0  0  0  0
    4.8187    1.3654   18.5973 C   0  0  0  0  0  0  0  0  0  0  0  0
    5.4878    1.3512   17.3693 C   0  0  0  0  0  0  0  0  0  0  0  0
    6.6529    0.7202   17.1711 N   0  0  0  0  0  0  0  0  0  0  0  0
    7.1975    0.0846   18.2174 C   0  0  0  0  0  0  0  0  0  0  0  0
    8.1443   -0.4300   18.0287 H   0  0  0  0  0  0  0  0  0  0  0  0
    5.0759    1.8724   16.5078 H   0  0  0  0  0  0  0  0  0  0  0  0
    3.8798    1.8971   18.6993 H   0  0  0  0  0  0  0  0  0  0  0  0
    4.9247    0.6849   20.6611 H   0  0  0  0  0  0  0  0  0  0  0  0
    6.6568   -1.4663   21.0101 H   0  0  0  0  0  0  0  0  0  0  0  0
    8.2548   -1.0661   20.3755 H   0  0  0  0  0  0  0  0  0  0  0  0
    9.6805    0.4693   20.3903 H   0  0  0  0  0  0  0  0  0  0  0  0
   11.4294    2.1890   20.9010 H   0  0  0  0  0  0  0  0  0  0  0  0
    8.7673    4.0691   23.6789 H   0  0  0  0  0  0  0  0  0  0  0  0
    5.8476    1.9450   23.0470 H   0  0  0  0  0  0  0  0  0  0  0  0
    6.5662    3.2457   24.0253 H   0  0  0  0  0  0  0  0  0  0  0  0
    6.4604    0.0226   24.6614 N   0  0  0  0  0  0  0  0  0  0  0  0
    7.2055   -0.6355   25.5123 C   0  0  0  0  0  0  0  0  0  0  0  0
    7.2464   -2.0356   25.8098 C   0  0  0  0  0  0  0  0  0  0  0  0
    8.2709   -2.5166   26.5791 C   0  0  0  0  0  0  0  0  0  0  0  0
    9.2692   -1.6213   27.1119 C   0  0  0  0  0  0  0  0  0  0  0  0
    9.1952   -0.2891   26.8576 C   0  0  0  0  0  0  0  0  0  0  0  0
    8.1331    0.2032   26.1214 N   0  0  0  0  0  0  0  0  0  0  0  0
    9.9381    0.4325   27.1506 H   0  0  0  0  0  0  0  0  0  0  0  0
   10.1040   -1.9963   27.6901 H   0  0  0  0  0  0  0  0  0  0  0  0
    8.3431   -3.5813   26.7844 H   0  0  0  0  0  0  0  0  0  0  0  0
    6.4838   -2.6680   25.3816 H   0  0  0  0  0  0  0  0  0  0  0  0
  1  2  2  0
  2  3  1  0
  3  4  1  0
  4  5  1  0
  5  6  2  0
  6  7  1  0
  7  8  1  0
  7  9  2  0
  9 10  1  0
 10 11  2  0
 11 12  1  0
 12 13  1  0
 13 14  1  0
 14 15  2  0
 15 16  1  0
 16 17  2  0
 17 18  1  0
 18 19  2  0
 19 20  1  0
 17 21  1  0
 16 22  1  0
 15 23  1  0
 13 24  1  0
 13 25  1  0
 10 26  1  0
  9 27  1  0
  6 28  1  0
  4 29  1  0
  4 30  1  0
  3 31  1  0
 31 32  2  0
 32 33  1  0
 33 34  2  0
 34 35  1  0
 35 36  2  0
 36 37  1  0
 36 38  1  0
 35 39  1  0
 34 40  1  0
 33 41  1  0
 37  2  1  0
 11  5  1  0
 19 14  1  0
 37 32  1  0
M  END
>  <cnnaffinity>  (1) 
-5.68268

>  <filename>  (1) 
O=c1n(Cc2cc(Cl)ccc2OCc2cccnc2)nc2ccccn12

$$$$
