
     RDKit          3D

 34 36  0  0  0  0  0  0  0  0999 V2000
    5.6184   -2.0434   21.5749 O   0  0  0  0  0  0  0  0  0  0  0  0
    6.7546   -1.6685   21.7448 C   0  0  0  0  0  0  0  0  0  0  0  0
    7.7050   -2.2073   22.7479 C   0  0  0  0  0  0  0  0  0  0  0  0
    7.3039   -2.8822   23.8599 C   0  0  0  0  0  0  0  0  0  0  0  0
    8.1965   -3.4235   24.8992 C   0  0  0  0  0  0  0  0  0  0  0  0
    8.0634   -3.2100   26.2276 C   0  0  0  0  0  0  0  0  0  0  0  0
    6.9764   -2.4015   26.8368 C   0  0  0  0  0  0  0  0  0  0  0  0
    7.2951   -1.2303   27.5451 C   0  0  0  0  0  0  0  0  0  0  0  0
    6.2874   -0.4536   28.1262 C   0  0  0  0  0  0  0  0  0  0  0  0
    4.9468   -0.8352   27.9943 C   0  0  0  0  0  0  0  0  0  0  0  0
    4.6203   -1.9920   27.2807 C   0  0  0  0  0  0  0  0  0  0  0  0
    5.6301   -2.7677   26.7042 C   0  0  0  0  0  0  0  0  0  0  0  0
    5.3850   -3.6709   26.1476 H   0  0  0  0  0  0  0  0  0  0  0  0
    3.5824   -2.2937   27.1641 H   0  0  0  0  0  0  0  0  0  0  0  0
    4.1616   -0.2387   28.4548 H   0  0  0  0  0  0  0  0  0  0  0  0
    6.5516    0.4368   28.6950 H   0  0  0  0  0  0  0  0  0  0  0  0
    8.3387   -0.9310   27.6423 H   0  0  0  0  0  0  0  0  0  0  0  0
    8.8552   -3.5544   26.8928 H   0  0  0  0  0  0  0  0  0  0  0  0
    9.5769   -4.3293   24.3410 Cl  0  0  0  0  0  0  0  0  0  0  0  0
    6.2300   -2.9665   24.0450 H   0  0  0  0  0  0  0  0  0  0  0  0
    9.3194   -1.5897   22.4244 S   0  0  0  0  0  0  0  0  0  0  0  0
    8.7035   -0.3793   21.2984 C   0  0  0  0  0  0  0  0  0  0  0  0
    9.6006    0.8776   20.7676 S   0  0  0  0  0  0  0  0  0  0  0  0
    7.3826   -0.6476   20.9773 N   0  0  0  0  0  0  0  0  0  0  0  0
    6.6790    0.0120   19.8946 C   0  0  0  0  0  0  0  0  0  0  0  0
    5.4611    0.6384   20.1586 C   0  0  0  0  0  0  0  0  0  0  0  0
    4.8214    1.3065   19.1089 C   0  0  0  0  0  0  0  0  0  0  0  0
    5.4037    1.2920   17.8385 C   0  0  0  0  0  0  0  0  0  0  0  0
    6.5633    0.6697   17.5680 N   0  0  0  0  0  0  0  0  0  0  0  0
    7.1889    0.0512   18.5780 C   0  0  0  0  0  0  0  0  0  0  0  0
    8.1375   -0.4264   18.3442 H   0  0  0  0  0  0  0  0  0  0  0  0
    4.9283    1.7927   17.0015 H   0  0  0  0  0  0  0  0  0  0  0  0
    3.8901    1.8322   19.2663 H   0  0  0  0  0  0  0  0  0  0  0  0
    5.0466    0.5930   21.1614 H   0  0  0  0  0  0  0  0  0  0  0  0
  1  2  2  0
  2  3  1  0
  3  4  2  3
  4  5  1  0
  5  6  2  3
  6  7  1  0
  7  8  2  0
  8  9  1  0
  9 10  2  0
 10 11  1  0
 11 12  2  0
 12 13  1  0
 11 14  1  0
 10 15  1  0
  9 16  1  0
  8 17  1  0
  6 18  1  0
  5 19  1  0
  4 20  1  0
  3 21  1  0
 21 22  1  0
 22 23  2  0
 22 24  1  0
 24 25  1  0
 25 26  2  0
 26 27  1  0
 27 28  2  0
 28 29  1  0
 29 30  2  0
 30 31  1  0
 28 32  1  0
 27 33  1  0
 26 34  1  0
 24  2  1  0
 30 25  1  0
 12  7  1  0
M  END
>  <cnnaffinity>  (1) 
-5.40741

>  <filename>  (1) 
O=C1C(=CC(Cl)=Cc2ccccc2)SC(=S)N1c1cccnc1

$$$$
