
     RDKit          3D

 36 38  0  0  0  0  0  0  0  0999 V2000
    5.8961   -2.2183   24.9647 H   0  0  0  0  0  0  0  0  0  0  0  0
    6.4835   -1.3207   25.1639 C   0  0  0  0  0  0  0  0  0  0  0  0
    7.4231   -0.9387   24.2881 C   0  0  0  0  0  0  0  0  0  0  0  0
    7.9452    0.0110   24.4584 H   0  0  0  0  0  0  0  0  0  0  0  0
    7.7506   -1.7220   23.0262 C   0  0  1  0  0  0  0  0  0  0  0  0
    7.6547   -2.7898   23.2561 H   0  0  0  0  0  0  0  0  0  0  0  0
    6.7667   -1.5085   21.8546 C   0  0  0  0  0  0  0  0  0  0  0  0
    5.7002   -2.0587   21.6920 O   0  0  0  0  0  0  0  0  0  0  0  0
    7.3848   -0.6584   20.9507 N   0  0  0  0  0  0  0  0  0  0  0  0
    6.6819    0.0067   19.9102 C   0  0  0  0  0  0  0  0  0  0  0  0
    7.1904    0.0647   18.5937 C   0  0  0  0  0  0  0  0  0  0  0  0
    8.1349   -0.4266   18.3584 H   0  0  0  0  0  0  0  0  0  0  0  0
    6.5701    0.6743   17.5768 N   0  0  0  0  0  0  0  0  0  0  0  0
    5.4053    1.2891   17.8410 C   0  0  0  0  0  0  0  0  0  0  0  0
    4.9319    1.7863   16.9985 H   0  0  0  0  0  0  0  0  0  0  0  0
    4.8187    1.2991   19.1109 C   0  0  0  0  0  0  0  0  0  0  0  0
    3.8881    1.8314   19.2584 H   0  0  0  0  0  0  0  0  0  0  0  0
    5.4507    0.6336   20.1651 C   0  0  0  0  0  0  0  0  0  0  0  0
    5.0204    0.5979   21.1644 H   0  0  0  0  0  0  0  0  0  0  0  0
    8.8168   -0.4725   21.1889 C   0  0  0  0  0  0  0  0  0  0  0  0
    9.4031   -0.7809   20.3117 H   0  0  0  0  0  0  0  0  0  0  0  0
    9.0395    0.5887   21.3689 H   0  0  0  0  0  0  0  0  0  0  0  0
    9.1248   -1.3607   22.4161 C   0  0  0  0  0  0  0  0  0  0  0  0
    9.7819   -0.8458   23.1286 H   0  0  0  0  0  0  0  0  0  0  0  0
    9.6569   -2.2686   22.1129 H   0  0  0  0  0  0  0  0  0  0  0  0
    6.0942   -0.6029   26.3948 C   0  0  0  0  0  0  0  0  0  0  0  0
    6.9318    0.3525   26.9956 C   0  0  0  0  0  0  0  0  0  0  0  0
    7.9103    0.5483   26.5621 H   0  0  0  0  0  0  0  0  0  0  0  0
    6.5282    1.0358   28.1430 C   0  0  0  0  0  0  0  0  0  0  0  0
    7.1956    1.7711   28.5867 H   0  0  0  0  0  0  0  0  0  0  0  0
    5.2758    0.7743   28.7108 C   0  0  0  0  0  0  0  0  0  0  0  0
    4.9644    1.3066   29.6058 H   0  0  0  0  0  0  0  0  0  0  0  0
    4.4315   -0.1804   28.1280 C   0  0  0  0  0  0  0  0  0  0  0  0
    3.4587   -0.3901   28.5686 H   0  0  0  0  0  0  0  0  0  0  0  0
    4.8426   -0.8659   26.9819 C   0  0  0  0  0  0  0  0  0  0  0  0
    4.1857   -1.6015   26.5214 H   0  0  0  0  0  0  0  0  0  0  0  0
  1  2  1  0
  2  3  2  3
  3  4  1  0
  3  5  1  0
  5  6  1  1
  5  7  1  0
  7  8  2  0
  7  9  1  0
  9 10  1  0
 10 11  2  0
 11 12  1  0
 11 13  1  0
 13 14  2  0
 14 15  1  0
 14 16  1  0
 16 17  1  0
 16 18  2  0
 18 19  1  0
  9 20  1  0
 20 21  1  0
 20 22  1  0
 20 23  1  0
 23 24  1  0
 23 25  1  0
  2 26  1  0
 26 27  2  0
 27 28  1  0
 27 29  1  0
 29 30  1  0
 29 31  2  0
 31 32  1  0
 31 33  1  0
 33 34  1  0
 33 35  2  0
 35 36  1  0
 23  5  1  0
 35 26  1  0
 18 10  1  0
M  END
>  <cnnaffinity>  (1) 
-5.1956

>  <filename>  (1) 
O=C1[C@H](C=Cc2ccccc2)CCN1c1cccnc1

$$$$
