
     RDKit          3D

 38 40  0  0  0  0  0  0  0  0999 V2000
    4.8873    1.7891   17.0348 H   0  0  0  0  0  0  0  0  0  0  0  0
    5.4154    1.2683   17.8345 C   0  0  0  0  0  0  0  0  0  0  0  0
    6.5555    0.6439   17.4967 N   0  0  0  0  0  0  0  0  0  0  0  0
    7.2198    0.0019   18.4691 C   0  0  0  0  0  0  0  0  0  0  0  0
    8.1486   -0.4853   18.1783 H   0  0  0  0  0  0  0  0  0  0  0  0
    6.7863   -0.0578   19.8165 C   0  0  0  0  0  0  0  0  0  0  0  0
    7.5085   -0.7270   20.8541 N   0  0  0  0  0  0  0  0  0  0  0  0
    8.7454   -0.2606   21.2935 C   0  0  0  0  0  0  0  0  0  0  0  0
    9.2236    0.8276   21.1215 O   0  0  0  0  0  0  0  0  0  0  0  0
    9.3576   -1.2731   21.9565 O   0  0  0  0  0  0  0  0  0  0  0  0
    8.5550   -2.4535   21.9901 C   0  0  0  0  0  0  0  0  0  0  0  0
    8.3559   -2.6871   23.0462 H   0  0  0  0  0  0  0  0  0  0  0  0
    9.1393   -3.2700   21.5574 H   0  0  0  0  0  0  0  0  0  0  0  0
    7.2730   -2.1336   21.1978 C   0  0  1  0  0  0  0  0  0  0  0  0
    7.1900   -2.7264   20.2810 H   0  0  0  0  0  0  0  0  0  0  0  0
    5.9817   -2.4007   21.9892 C   0  0  0  0  0  0  0  0  0  0  0  0
    6.0805   -1.9095   22.9725 H   0  0  0  0  0  0  0  0  0  0  0  0
    5.1544   -1.9027   21.4710 H   0  0  0  0  0  0  0  0  0  0  0  0
    5.7017   -3.8442   22.0860 N   0  0  0  0  0  0  0  0  0  0  0  0
    6.4168   -4.3079   22.6449 H   0  0  0  0  0  0  0  0  0  0  0  0
    4.3992   -4.2024   22.6415 C   0  0  0  0  0  0  0  0  0  0  0  0
    3.6482   -3.7760   21.9619 H   0  0  0  0  0  0  0  0  0  0  0  0
    4.1300   -5.7095   22.7044 C   0  0  0  0  0  0  0  0  0  0  0  0
    3.9590   -6.1502   21.7181 H   0  0  0  0  0  0  0  0  0  0  0  0
    4.9923   -6.2145   23.1647 H   0  0  0  0  0  0  0  0  0  0  0  0
    2.9002   -5.8594   23.6220 C   0  0  0  0  0  0  0  0  0  0  0  0
    1.9677   -5.7541   23.0511 H   0  0  0  0  0  0  0  0  0  0  0  0
    2.8583   -6.8395   24.1118 H   0  0  0  0  0  0  0  0  0  0  0  0
    3.0199   -4.7094   24.6452 C   0  0  0  0  0  0  0  0  0  0  0  0
    3.3098   -5.0777   25.6351 H   0  0  0  0  0  0  0  0  0  0  0  0
    2.0567   -4.2019   24.7700 H   0  0  0  0  0  0  0  0  0  0  0  0
    4.1085   -3.7596   24.0929 C   0  0  0  0  0  0  0  0  0  0  0  0
    5.0265   -3.8526   24.6908 H   0  0  0  0  0  0  0  0  0  0  0  0
    3.7910   -2.7189   24.1527 H   0  0  0  0  0  0  0  0  0  0  0  0
    5.5980    0.5942   20.1397 C   0  0  0  0  0  0  0  0  0  0  0  0
    5.2654    0.5789   21.1804 H   0  0  0  0  0  0  0  0  0  0  0  0
    4.8915    1.2640   19.1341 C   0  0  0  0  0  0  0  0  0  0  0  0
    3.9604    1.7781   19.3519 H   0  0  0  0  0  0  0  0  0  0  0  0
  1  2  1  0
  2  3  2  0
  3  4  1  0
  4  5  1  0
  4  6  2  0
  6  7  1  0
  7  8  1  0
  8  9  2  0
  8 10  1  0
 10 11  1  0
 11 12  1  0
 11 13  1  0
 11 14  1  0
 14 15  1  6
 14 16  1  0
 16 17  1  0
 16 18  1  0
 16 19  1  0
 19 20  1  0
 19 21  1  0
 21 22  1  0
 21 23  1  0
 23 24  1  0
 23 25  1  0
 23 26  1  0
 26 27  1  0
 26 28  1  0
 26 29  1  0
 29 30  1  0
 29 31  1  0
 29 32  1  0
 32 33  1  0
 32 34  1  0
  6 35  1  0
 35 36  1  0
 35 37  2  0
 37 38  1  0
 37  2  1  0
 14  7  1  0
 32 21  1  0
M  END
>  <cnnaffinity>  (1) 
-4.06396

>  <filename>  (1) 
O=C1OC[C@@H](CNC2CCCC2)N1c1cccnc1

$$$$
