
     RDKit          3D

 32 34  0  0  0  0  0  0  0  0999 V2000
    4.9103    1.8603   16.8580 H   0  0  0  0  0  0  0  0  0  0  0  0
    5.3697    1.3546   17.7026 C   0  0  0  0  0  0  0  0  0  0  0  0
    6.5338    0.7283   17.4583 N   0  0  0  0  0  0  0  0  0  0  0  0
    7.1435    0.1168   18.4836 C   0  0  0  0  0  0  0  0  0  0  0  0
    8.0842   -0.3809   18.2636 H   0  0  0  0  0  0  0  0  0  0  0  0
    6.6240    0.0811   19.8020 C   0  0  0  0  0  0  0  0  0  0  0  0
    7.2709   -0.5862   20.8754 N   0  0  0  0  0  0  0  0  0  0  0  0
    8.6396   -0.6068   21.1311 C   0  0  0  0  0  0  0  0  0  0  0  0
    9.4862   -0.0404   20.4749 O   0  0  0  0  0  0  0  0  0  0  0  0
    8.8724   -1.4494   22.4038 C   0  0  2  0  0  0  0  0  0  0  0  0
    9.2377   -0.7362   23.1525 H   0  0  0  0  0  0  0  0  0  0  0  0
    9.9312   -2.5745   22.2236 C   0  0  0  0  0  0  0  0  0  0  0  0
   10.9276   -2.1358   22.1274 H   0  0  0  0  0  0  0  0  0  0  0  0
    9.7019   -3.0654   21.2726 H   0  0  0  0  0  0  0  0  0  0  0  0
    9.9855   -3.6171   23.3100 C   0  0  0  0  0  0  0  0  0  0  0  0
   10.9613   -3.6226   24.2782 N   0  0  0  0  0  0  0  0  0  0  0  0
   10.6752   -4.6175   25.0750 C   0  0  0  0  0  0  0  0  0  0  0  0
   11.2111   -4.8837   25.9778 H   0  0  0  0  0  0  0  0  0  0  0  0
    9.5755   -5.2970   24.6674 N   0  0  0  0  0  0  0  0  0  0  0  0
    9.1741   -6.0904   25.1413 H   0  0  0  0  0  0  0  0  0  0  0  0
    9.1196   -4.6593   23.5368 C   0  0  0  0  0  0  0  0  0  0  0  0
    8.2461   -4.9716   22.9886 H   0  0  0  0  0  0  0  0  0  0  0  0
    7.4789   -1.9869   22.7545 C   0  0  0  0  0  0  0  0  0  0  0  0
    7.2838   -2.0000   23.8303 H   0  0  0  0  0  0  0  0  0  0  0  0
    7.3773   -3.0112   22.3841 H   0  0  0  0  0  0  0  0  0  0  0  0
    6.4977   -1.1007   22.0018 C   0  0  0  0  0  0  0  0  0  0  0  0
    6.1409   -0.2760   22.6352 H   0  0  0  0  0  0  0  0  0  0  0  0
    5.6303   -1.6578   21.6292 H   0  0  0  0  0  0  0  0  0  0  0  0
    5.3810    0.7038   20.0181 C   0  0  0  0  0  0  0  0  0  0  0  0
    4.9154    0.6606   21.0008 H   0  0  0  0  0  0  0  0  0  0  0  0
    4.7560    1.3637   18.9585 C   0  0  0  0  0  0  0  0  0  0  0  0
    3.8094    1.8775   19.1010 H   0  0  0  0  0  0  0  0  0  0  0  0
  1  2  1  0
  2  3  2  0
  3  4  1  0
  4  5  1  0
  4  6  2  0
  6  7  1  0
  7  8  1  0
  8  9  2  0
  8 10  1  0
 10 11  1  1
 10 12  1  0
 12 13  1  0
 12 14  1  0
 12 15  1  0
 15 16  1  0
 16 17  2  0
 17 18  1  0
 17 19  1  0
 19 20  1  0
 19 21  1  0
 21 22  1  0
 10 23  1  0
 23 24  1  0
 23 25  1  0
 23 26  1  0
 26 27  1  0
 26 28  1  0
  6 29  1  0
 29 30  1  0
 29 31  2  0
 31 32  1  0
 31  2  1  0
 26  7  1  0
 21 15  2  0
M  END
>  <cnnaffinity>  (1) 
-5.19662

>  <filename>  (1) 
O=C1[C@H](Cc2c[nH]cn2)CCN1c1cccnc1

$$$$
