
     RDKit          3D

 34 36  0  0  0  0  0  0  0  0999 V2000
    4.9169    1.7959   16.9857 H   0  0  0  0  0  0  0  0  0  0  0  0
    5.3982    1.2985   17.8249 C   0  0  0  0  0  0  0  0  0  0  0  0
    6.5633    0.6903   17.5562 N   0  0  0  0  0  0  0  0  0  0  0  0
    7.1754    0.0730   18.5736 C   0  0  0  0  0  0  0  0  0  0  0  0
    8.1238   -0.4138   18.3356 H   0  0  0  0  0  0  0  0  0  0  0  0
    6.6643    0.0071   19.8802 C   0  0  0  0  0  0  0  0  0  0  0  0
    7.3917   -0.7021   21.0024 C   0  0  2  0  0  0  0  0  0  0  0  0
    8.1896   -1.3302   20.5839 H   0  0  0  0  0  0  0  0  0  0  0  0
    6.5139   -1.6650   21.8200 C   0  0  0  0  0  0  0  0  0  0  0  0
    5.7946   -2.5648   21.4389 O   0  0  0  0  0  0  0  0  0  0  0  0
    6.7237   -1.3742   23.1221 N   0  0  0  0  0  0  0  0  0  0  0  0
    6.2416   -1.9719   23.7674 H   0  0  0  0  0  0  0  0  0  0  0  0
    7.7155   -0.3699   23.4304 C   0  0  0  0  0  0  0  0  0  0  0  0
    7.3548    0.3580   24.1711 H   0  0  0  0  0  0  0  0  0  0  0  0
    8.6255   -0.8205   23.8623 H   0  0  0  0  0  0  0  0  0  0  0  0
    7.9841    0.2753   22.0476 C   0  0  1  0  0  0  0  0  0  0  0  0
    7.4209    1.2235   22.0106 H   0  0  0  0  0  0  0  0  0  0  0  0
    9.4618    0.6037   21.7819 C   0  0  0  0  0  0  0  0  0  0  0  0
    9.5790    0.9417   20.7462 H   0  0  0  0  0  0  0  0  0  0  0  0
   10.0664   -0.3062   21.8964 H   0  0  0  0  0  0  0  0  0  0  0  0
    9.9676    1.6666   22.7084 C   0  0  0  0  0  0  0  0  0  0  0  0
    9.6805    3.0172   22.4761 C   0  0  0  0  0  0  0  0  0  0  0  0
    9.1073    3.3226   21.6081 H   0  0  0  0  0  0  0  0  0  0  0  0
   10.1326    3.9784   23.3766 C   0  0  0  0  0  0  0  0  0  0  0  0
    9.9256    5.0357   23.2220 H   0  0  0  0  0  0  0  0  0  0  0  0
   10.8330    3.6769   24.4763 N   0  0  0  0  0  0  0  0  0  0  0  0
   11.0828    2.3793   24.7062 C   0  0  0  0  0  0  0  0  0  0  0  0
   11.6381    2.1434   25.6062 H   0  0  0  0  0  0  0  0  0  0  0  0
   10.6724    1.3497   23.8706 C   0  0  0  0  0  0  0  0  0  0  0  0
   10.9057    0.3238   24.1389 H   0  0  0  0  0  0  0  0  0  0  0  0
    5.4492    0.6524   20.1395 C   0  0  0  0  0  0  0  0  0  0  0  0
    5.0227    0.6261   21.1485 H   0  0  0  0  0  0  0  0  0  0  0  0
    4.8082    1.3109   19.0924 C   0  0  0  0  0  0  0  0  0  0  0  0
    3.8780    1.8414   19.2462 H   0  0  0  0  0  0  0  0  0  0  0  0
  1  2  1  0
  2  3  2  0
  3  4  1  0
  4  5  1  0
  4  6  2  0
  6  7  1  0
  7  8  1  6
  7  9  1  0
  9 10  2  0
  9 11  1  0
 11 12  1  0
 11 13  1  0
 13 14  1  0
 13 15  1  0
 13 16  1  0
 16 17  1  1
 16 18  1  0
 18 19  1  0
 18 20  1  0
 18 21  1  0
 21 22  2  0
 22 23  1  0
 22 24  1  0
 24 25  1  0
 24 26  2  0
 26 27  1  0
 27 28  1  0
 27 29  2  0
 29 30  1  0
  6 31  1  0
 31 32  1  0
 31 33  2  0
 33 34  1  0
 33  2  1  0
 16  7  1  0
 29 21  1  0
M  END
>  <cnnaffinity>  (1) 
-5.15489

>  <filename>  (1) 
O=C1NC[C@@H](Cc2ccncc2)[C@@H]1c1cccnc1

$$$$
