
     RDKit          3D

 35 37  0  0  0  0  0  0  0  0999 V2000
    4.9093    1.7830   16.9918 H   0  0  0  0  0  0  0  0  0  0  0  0
    5.3981    1.2978   17.8321 C   0  0  0  0  0  0  0  0  0  0  0  0
    6.5620    0.6837   17.5601 N   0  0  0  0  0  0  0  0  0  0  0  0
    7.1832    0.0800   18.5812 C   0  0  0  0  0  0  0  0  0  0  0  0
    8.1202   -0.4310   18.3677 H   0  0  0  0  0  0  0  0  0  0  0  0
    6.6738    0.0355   19.8926 C   0  0  0  0  0  0  0  0  0  0  0  0
    7.3690   -0.6609   20.9447 N   0  0  0  0  0  0  0  0  0  0  0  0
    8.6534   -0.2585   21.2775 C   0  0  0  0  0  0  0  0  0  0  0  0
    9.0525    0.5778   20.7023 H   0  0  0  0  0  0  0  0  0  0  0  0
    9.3436   -0.8735   22.2738 C   0  0  0  0  0  0  0  0  0  0  0  0
   10.3392   -0.5310   22.5336 H   0  0  0  0  0  0  0  0  0  0  0  0
    8.7530   -1.9725   22.9675 C   0  0  0  0  0  0  0  0  0  0  0  0
    9.6305   -2.6995   24.3404 S   0  0  0  0  0  0  0  0  0  0  0  0
    9.0798   -1.5114   25.6263 C   0  0  0  0  0  0  0  0  0  0  0  0
    9.3749   -0.5113   25.2971 H   0  0  0  0  0  0  0  0  0  0  0  0
    9.6564   -1.7411   26.5269 H   0  0  0  0  0  0  0  0  0  0  0  0
    7.6012   -1.5901   25.9000 C   0  0  0  0  0  0  0  0  0  0  0  0
    7.0839   -2.7051   26.5770 C   0  0  0  0  0  0  0  0  0  0  0  0
    7.7655   -3.4759   26.9349 H   0  0  0  0  0  0  0  0  0  0  0  0
    5.7095   -2.8269   26.7866 C   0  0  0  0  0  0  0  0  0  0  0  0
    5.3211   -3.6829   27.3329 H   0  0  0  0  0  0  0  0  0  0  0  0
    4.8371   -1.8442   26.3031 C   0  0  0  0  0  0  0  0  0  0  0  0
    3.7671   -1.9348   26.4679 H   0  0  0  0  0  0  0  0  0  0  0  0
    5.3431   -0.7432   25.6051 C   0  0  0  0  0  0  0  0  0  0  0  0
    4.6712    0.0174   25.2145 H   0  0  0  0  0  0  0  0  0  0  0  0
    6.7199   -0.6142   25.4099 C   0  0  0  0  0  0  0  0  0  0  0  0
    7.1123    0.2220   24.8326 H   0  0  0  0  0  0  0  0  0  0  0  0
    7.4973   -2.3968   22.6326 C   0  0  0  0  0  0  0  0  0  0  0  0
    6.9734   -3.1719   23.1647 H   0  0  0  0  0  0  0  0  0  0  0  0
    6.7084   -1.7609   21.6085 C   0  0  0  0  0  0  0  0  0  0  0  0
    5.5936   -2.1330   21.2802 O   0  0  0  0  0  0  0  0  0  0  0  0
    5.4480    0.6549   20.1570 C   0  0  0  0  0  0  0  0  0  0  0  0
    5.0191    0.6112   21.1621 H   0  0  0  0  0  0  0  0  0  0  0  0
    4.8080    1.3151   19.1035 C   0  0  0  0  0  0  0  0  0  0  0  0
    3.8720    1.8441   19.2603 H   0  0  0  0  0  0  0  0  0  0  0  0
  1  2  1  0
  2  3  2  0
  3  4  1  0
  4  5  1  0
  4  6  2  0
  6  7  1  0
  7  8  1  0
  8  9  1  0
  8 10  2  0
 10 11  1  0
 10 12  1  0
 12 13  1  0
 13 14  1  0
 14 15  1  0
 14 16  1  0
 14 17  1  0
 17 18  2  0
 18 19  1  0
 18 20  1  0
 20 21  1  0
 20 22  2  0
 22 23  1  0
 22 24  1  0
 24 25  1  0
 24 26  2  0
 26 27  1  0
 12 28  2  0
 28 29  1  0
 28 30  1  0
 30 31  2  0
  6 32  1  0
 32 33  1  0
 32 34  2  0
 34 35  1  0
 34  2  1  0
 30  7  1  0
 26 17  1  0
M  END
>  <cnnaffinity>  (1) 
-5.36489

>  <filename>  (1) 
O=c1cc(SCc2ccccc2)ccn1-c1cccnc1

$$$$
