
     RDKit          3D

 36 38  0  0  0  0  0  0  0  0999 V2000
    5.5538    2.1044   16.5193 H   0  0  0  0  0  0  0  0  0  0  0  0
    5.9405    1.5719   17.3864 C   0  0  0  0  0  0  0  0  0  0  0  0
    7.1695    1.0447   17.2707 N   0  0  0  0  0  0  0  0  0  0  0  0
    7.6745    0.3818   18.3206 C   0  0  0  0  0  0  0  0  0  0  0  0
    8.6734   -0.0342   18.1944 H   0  0  0  0  0  0  0  0  0  0  0  0
    6.9704    0.1664   19.5273 C   0  0  0  0  0  0  0  0  0  0  0  0
    7.4532   -0.6448   20.5898 N   0  0  0  0  0  0  0  0  0  0  0  0
    6.6602   -1.6404   21.1439 C   0  0  0  0  0  0  0  0  0  0  0  0
    5.5036   -1.8751   20.8766 O   0  0  0  0  0  0  0  0  0  0  0  0
    7.4772   -2.3782   22.0349 N   0  0  0  0  0  0  0  0  0  0  0  0
    6.9648   -3.1849   23.1744 N   0  0  0  0  0  0  0  0  0  0  0  0
    5.9894   -3.4282   22.9652 H   0  0  0  0  0  0  0  0  0  0  0  0
    7.2628   -4.9086   23.3364 S   0  0  0  0  0  0  0  0  0  0  0  0
    5.9926   -5.4024   22.8147 O   0  0  0  0  0  0  0  0  0  0  0  0
    8.5470   -5.2283   22.7688 O   0  0  0  0  0  0  0  0  0  0  0  0
    7.3083   -5.1928   25.0770 C   0  0  0  0  0  0  0  0  0  0  0  0
    6.2952   -5.9432   25.6992 C   0  0  0  0  0  0  0  0  0  0  0  0
    5.4170   -6.2830   25.1513 H   0  0  0  0  0  0  0  0  0  0  0  0
    6.4249   -6.2689   27.0486 C   0  0  0  0  0  0  0  0  0  0  0  0
    5.6748   -6.9124   27.5050 H   0  0  0  0  0  0  0  0  0  0  0  0
    7.5321   -5.8301   27.7850 C   0  0  0  0  0  0  0  0  0  0  0  0
    7.6310   -6.1084   28.8331 H   0  0  0  0  0  0  0  0  0  0  0  0
    8.5224   -5.0607   27.1566 C   0  0  0  0  0  0  0  0  0  0  0  0
    9.4049   -4.7585   27.7134 H   0  0  0  0  0  0  0  0  0  0  0  0
    8.4207   -4.7390   25.8002 C   0  0  0  0  0  0  0  0  0  0  0  0
    9.2090   -4.1604   25.3121 H   0  0  0  0  0  0  0  0  0  0  0  0
    8.6658   -1.5868   22.3369 C   0  0  0  0  0  0  0  0  0  0  0  0
    8.4724   -0.9553   23.2132 H   0  0  0  0  0  0  0  0  0  0  0  0
    9.5241   -2.2293   22.5492 H   0  0  0  0  0  0  0  0  0  0  0  0
    8.8316   -0.7502   21.0569 C   0  0  0  0  0  0  0  0  0  0  0  0
    9.4668   -1.2667   20.3217 H   0  0  0  0  0  0  0  0  0  0  0  0
    9.2622    0.2420   21.2299 H   0  0  0  0  0  0  0  0  0  0  0  0
    5.6926    0.7478   19.6380 C   0  0  0  0  0  0  0  0  0  0  0  0
    5.1193    0.6016   20.5524 H   0  0  0  0  0  0  0  0  0  0  0  0
    5.1773    1.4642   18.5552 C   0  0  0  0  0  0  0  0  0  0  0  0
    4.1932    1.9257   18.6002 H   0  0  0  0  0  0  0  0  0  0  0  0
  1  2  1  0
  2  3  2  0
  3  4  1  0
  4  5  1  0
  4  6  2  0
  6  7  1  0
  7  8  1  0
  8  9  2  0
  8 10  1  0
 10 11  1  0
 11 12  1  0
 11 13  1  0
 13 14  2  0
 13 15  2  0
 13 16  1  0
 16 17  2  0
 17 18  1  0
 17 19  1  0
 19 20  1  0
 19 21  2  0
 21 22  1  0
 21 23  1  0
 23 24  1  0
 23 25  2  0
 25 26  1  0
 10 27  1  0
 27 28  1  0
 27 29  1  0
 27 30  1  0
 30 31  1  0
 30 32  1  0
  6 33  1  0
 33 34  1  0
 33 35  2  0
 35 36  1  0
 35  2  1  0
 30  7  1  0
 25 16  1  0
M  END
>  <cnnaffinity>  (1) 
-4.99792

>  <filename>  (1) 
O=C1N(NS(=O)(=O)c2ccccc2)CCN1c1cccnc1

$$$$
