
     RDKit          3D

 45 48  0  0  0  0  0  0  0  0999 V2000
    6.8422    3.7485   26.9623 O   0  0  0  0  0  0  0  0  0  0  0  0
    7.0070    3.8903   25.7638 C   0  0  0  0  0  0  0  0  0  0  0  0
    6.8755    2.8240   24.8984 N   0  0  0  0  0  0  0  0  0  0  0  0
    7.2109    2.8140   23.5176 N   0  0  0  0  0  0  0  0  0  0  0  0
    8.6626    2.5397   23.3132 C   0  0  0  0  0  0  0  0  0  0  0  0
    9.0307    1.1408   23.7676 C   0  0  0  0  0  0  0  0  0  0  0  0
    9.5787    0.9303   25.0406 C   0  0  0  0  0  0  0  0  0  0  0  0
    9.7329   -0.3696   25.5303 C   0  0  0  0  0  0  0  0  0  0  0  0
   10.0996   -0.6274   27.2130 Cl  0  0  0  0  0  0  0  0  0  0  0  0
    9.4755   -1.4658   24.7114 C   0  0  0  0  0  0  0  0  0  0  0  0
    8.9547   -1.2750   23.4259 C   0  0  0  0  0  0  0  0  0  0  0  0
    8.6800    0.0238   22.9709 C   0  0  0  0  0  0  0  0  0  0  0  0
    8.0993    0.3082   21.7677 O   0  0  0  0  0  0  0  0  0  0  0  0
    7.4449   -0.7038   21.0151 C   0  0  0  0  0  0  0  0  0  0  0  0
    6.6707   -0.0138   19.9179 C   0  0  0  0  0  0  0  0  0  0  0  0
    5.4610    0.6537   20.1591 C   0  0  0  0  0  0  0  0  0  0  0  0
    4.8282    1.2960   19.0908 C   0  0  0  0  0  0  0  0  0  0  0  0
    5.4407    1.2779   17.8324 C   0  0  0  0  0  0  0  0  0  0  0  0
    6.6061    0.6611   17.5855 N   0  0  0  0  0  0  0  0  0  0  0  0
    7.1938    0.0449   18.6200 C   0  0  0  0  0  0  0  0  0  0  0  0
    8.1415   -0.4445   18.3995 H   0  0  0  0  0  0  0  0  0  0  0  0
    4.9829    1.7921   16.9881 H   0  0  0  0  0  0  0  0  0  0  0  0
    3.8908    1.8275   19.2209 H   0  0  0  0  0  0  0  0  0  0  0  0
    5.0317    0.6967   21.1647 H   0  0  0  0  0  0  0  0  0  0  0  0
    6.7670   -1.2917   21.6556 H   0  0  0  0  0  0  0  0  0  0  0  0
    8.1953   -1.3827   20.5837 H   0  0  0  0  0  0  0  0  0  0  0  0
    8.7244   -2.1393   22.8098 H   0  0  0  0  0  0  0  0  0  0  0  0
    9.6691   -2.4599   25.0979 H   0  0  0  0  0  0  0  0  0  0  0  0
    9.8644    1.7657   25.6784 H   0  0  0  0  0  0  0  0  0  0  0  0
    8.8495    2.6434   22.2388 H   0  0  0  0  0  0  0  0  0  0  0  0
    9.2570    3.2972   23.8476 H   0  0  0  0  0  0  0  0  0  0  0  0
    6.7558    4.0749   22.8978 C   0  0  0  0  0  0  0  0  0  0  0  0
    7.1994    5.3110   23.6855 C   0  0  0  0  0  0  0  0  0  0  0  0
    7.4242    6.5503   23.0780 C   0  0  0  0  0  0  0  0  0  0  0  0
    7.7256    7.6694   23.8594 C   0  0  0  0  0  0  0  0  0  0  0  0
    7.8999    7.5353   25.2411 C   0  0  0  0  0  0  0  0  0  0  0  0
    7.7033    6.3041   25.8607 C   0  0  0  0  0  0  0  0  0  0  0  0
    7.3246    5.1969   25.0905 C   0  0  0  0  0  0  0  0  0  0  0  0
    7.8336    6.1850   26.9353 H   0  0  0  0  0  0  0  0  0  0  0  0
    8.1926    8.3883   25.8422 H   0  0  0  0  0  0  0  0  0  0  0  0
    7.7998    8.6445   23.3886 H   0  0  0  0  0  0  0  0  0  0  0  0
    7.3736    6.6562   21.9952 H   0  0  0  0  0  0  0  0  0  0  0  0
    7.1267    4.0900   21.8672 H   0  0  0  0  0  0  0  0  0  0  0  0
    5.6571    4.0399   22.8571 H   0  0  0  0  0  0  0  0  0  0  0  0
    6.6191    1.9512   25.3409 H   0  0  0  0  0  0  0  0  0  0  0  0
  1  2  2  0
  2  3  1  0
  3  4  1  0
  4  5  1  0
  5  6  1  0
  6  7  2  0
  7  8  1  0
  8  9  1  0
  8 10  2  0
 10 11  1  0
 11 12  2  0
 12 13  1  0
 13 14  1  0
 14 15  1  0
 15 16  2  0
 16 17  1  0
 17 18  2  0
 18 19  1  0
 19 20  2  0
 20 21  1  0
 18 22  1  0
 17 23  1  0
 16 24  1  0
 14 25  1  0
 14 26  1  0
 11 27  1  0
 10 28  1  0
  7 29  1  0
  5 30  1  0
  5 31  1  0
  4 32  1  0
 32 33  1  0
 33 34  2  0
 34 35  1  0
 35 36  2  0
 36 37  1  0
 37 38  2  0
 37 39  1  0
 36 40  1  0
 35 41  1  0
 34 42  1  0
 32 43  1  0
 32 44  1  0
  3 45  1  0
 38  2  1  0
 12  6  1  0
 20 15  1  0
 38 33  1  0
M  END
>  <cnnaffinity>  (1) 
-5.59666

>  <filename>  (1) 
O=C1NN(Cc2cc(Cl)ccc2OCc2cccnc2)Cc2ccccc21

$$$$
