
     RDKit          3D

 34 36  0  0  0  0  0  0  0  0999 V2000
    4.9090    1.8195   16.9378 H   0  0  0  0  0  0  0  0  0  0  0  0
    5.3739    1.3306   17.7906 C   0  0  0  0  0  0  0  0  0  0  0  0
    6.5434    0.7155   17.5530 N   0  0  0  0  0  0  0  0  0  0  0  0
    7.1406    0.1198   18.5955 C   0  0  0  0  0  0  0  0  0  0  0  0
    8.0911   -0.3686   18.3728 H   0  0  0  0  0  0  0  0  0  0  0  0
    6.6322    0.1169   19.9161 C   0  0  0  0  0  0  0  0  0  0  0  0
    7.3439   -0.5729   21.0399 C   0  0  0  0  0  0  0  0  0  0  0  0
    7.5648    0.0233   22.3249 C   0  0  0  0  0  0  0  0  0  0  0  0
    7.1688    1.0218   22.5240 H   0  0  0  0  0  0  0  0  0  0  0  0
    8.2300   -0.6429   23.3343 C   0  0  0  0  0  0  0  0  0  0  0  0
    8.2934   -0.1307   24.7495 C   0  0  0  0  0  0  0  0  0  0  0  0
    8.3731    0.9655   24.7677 H   0  0  0  0  0  0  0  0  0  0  0  0
    9.1971   -0.4934   25.2490 H   0  0  0  0  0  0  0  0  0  0  0  0
    7.0671   -0.5726   25.5307 C   0  0  0  0  0  0  0  0  0  0  0  0
    7.0790   -1.7208   26.3337 C   0  0  0  0  0  0  0  0  0  0  0  0
    7.9786   -2.3251   26.3980 H   0  0  0  0  0  0  0  0  0  0  0  0
    5.9350   -2.1126   27.0308 C   0  0  0  0  0  0  0  0  0  0  0  0
    5.9406   -2.9914   27.6667 H   0  0  0  0  0  0  0  0  0  0  0  0
    4.7538   -1.3719   26.9183 C   0  0  0  0  0  0  0  0  0  0  0  0
    3.3658   -1.8756   27.8223 Cl  0  0  0  0  0  0  0  0  0  0  0  0
    4.7186   -0.2449   26.0821 C   0  0  0  0  0  0  0  0  0  0  0  0
    3.2765    0.6892   25.8694 Cl  0  0  0  0  0  0  0  0  0  0  0  0
    5.8714    0.1391   25.3920 C   0  0  0  0  0  0  0  0  0  0  0  0
    5.8175    0.9954   24.7258 H   0  0  0  0  0  0  0  0  0  0  0  0
    8.7300   -2.0060   23.1070 C   0  0  0  0  0  0  0  0  0  0  0  0
    9.3190   -2.7379   23.8900 O   0  0  0  0  0  0  0  0  0  0  0  0
    8.4595   -2.5077   21.8382 N   0  0  0  0  0  0  0  0  0  0  0  0
    8.8950   -3.4147   21.7448 H   0  0  0  0  0  0  0  0  0  0  0  0
    7.7494   -1.8660   20.8624 C   0  0  0  0  0  0  0  0  0  0  0  0
    7.4042   -2.4341   20.0090 H   0  0  0  0  0  0  0  0  0  0  0  0
    5.4014    0.7531   20.1266 C   0  0  0  0  0  0  0  0  0  0  0  0
    4.9553    0.7414   21.1223 H   0  0  0  0  0  0  0  0  0  0  0  0
    4.7616    1.3650   19.0467 C   0  0  0  0  0  0  0  0  0  0  0  0
    3.8104    1.8664   19.1680 H   0  0  0  0  0  0  0  0  0  0  0  0
  1  2  1  0
  2  3  2  0
  3  4  1  0
  4  5  1  0
  4  6  2  0
  6  7  1  0
  7  8  1  0
  8  9  1  0
  8 10  2  0
 10 11  1  0
 11 12  1  0
 11 13  1  0
 11 14  1  0
 14 15  2  0
 15 16  1  0
 15 17  1  0
 17 18  1  0
 17 19  2  0
 19 20  1  0
 19 21  1  0
 21 22  1  0
 21 23  2  0
 23 24  1  0
 10 25  1  0
 25 26  2  0
 25 27  1  0
 27 28  1  0
 27 29  1  0
 29 30  1  0
  6 31  1  0
 31 32  1  0
 31 33  2  0
 33 34  1  0
 33  2  1  0
 29  7  2  0
 23 14  1  0
M  END
>  <cnnaffinity>  (1) 
-5.37431

>  <filename>  (1) 
O=c1[nH]cc(-c2cccnc2)cc1Cc1ccc(Cl)c(Cl)c1

$$$$
