
     RDKit          3D

 28 30  0  0  0  0  0  0  0  0999 V2000
    7.3177    2.8995   25.0915 H   0  0  0  0  0  0  0  0  0  0  0  0
    7.6300    2.5924   24.0973 C   0  0  0  0  0  0  0  0  0  0  0  0
    7.8722    3.2915   22.9971 C   0  0  0  0  0  0  0  0  0  0  0  0
    7.7751    4.3508   22.7743 H   0  0  0  0  0  0  0  0  0  0  0  0
    8.3373    2.3598   21.9334 C   0  0  0  0  0  0  0  0  0  0  0  0
    8.7464    2.6198   20.8288 O   0  0  0  0  0  0  0  0  0  0  0  0
    8.2564    1.0764   22.4805 N   0  0  0  0  0  0  0  0  0  0  0  0
    8.4825   -0.1094   21.7527 N   0  0  0  0  0  0  0  0  0  0  0  0
    9.1655    0.0806   21.0200 H   0  0  0  0  0  0  0  0  0  0  0  0
    7.3105   -0.7205   21.1345 C   0  0  0  0  0  0  0  0  0  0  0  0
    6.6219    0.0389   20.0332 C   0  0  0  0  0  0  0  0  0  0  0  0
    7.2107    0.0874   18.7614 C   0  0  0  0  0  0  0  0  0  0  0  0
    8.1544   -0.4301   18.5833 H   0  0  0  0  0  0  0  0  0  0  0  0
    6.6599    0.6718   17.6883 N   0  0  0  0  0  0  0  0  0  0  0  0
    5.4822    1.2901   17.8632 C   0  0  0  0  0  0  0  0  0  0  0  0
    5.0582    1.7715   16.9835 H   0  0  0  0  0  0  0  0  0  0  0  0
    4.8151    1.3322   19.0916 C   0  0  0  0  0  0  0  0  0  0  0  0
    3.8724    1.8595   19.1722 H   0  0  0  0  0  0  0  0  0  0  0  0
    5.3959    0.7009   20.1923 C   0  0  0  0  0  0  0  0  0  0  0  0
    4.9306    0.7122   21.1782 H   0  0  0  0  0  0  0  0  0  0  0  0
    6.5824   -1.6510   22.0526 C   0  0  0  0  0  0  0  0  0  0  0  0
    5.5201   -1.7850   21.8928 H   0  0  0  0  0  0  0  0  0  0  0  0
    6.9455   -1.6203   23.0748 H   0  0  0  0  0  0  0  0  0  0  0  0
    7.4803   -2.2071   20.9967 C   0  0  0  0  0  0  0  0  0  0  0  0
    6.9771   -2.6835   20.1634 H   0  0  0  0  0  0  0  0  0  0  0  0
    8.4368   -2.6287   21.2882 H   0  0  0  0  0  0  0  0  0  0  0  0
    7.8461    1.1363   23.8177 C   0  0  0  0  0  0  0  0  0  0  0  0
    7.7060    0.2199   24.5915 O   0  0  0  0  0  0  0  0  0  0  0  0
  1  2  1  0
  2  3  2  0
  3  4  1  0
  3  5  1  0
  5  6  2  0
  5  7  1  0
  7  8  1  0
  8  9  1  0
  8 10  1  0
 10 11  1  0
 11 12  2  0
 12 13  1  0
 12 14  1  0
 14 15  2  0
 15 16  1  0
 15 17  1  0
 17 18  1  0
 17 19  2  0
 19 20  1  0
 10 21  1  0
 21 22  1  0
 21 23  1  0
 21 24  1  0
 24 25  1  0
 24 26  1  0
  7 27  1  0
 27 28  2  0
 27  2  1  0
 24 10  1  0
 19 11  1  0
M  END
>  <cnnaffinity>  (1) 
-4.90729

>  <filename>  (1) 
O=C1C=CC(=O)N1NC1(c2cccnc2)CC1

$$$$
