
     RDKit          3D

 26 28  0  0  0  0  0  0  0  0999 V2000
   13.8089   -1.2119   22.7424 H   0  0  0  0  0  0  0  0  0  0  0  0
   12.8316   -0.8659   22.4295 C   0  0  0  0  0  0  0  0  0  0  0  0
   12.6068    0.3988   21.9748 N   0  0  0  0  0  0  0  0  0  0  0  0
   11.3394    0.3667   21.6441 C   0  0  0  0  0  0  0  0  0  0  0  0
   10.7844    1.1643   21.1644 H   0  0  0  0  0  0  0  0  0  0  0  0
   10.8053   -0.8425   21.9405 N   0  0  0  0  0  0  0  0  0  0  0  0
    9.4179   -1.1565   21.9119 C   0  0  0  0  0  0  0  0  0  0  0  0
    8.7083   -0.5397   20.9250 N   0  0  0  0  0  0  0  0  0  0  0  0
    7.4149   -0.7877   20.8371 C   0  0  0  0  0  0  0  0  0  0  0  0
    6.6821   -0.0120   19.8317 C   0  0  0  0  0  0  0  0  0  0  0  0
    7.2448    0.1379   18.5482 C   0  0  0  0  0  0  0  0  0  0  0  0
    8.2213   -0.2848   18.3235 H   0  0  0  0  0  0  0  0  0  0  0  0
    6.6349    0.7591   17.5381 N   0  0  0  0  0  0  0  0  0  0  0  0
    5.4457    1.3260   17.7957 C   0  0  0  0  0  0  0  0  0  0  0  0
    4.9609    1.8184   16.9536 H   0  0  0  0  0  0  0  0  0  0  0  0
    4.8372    1.2983   19.0540 C   0  0  0  0  0  0  0  0  0  0  0  0
    3.9079    1.8316   19.2045 H   0  0  0  0  0  0  0  0  0  0  0  0
    5.4617    0.6209   20.1013 C   0  0  0  0  0  0  0  0  0  0  0  0
    5.0289    0.6133   21.1054 H   0  0  0  0  0  0  0  0  0  0  0  0
    6.7101   -1.8139   21.7167 C   0  0  0  0  0  0  0  0  0  0  0  0
    5.6006   -2.3121   21.6305 O   0  0  0  0  0  0  0  0  0  0  0  0
    7.5228   -2.2404   22.7696 N   0  0  0  0  0  0  0  0  0  0  0  0
    7.0080   -2.8625   23.3861 H   0  0  0  0  0  0  0  0  0  0  0  0
    8.8598   -1.9561   22.8699 C   0  0  0  0  0  0  0  0  0  0  0  0
    9.4099   -2.3944   23.6958 H   0  0  0  0  0  0  0  0  0  0  0  0
   11.7716   -1.6491   22.4637 N   0  0  0  0  0  0  0  0  0  0  0  0
  1  2  1  0
  2  3  1  0
  3  4  2  0
  4  5  1  0
  4  6  1  0
  6  7  1  0
  7  8  1  0
  8  9  2  0
  9 10  1  0
 10 11  2  0
 11 12  1  0
 11 13  1  0
 13 14  2  0
 14 15  1  0
 14 16  1  0
 16 17  1  0
 16 18  2  0
 18 19  1  0
  9 20  1  0
 20 21  2  0
 20 22  1  0
 22 23  1  0
 22 24  1  0
 24 25  1  0
  6 26  1  0
 26  2  2  0
 24  7  2  0
 18 10  1  0
M  END
>  <cnnaffinity>  (1) 
-4.48437

>  <filename>  (1) 
O=c1[nH]cc(-n2cncn2)nc1-c1cccnc1

$$$$
