
     RDKit          3D

 29 31  0  0  0  0  0  0  0  0999 V2000
    4.7855    1.6474   17.6437 H   0  0  0  0  0  0  0  0  0  0  0  0
    5.4133    1.2716   18.4469 C   0  0  0  0  0  0  0  0  0  0  0  0
    6.6347    0.8401   18.0951 N   0  0  0  0  0  0  0  0  0  0  0  0
    7.4350    0.3716   19.0597 C   0  0  0  0  0  0  0  0  0  0  0  0
    8.4285    0.0581   18.7569 H   0  0  0  0  0  0  0  0  0  0  0  0
    7.0617    0.2958   20.4241 C   0  0  0  0  0  0  0  0  0  0  0  0
    7.9588   -0.1122   21.4493 N   0  0  0  0  0  0  0  0  0  0  0  0
    8.9665   -1.0575   21.3116 C   0  0  0  0  0  0  0  0  0  0  0  0
    9.1280   -1.7767   20.3537 O   0  0  0  0  0  0  0  0  0  0  0  0
    9.7994   -1.0523   22.5712 C   0  0  0  0  0  0  0  0  0  0  0  0
   10.8572   -1.0611   22.3048 H   0  0  0  0  0  0  0  0  0  0  0  0
    9.5846   -1.9896   23.0957 H   0  0  0  0  0  0  0  0  0  0  0  0
    9.3494    0.1994   23.3258 C   0  0  0  0  0  0  0  0  0  0  0  0
    9.3247    0.0523   24.4078 H   0  0  0  0  0  0  0  0  0  0  0  0
   10.0206    1.0377   23.1129 H   0  0  0  0  0  0  0  0  0  0  0  0
    7.9427    0.5205   22.7706 C   0  0  2  0  0  0  0  0  0  0  0  0
    7.8071    1.6021   22.6385 H   0  0  0  0  0  0  0  0  0  0  0  0
    6.8320    0.0079   23.6592 C   0  0  0  0  0  0  0  0  0  0  0  0
    6.5172   -1.3434   23.9169 C   0  0  0  0  0  0  0  0  0  0  0  0
    6.9042   -2.2234   23.4184 H   0  0  0  0  0  0  0  0  0  0  0  0
    5.6234   -1.4736   24.8885 N   0  0  0  0  0  0  0  0  0  0  0  0
    5.3145   -0.2125   25.2202 N   0  0  0  0  0  0  0  0  0  0  0  0
    4.6767   -0.0661   25.9929 H   0  0  0  0  0  0  0  0  0  0  0  0
    6.0026    0.7140   24.5050 C   0  0  0  0  0  0  0  0  0  0  0  0
    5.8328    1.7806   24.6030 H   0  0  0  0  0  0  0  0  0  0  0  0
    5.7618    0.6990   20.7619 C   0  0  0  0  0  0  0  0  0  0  0  0
    5.4378    0.5979   21.7962 H   0  0  0  0  0  0  0  0  0  0  0  0
    4.9315    1.2142   19.7619 C   0  0  0  0  0  0  0  0  0  0  0  0
    3.9451    1.5957   20.0043 H   0  0  0  0  0  0  0  0  0  0  0  0
  1  2  1  0
  2  3  2  0
  3  4  1  0
  4  5  1  0
  4  6  2  0
  6  7  1  0
  7  8  1  0
  8  9  2  0
  8 10  1  0
 10 11  1  0
 10 12  1  0
 10 13  1  0
 13 14  1  0
 13 15  1  0
 13 16  1  0
 16 17  1  6
 16 18  1  0
 18 19  1  0
 19 20  1  0
 19 21  2  0
 21 22  1  0
 22 23  1  0
 22 24  1  0
 24 25  1  0
  6 26  1  0
 26 27  1  0
 26 28  2  0
 28 29  1  0
 28  2  1  0
 16  7  1  0
 24 18  2  0
M  END
>  <cnnaffinity>  (1) 
-4.70226

>  <filename>  (1) 
O=C1CC[C@H](c2cn[nH]c2)N1c1cccnc1

$$$$
