
     RDKit          3D

 39 41  0  0  0  0  0  0  0  0999 V2000
    4.9512    1.8262   16.9638 H   0  0  0  0  0  0  0  0  0  0  0  0
    5.3868    1.3060   17.8133 C   0  0  0  0  0  0  0  0  0  0  0  0
    6.5405    0.6622   17.5739 N   0  0  0  0  0  0  0  0  0  0  0  0
    7.1229    0.0435   18.6058 C   0  0  0  0  0  0  0  0  0  0  0  0
    8.0697   -0.4526   18.3897 H   0  0  0  0  0  0  0  0  0  0  0  0
    6.6079    0.0154   19.9212 C   0  0  0  0  0  0  0  0  0  0  0  0
    7.3137   -0.6830   21.0159 C   0  0  0  0  0  0  0  0  0  0  0  0
    7.9138   -0.0935   22.0822 C   0  0  0  0  0  0  0  0  0  0  0  0
    8.0461    1.3557   22.4136 C   0  0  0  0  0  0  0  0  0  0  0  0
    7.5697    1.9623   21.6339 H   0  0  0  0  0  0  0  0  0  0  0  0
    9.1014    1.6647   22.4123 H   0  0  0  0  0  0  0  0  0  0  0  0
    7.4474    1.6925   23.7821 C   0  0  0  0  0  0  0  0  0  0  0  0
    7.9435    1.0427   24.5163 H   0  0  0  0  0  0  0  0  0  0  0  0
    5.9355    1.4093   23.8547 C   0  0  0  0  0  0  0  0  0  0  0  0
    5.7423    0.3583   23.6072 H   0  0  0  0  0  0  0  0  0  0  0  0
    5.4211    2.0083   23.0879 H   0  0  0  0  0  0  0  0  0  0  0  0
    5.3564    1.7571   25.2308 C   0  0  0  0  0  0  0  0  0  0  0  0
    5.7931    1.0834   25.9806 H   0  0  0  0  0  0  0  0  0  0  0  0
    4.2755    1.5711   25.2515 H   0  0  0  0  0  0  0  0  0  0  0  0
    5.6658    3.2129   25.6142 C   0  0  0  0  0  0  0  0  0  0  0  0
    5.1290    3.8813   24.9266 H   0  0  0  0  0  0  0  0  0  0  0  0
    5.2851    3.4378   26.6173 H   0  0  0  0  0  0  0  0  0  0  0  0
    7.1709    3.5148   25.5306 C   0  0  0  0  0  0  0  0  0  0  0  0
    7.6973    2.9273   26.2962 H   0  0  0  0  0  0  0  0  0  0  0  0
    7.3709    4.5692   25.7572 H   0  0  0  0  0  0  0  0  0  0  0  0
    7.7398    3.1492   24.1557 C   0  0  0  0  0  0  0  0  0  0  0  0
    8.8233    3.3267   24.1256 H   0  0  0  0  0  0  0  0  0  0  0  0
    7.2948    3.7961   23.3849 H   0  0  0  0  0  0  0  0  0  0  0  0
    8.5690   -1.1393   22.9049 C   0  0  0  0  0  0  0  0  0  0  0  0
    9.3389   -1.0629   23.8472 O   0  0  0  0  0  0  0  0  0  0  0  0
    8.2031   -2.3483   22.3490 N   0  0  0  0  0  0  0  0  0  0  0  0
    8.8940   -3.0554   22.5665 H   0  0  0  0  0  0  0  0  0  0  0  0
    7.6486   -2.1463   21.0192 C   0  0  0  0  0  0  0  0  0  0  0  0
    6.7939   -2.8043   20.7943 H   0  0  0  0  0  0  0  0  0  0  0  0
    8.4189   -2.2519   20.2487 H   0  0  0  0  0  0  0  0  0  0  0  0
    5.3927    0.6901   20.1369 C   0  0  0  0  0  0  0  0  0  0  0  0
    4.9344    0.6896   21.1293 H   0  0  0  0  0  0  0  0  0  0  0  0
    4.7692    1.3368   19.0672 C   0  0  0  0  0  0  0  0  0  0  0  0
    3.8376    1.8804   19.1917 H   0  0  0  0  0  0  0  0  0  0  0  0
  1  2  1  0
  2  3  2  0
  3  4  1  0
  4  5  1  0
  4  6  2  0
  6  7  1  0
  7  8  2  0
  8  9  1  0
  9 10  1  0
  9 11  1  0
  9 12  1  0
 12 13  1  0
 12 14  1  0
 14 15  1  0
 14 16  1  0
 14 17  1  0
 17 18  1  0
 17 19  1  0
 17 20  1  0
 20 21  1  0
 20 22  1  0
 20 23  1  0
 23 24  1  0
 23 25  1  0
 23 26  1  0
 26 27  1  0
 26 28  1  0
  8 29  1  0
 29 30  2  0
 29 31  1  0
 31 32  1  0
 31 33  1  0
 33 34  1  0
 33 35  1  0
  6 36  1  0
 36 37  1  0
 36 38  2  0
 38 39  1  0
 38  2  1  0
 33  7  1  0
 26 12  1  0
M  END
>  <cnnaffinity>  (1) 
-5.15307

>  <filename>  (1) 
O=C1NCC(c2cccnc2)=C1CC1CCCCC1

$$$$
