
     RDKit          3D

 28 30  0  0  0  0  0  0  0  0999 V2000
    7.9025   -2.3372   24.8853 H   0  0  0  0  0  0  0  0  0  0  0  0
    7.9451   -1.3167   24.4925 C   0  0  0  0  0  0  0  0  0  0  0  0
    8.2090   -0.2747   25.2922 C   0  0  0  0  0  0  0  0  0  0  0  0
    8.2878    1.4475   24.8688 S   0  0  0  0  0  0  0  0  0  0  0  0
    8.3031    1.9145   26.6082 C   0  0  0  0  0  0  0  0  0  0  0  0
    8.2356    3.0241   27.0492 O   0  0  0  0  0  0  0  0  0  0  0  0
    8.4044    0.7808   27.3730 N   0  0  0  0  0  0  0  0  0  0  0  0
    8.7044    0.8631   28.3289 H   0  0  0  0  0  0  0  0  0  0  0  0
    8.4259   -0.4468   26.7618 C   0  0  0  0  0  0  0  0  0  0  0  0
    8.5880   -1.4757   27.3742 O   0  0  0  0  0  0  0  0  0  0  0  0
    7.7949   -1.2248   23.0885 N   0  0  0  0  0  0  0  0  0  0  0  0
    6.9423   -0.3887   22.3695 C   0  0  0  0  0  0  0  0  0  0  0  0
    6.2883    0.3007   22.8817 H   0  0  0  0  0  0  0  0  0  0  0  0
    7.1359   -0.6245   21.0507 C   0  0  0  0  0  0  0  0  0  0  0  0
    6.5477    0.0171   19.8672 C   0  0  0  0  0  0  0  0  0  0  0  0
    7.1572    0.0304   18.5959 C   0  0  0  0  0  0  0  0  0  0  0  0
    8.1100   -0.4688   18.4180 H   0  0  0  0  0  0  0  0  0  0  0  0
    6.6485    0.6557   17.5266 N   0  0  0  0  0  0  0  0  0  0  0  0
    5.4816    1.3064   17.6836 C   0  0  0  0  0  0  0  0  0  0  0  0
    5.0873    1.8068   16.8013 H   0  0  0  0  0  0  0  0  0  0  0  0
    4.7808    1.3521   18.8930 C   0  0  0  0  0  0  0  0  0  0  0  0
    3.8398    1.8940   18.9603 H   0  0  0  0  0  0  0  0  0  0  0  0
    5.3251    0.7000   19.9969 C   0  0  0  0  0  0  0  0  0  0  0  0
    4.8170    0.7013   20.9596 H   0  0  0  0  0  0  0  0  0  0  0  0
    8.1078   -1.6119   20.9874 N   0  0  0  0  0  0  0  0  0  0  0  0
    8.5086   -2.0278   20.1699 H   0  0  0  0  0  0  0  0  0  0  0  0
    8.5415   -1.9916   22.2156 C   0  0  0  0  0  0  0  0  0  0  0  0
    9.7066   -3.1098   22.5745 S   0  0  0  0  0  0  0  0  0  0  0  0
  1  2  1  0
  2  3  2  3
  3  4  1  0
  4  5  1  0
  5  6  2  0
  5  7  1  0
  7  8  1  0
  7  9  1  0
  9 10  2  0
  2 11  1  0
 11 12  1  0
 12 13  1  0
 12 14  2  0
 14 15  1  0
 15 16  2  0
 16 17  1  0
 16 18  1  0
 18 19  2  0
 19 20  1  0
 19 21  1  0
 21 22  1  0
 21 23  2  0
 23 24  1  0
 14 25  1  0
 25 26  1  0
 25 27  1  0
 27 28  2  0
  9  3  1  0
 27 11  1  0
 23 15  1  0
M  END
>  <cnnaffinity>  (1) 
-5.68267

>  <filename>  (1) 
O=C1NC(=O)C(=Cn2cc(-c3cccnc3)[nH]c2=S)S1

$$$$
