
     RDKit          3D

 34 36  0  0  0  0  0  0  0  0999 V2000
   10.0410   -0.6364   22.5475 H   0  0  0  0  0  0  0  0  0  0  0  0
    9.0263   -0.9041   22.3007 C   0  0  0  0  0  0  0  0  0  0  0  0
    8.3963   -1.9309   22.9035 C   0  0  0  0  0  0  0  0  0  0  0  0
    9.1029   -2.9346   23.7830 C   0  0  0  0  0  0  0  0  0  0  0  0
    8.4356   -3.5601   24.7755 N   0  0  0  0  0  0  0  0  0  0  0  0
    9.1305   -4.3678   25.5947 C   0  0  0  0  0  0  0  0  0  0  0  0
    8.4258   -5.1045   26.7561 C   0  0  0  0  0  0  0  0  0  0  0  0
    8.3952   -6.4327   26.5163 F   0  0  0  0  0  0  0  0  0  0  0  0
    9.1276   -4.9383   27.9002 F   0  0  0  0  0  0  0  0  0  0  0  0
    7.1756   -4.7118   26.9990 F   0  0  0  0  0  0  0  0  0  0  0  0
   10.5049   -4.6061   25.4435 C   0  0  0  0  0  0  0  0  0  0  0  0
   11.0317   -5.2495   26.1383 H   0  0  0  0  0  0  0  0  0  0  0  0
   11.1684   -4.0031   24.3783 C   0  0  0  0  0  0  0  0  0  0  0  0
   12.2267   -4.1159   24.2239 H   0  0  0  0  0  0  0  0  0  0  0  0
   10.4587   -3.1848   23.5126 C   0  0  0  0  0  0  0  0  0  0  0  0
   10.9150   -2.7582   22.6231 H   0  0  0  0  0  0  0  0  0  0  0  0
    7.0237   -2.0464   22.6263 N   0  0  0  0  0  0  0  0  0  0  0  0
    6.4465   -2.7933   22.9743 H   0  0  0  0  0  0  0  0  0  0  0  0
    6.4579   -1.6449   21.4290 C   0  0  0  0  0  0  0  0  0  0  0  0
    5.4283   -2.1754   21.0792 O   0  0  0  0  0  0  0  0  0  0  0  0
    7.1577   -0.6811   20.7142 N   0  0  0  0  0  0  0  0  0  0  0  0
    6.5107    0.0224   19.6405 C   0  0  0  0  0  0  0  0  0  0  0  0
    7.0851    0.1419   18.3537 C   0  0  0  0  0  0  0  0  0  0  0  0
    8.0270   -0.3607   18.1371 H   0  0  0  0  0  0  0  0  0  0  0  0
    6.5288    0.8346   17.3506 N   0  0  0  0  0  0  0  0  0  0  0  0
    5.3697    1.4652   17.6041 C   0  0  0  0  0  0  0  0  0  0  0  0
    4.9408    2.0249   16.7783 H   0  0  0  0  0  0  0  0  0  0  0  0
    4.7172    1.4116   18.8414 C   0  0  0  0  0  0  0  0  0  0  0  0
    3.7852    1.9479   18.9875 H   0  0  0  0  0  0  0  0  0  0  0  0
    5.2939    0.6706   19.8772 C   0  0  0  0  0  0  0  0  0  0  0  0
    4.8264    0.5919   20.8582 H   0  0  0  0  0  0  0  0  0  0  0  0
    8.3426   -0.0313   21.2994 C   0  0  0  0  0  0  0  0  0  0  0  0
    8.0632    0.9492   21.7318 H   0  0  0  0  0  0  0  0  0  0  0  0
    9.0569    0.2017   20.4942 H   0  0  0  0  0  0  0  0  0  0  0  0
  1  2  1  0
  2  3  2  0
  3  4  1  0
  4  5  2  0
  5  6  1  0
  6  7  1  0
  7  8  1  0
  7  9  1  0
  7 10  1  0
  6 11  2  0
 11 12  1  0
 11 13  1  0
 13 14  1  0
 13 15  2  0
 15 16  1  0
  3 17  1  0
 17 18  1  0
 17 19  1  0
 19 20  2  0
 19 21  1  0
 21 22  1  0
 22 23  2  0
 23 24  1  0
 23 25  1  0
 25 26  2  0
 26 27  1  0
 26 28  1  0
 28 29  1  0
 28 30  2  0
 30 31  1  0
 21 32  1  0
 32 33  1  0
 32 34  1  0
 32  2  1  0
 15  4  1  0
 30 22  1  0
M  END
>  <cnnaffinity>  (1) 
-5.412

>  <filename>  (1) 
O=C1NC(c2cccc(C(F)(F)F)n2)=CCN1c1cccnc1

$$$$
