
     RDKit          3D

 37 39  0  0  0  0  0  0  0  0999 V2000
    4.9250    1.8120   16.9658 H   0  0  0  0  0  0  0  0  0  0  0  0
    5.3867    1.3174   17.8162 C   0  0  0  0  0  0  0  0  0  0  0  0
    6.5512    0.6964   17.5749 N   0  0  0  0  0  0  0  0  0  0  0  0
    7.1504    0.0828   18.6029 C   0  0  0  0  0  0  0  0  0  0  0  0
    8.1074   -0.3926   18.3832 H   0  0  0  0  0  0  0  0  0  0  0  0
    6.6200    0.0367   19.9039 C   0  0  0  0  0  0  0  0  0  0  0  0
    7.3549   -0.6949   21.0079 C   0  0  2  0  0  0  0  0  0  0  0  0
    6.9214   -0.3936   21.9766 H   0  0  0  0  0  0  0  0  0  0  0  0
    8.7812   -0.4547   20.9854 N   0  0  0  0  0  0  0  0  0  0  0  0
    9.2443    0.4077   21.1913 H   0  0  0  0  0  0  0  0  0  0  0  0
    9.5326   -1.5799   21.0978 C   0  0  0  0  0  0  0  0  0  0  0  0
   10.7107   -1.6603   21.3115 O   0  0  0  0  0  0  0  0  0  0  0  0
    8.7122   -2.6533   20.9345 O   0  0  0  0  0  0  0  0  0  0  0  0
    7.3294   -2.2492   20.8862 C   0  0  1  0  0  0  0  0  0  0  0  0
    6.9187   -2.5564   19.9199 H   0  0  0  0  0  0  0  0  0  0  0  0
    6.5824   -3.0175   21.9869 C   0  0  0  0  0  0  0  0  0  0  0  0
    5.5493   -2.6651   22.0676 H   0  0  0  0  0  0  0  0  0  0  0  0
    6.5569   -4.0797   21.7143 H   0  0  0  0  0  0  0  0  0  0  0  0
    7.2232   -2.8767   23.2804 N   0  0  0  0  0  0  0  0  0  0  0  0
    8.1986   -3.1033   23.3624 H   0  0  0  0  0  0  0  0  0  0  0  0
    6.6861   -2.2678   24.3676 C   0  0  0  0  0  0  0  0  0  0  0  0
    5.4835   -2.2493   24.5682 O   0  0  0  0  0  0  0  0  0  0  0  0
    7.6894   -1.6210   25.3049 C   0  0  0  0  0  0  0  0  0  0  0  0
    9.0595   -1.3717   25.0435 C   0  0  0  0  0  0  0  0  0  0  0  0
    9.5334   -1.5721   24.0761 H   0  0  0  0  0  0  0  0  0  0  0  0
    9.8548   -0.8027   26.0459 C   0  0  0  0  0  0  0  0  0  0  0  0
   10.9040   -0.5926   25.8490 H   0  0  0  0  0  0  0  0  0  0  0  0
    9.3208   -0.4901   27.2978 C   0  0  0  0  0  0  0  0  0  0  0  0
    9.9726   -0.1717   28.1047 H   0  0  0  0  0  0  0  0  0  0  0  0
    7.9476   -0.6127   27.5059 C   0  0  0  0  0  0  0  0  0  0  0  0
    7.4944   -0.2344   28.4144 H   0  0  0  0  0  0  0  0  0  0  0  0
    7.1460   -1.1818   26.5232 C   0  0  0  0  0  0  0  0  0  0  0  0
    6.0779   -1.3166   26.6819 H   0  0  0  0  0  0  0  0  0  0  0  0
    5.3975    0.6854   20.1303 C   0  0  0  0  0  0  0  0  0  0  0  0
    4.9555    0.6935   21.1262 H   0  0  0  0  0  0  0  0  0  0  0  0
    4.7692    1.3376   19.0683 C   0  0  0  0  0  0  0  0  0  0  0  0
    3.8327    1.8660   19.1991 H   0  0  0  0  0  0  0  0  0  0  0  0
  1  2  1  0
  2  3  2  0
  3  4  1  0
  4  5  1  0
  4  6  2  0
  6  7  1  0
  7  8  1  1
  7  9  1  0
  9 10  1  0
  9 11  1  0
 11 12  2  0
 11 13  1  0
 13 14  1  0
 14 15  1  6
 14 16  1  0
 16 17  1  0
 16 18  1  0
 16 19  1  0
 19 20  1  0
 19 21  1  0
 21 22  2  0
 21 23  1  0
 23 24  2  0
 24 25  1  0
 24 26  1  0
 26 27  1  0
 26 28  2  0
 28 29  1  0
 28 30  1  0
 30 31  1  0
 30 32  2  0
 32 33  1  0
  6 34  1  0
 34 35  1  0
 34 36  2  0
 36 37  1  0
 36  2  1  0
 14  7  1  0
 32 23  1  0
M  END
>  <cnnaffinity>  (1) 
-4.81172

>  <filename>  (1) 
O=C1N[C@@H](c2cccnc2)[C@H](CNC(=O)c2ccccc2)O1

$$$$
