
     RDKit          3D

 33 36  0  0  0  0  0  0  0  0999 V2000
    5.0376    1.8535   17.0397 H   0  0  0  0  0  0  0  0  0  0  0  0
    5.5208    1.3029   17.8443 C   0  0  0  0  0  0  0  0  0  0  0  0
    6.6710    0.6898   17.5233 N   0  0  0  0  0  0  0  0  0  0  0  0
    7.3096    0.0083   18.4828 C   0  0  0  0  0  0  0  0  0  0  0  0
    8.2512   -0.4637   18.1971 H   0  0  0  0  0  0  0  0  0  0  0  0
    6.8143   -0.1291   19.7946 C   0  0  0  0  0  0  0  0  0  0  0  0
    7.4953   -0.9427   20.7380 N   0  0  0  0  0  0  0  0  0  0  0  0
    8.8411   -0.8392   21.0867 C   0  0  0  0  0  0  0  0  0  0  0  0
    9.4457   -0.0643   20.6365 H   0  0  0  0  0  0  0  0  0  0  0  0
    9.1255   -1.7588   22.0478 C   0  0  0  0  0  0  0  0  0  0  0  0
    9.9987   -1.9661   22.6395 H   0  0  0  0  0  0  0  0  0  0  0  0
    7.9507   -2.4563   22.2830 N   0  0  0  0  0  0  0  0  0  0  0  0
    7.5624   -3.4348   23.1487 N   0  0  0  0  0  0  0  0  0  0  0  0
    6.2471   -3.4912   22.9066 C   0  0  0  0  0  0  0  0  0  0  0  0
    5.3670   -4.3032   23.6043 N   0  0  0  0  0  0  0  0  0  0  0  0
    5.7214   -5.3253   24.4670 C   0  0  0  0  0  0  0  0  0  0  0  0
    6.8272   -5.5909   24.8557 O   0  0  0  0  0  0  0  0  0  0  0  0
    4.4428   -6.0653   24.8430 C   0  0  0  0  0  0  0  0  0  0  0  0
    4.5729   -7.1224   24.6085 H   0  0  0  0  0  0  0  0  0  0  0  0
    4.3066   -5.9958   25.9237 H   0  0  0  0  0  0  0  0  0  0  0  0
    3.3132   -5.4138   24.0414 C   0  0  0  0  0  0  0  0  0  0  0  0
    2.4351   -5.1689   24.6465 H   0  0  0  0  0  0  0  0  0  0  0  0
    2.9865   -6.0624   23.2240 H   0  0  0  0  0  0  0  0  0  0  0  0
    3.9277   -4.1442   23.4433 C   0  0  0  0  0  0  0  0  0  0  0  0
    3.5828   -3.2314   23.9480 H   0  0  0  0  0  0  0  0  0  0  0  0
    3.6792   -4.0578   22.3804 H   0  0  0  0  0  0  0  0  0  0  0  0
    5.8035   -2.6208   21.8823 C   0  0  0  0  0  0  0  0  0  0  0  0
    4.7969   -2.5001   21.5603 H   0  0  0  0  0  0  0  0  0  0  0  0
    6.9552   -1.9611   21.5097 C   0  0  0  0  0  0  0  0  0  0  0  0
    5.6234    0.5377   20.1274 C   0  0  0  0  0  0  0  0  0  0  0  0
    5.2452    0.5086   21.1497 H   0  0  0  0  0  0  0  0  0  0  0  0
    4.9656    1.2627   19.1289 C   0  0  0  0  0  0  0  0  0  0  0  0
    4.0518    1.8096   19.3356 H   0  0  0  0  0  0  0  0  0  0  0  0
  1  2  1  0
  2  3  2  0
  3  4  1  0
  4  5  1  0
  4  6  2  0
  6  7  1  0
  7  8  1  0
  8  9  1  0
  8 10  2  0
 10 11  1  0
 10 12  1  0
 12 13  1  0
 13 14  2  0
 14 15  1  0
 15 16  1  0
 16 17  2  0
 16 18  1  0
 18 19  1  0
 18 20  1  0
 18 21  1  0
 21 22  1  0
 21 23  1  0
 21 24  1  0
 24 25  1  0
 24 26  1  0
 14 27  1  0
 27 28  1  0
 27 29  2  0
  6 30  1  0
 30 31  1  0
 30 32  2  0
 32 33  1  0
 32  2  1  0
 29  7  1  0
 29 12  1  0
 24 15  1  0
M  END
>  <cnnaffinity>  (1) 
-5.07708

>  <filename>  (1) 
O=C1CCCN1c1cc2n(-c3cccnc3)ccn2n1

$$$$
