
     RDKit          3D

 35 37  0  0  0  0  0  0  0  0999 V2000
    6.6048   -2.8701   23.2912 H   0  0  0  0  0  0  0  0  0  0  0  0
    7.2464   -2.2545   22.6746 C   0  0  0  0  0  0  0  0  0  0  0  0
    8.5706   -2.1266   22.9133 C   0  0  0  0  0  0  0  0  0  0  0  0
    9.2646   -2.9489   23.9563 C   0  0  0  0  0  0  0  0  0  0  0  0
    8.5150   -3.4349   24.9632 N   0  0  0  0  0  0  0  0  0  0  0  0
    9.0839   -4.2277   25.8863 C   0  0  0  0  0  0  0  0  0  0  0  0
    8.1716   -4.7812   27.0045 C   0  0  0  0  0  0  0  0  0  0  0  0
    7.4037   -3.8350   27.5609 F   0  0  0  0  0  0  0  0  0  0  0  0
    7.3522   -5.7335   26.5254 F   0  0  0  0  0  0  0  0  0  0  0  0
    8.8773   -5.3545   28.0038 F   0  0  0  0  0  0  0  0  0  0  0  0
   10.4289   -4.6003   25.8291 C   0  0  0  0  0  0  0  0  0  0  0  0
   10.8563   -5.2379   26.5922 H   0  0  0  0  0  0  0  0  0  0  0  0
   11.1887   -4.1296   24.7637 C   0  0  0  0  0  0  0  0  0  0  0  0
   12.2190   -4.4122   24.6865 H   0  0  0  0  0  0  0  0  0  0  0  0
   10.6243   -3.2841   23.8203 C   0  0  0  0  0  0  0  0  0  0  0  0
   11.2143   -2.8964   22.9967 H   0  0  0  0  0  0  0  0  0  0  0  0
    9.3723   -1.2414   21.9687 C   0  0  0  0  0  0  0  0  0  0  0  0
   10.2426   -0.8086   22.4715 H   0  0  0  0  0  0  0  0  0  0  0  0
    9.7474   -1.8418   21.1275 H   0  0  0  0  0  0  0  0  0  0  0  0
    8.5036   -0.1243   21.3818 C   0  0  0  0  0  0  0  0  0  0  0  0
    9.0518    0.3927   20.5883 H   0  0  0  0  0  0  0  0  0  0  0  0
    8.2633    0.6262   22.1524 H   0  0  0  0  0  0  0  0  0  0  0  0
    7.2745   -0.6840   20.8051 N   0  0  0  0  0  0  0  0  0  0  0  0
    6.6199    0.0332   19.7493 C   0  0  0  0  0  0  0  0  0  0  0  0
    7.1694    0.1260   18.4526 C   0  0  0  0  0  0  0  0  0  0  0  0
    8.1113   -0.3783   18.2362 H   0  0  0  0  0  0  0  0  0  0  0  0
    6.5860    0.7783   17.4364 N   0  0  0  0  0  0  0  0  0  0  0  0
    5.4210    1.3982   17.6879 C   0  0  0  0  0  0  0  0  0  0  0  0
    4.9678    1.9267   16.8521 H   0  0  0  0  0  0  0  0  0  0  0  0
    4.7973    1.3789   18.9395 C   0  0  0  0  0  0  0  0  0  0  0  0
    3.8608    1.9068   19.0839 H   0  0  0  0  0  0  0  0  0  0  0  0
    5.3971    0.6755   19.9879 C   0  0  0  0  0  0  0  0  0  0  0  0
    4.9379    0.6085   20.9727 H   0  0  0  0  0  0  0  0  0  0  0  0
    6.5521   -1.6625   21.5158 C   0  0  0  0  0  0  0  0  0  0  0  0
    5.4503   -2.0508   21.1788 O   0  0  0  0  0  0  0  0  0  0  0  0
  1  2  1  0
  2  3  2  0
  3  4  1  0
  4  5  2  0
  5  6  1  0
  6  7  1  0
  7  8  1  0
  7  9  1  0
  7 10  1  0
  6 11  2  0
 11 12  1  0
 11 13  1  0
 13 14  1  0
 13 15  2  0
 15 16  1  0
  3 17  1  0
 17 18  1  0
 17 19  1  0
 17 20  1  0
 20 21  1  0
 20 22  1  0
 20 23  1  0
 23 24  1  0
 24 25  2  0
 25 26  1  0
 25 27  1  0
 27 28  2  0
 28 29  1  0
 28 30  1  0
 30 31  1  0
 30 32  2  0
 32 33  1  0
 23 34  1  0
 34 35  2  0
 34  2  1  0
 15  4  1  0
 32 24  1  0
M  END
>  <cnnaffinity>  (1) 
-5.44701

>  <filename>  (1) 
O=C1C=C(c2cccc(C(F)(F)F)n2)CCN1c1cccnc1

$$$$
