
     RDKit          3D

 26 28  0  0  0  0  0  0  0  0999 V2000
    6.5044    0.5064   23.9765 H   0  0  0  0  0  0  0  0  0  0  0  0
    6.9531    0.7426   23.0135 C   0  0  0  0  0  0  0  0  0  0  0  0
    7.1814    1.9947   22.5799 C   0  0  0  0  0  0  0  0  0  0  0  0
    6.3851    3.4348   23.2196 S   0  0  0  0  0  0  0  0  0  0  0  0
    7.4318    4.4985   22.2126 C   0  0  0  0  0  0  0  0  0  0  0  0
    7.3298    5.6747   22.0242 O   0  0  0  0  0  0  0  0  0  0  0  0
    8.4057    3.7299   21.6421 N   0  0  0  0  0  0  0  0  0  0  0  0
    8.9881    4.1418   20.9385 H   0  0  0  0  0  0  0  0  0  0  0  0
    8.2389    2.3781   21.6037 C   0  0  0  0  0  0  0  0  0  0  0  0
    8.8975    1.6730   20.8750 O   0  0  0  0  0  0  0  0  0  0  0  0
    7.3798   -0.3983   22.3165 N   0  0  0  0  0  0  0  0  0  0  0  0
    8.0022   -1.4119   22.9676 N   0  0  0  0  0  0  0  0  0  0  0  0
    8.4785   -2.1386   21.9790 C   0  0  0  0  0  0  0  0  0  0  0  0
    9.0402   -3.0442   22.1745 H   0  0  0  0  0  0  0  0  0  0  0  0
    8.1843   -1.6929   20.7289 N   0  0  0  0  0  0  0  0  0  0  0  0
    7.4489   -0.6297   20.9629 C   0  0  0  0  0  0  0  0  0  0  0  0
    6.6904    0.0835   19.9390 C   0  0  0  0  0  0  0  0  0  0  0  0
    7.1908    0.0439   18.6297 C   0  0  0  0  0  0  0  0  0  0  0  0
    8.1098   -0.5004   18.4152 H   0  0  0  0  0  0  0  0  0  0  0  0
    6.6050    0.6454   17.5894 N   0  0  0  0  0  0  0  0  0  0  0  0
    5.4529    1.2941   17.8219 C   0  0  0  0  0  0  0  0  0  0  0  0
    4.9824    1.7809   16.9676 H   0  0  0  0  0  0  0  0  0  0  0  0
    4.8434    1.3449   19.0804 C   0  0  0  0  0  0  0  0  0  0  0  0
    3.8954    1.8556   19.1952 H   0  0  0  0  0  0  0  0  0  0  0  0
    5.4696    0.7375   20.1660 C   0  0  0  0  0  0  0  0  0  0  0  0
    5.0102    0.7615   21.1562 H   0  0  0  0  0  0  0  0  0  0  0  0
  1  2  1  0
  2  3  2  3
  3  4  1  0
  4  5  1  0
  5  6  2  0
  5  7  1  0
  7  8  1  0
  7  9  1  0
  9 10  2  0
  2 11  1  0
 11 12  1  0
 12 13  2  0
 13 14  1  0
 13 15  1  0
 15 16  2  0
 16 17  1  0
 17 18  2  0
 18 19  1  0
 18 20  1  0
 20 21  2  0
 21 22  1  0
 21 23  1  0
 23 24  1  0
 23 25  2  0
 25 26  1  0
  9  3  1  0
 16 11  1  0
 25 17  1  0
M  END
>  <cnnaffinity>  (1) 
-4.79373

>  <filename>  (1) 
O=C1NC(=O)C(=Cn2ncnc2-c2cccnc2)S1

$$$$
