
     RDKit          3D

 26 28  0  0  0  0  0  0  0  0999 V2000
    6.6543   -1.3010   24.7223 H   0  0  0  0  0  0  0  0  0  0  0  0
    7.5808   -1.6628   24.2869 C   0  0  0  0  0  0  0  0  0  0  0  0
    8.5120   -2.3252   25.0046 C   0  0  0  0  0  0  0  0  0  0  0  0
   10.0028   -2.9918   24.3288 S   0  0  0  0  0  0  0  0  0  0  0  0
   10.1915   -4.0460   25.6937 C   0  0  0  0  0  0  0  0  0  0  0  0
   11.0534   -5.4151   25.6853 S   0  0  0  0  0  0  0  0  0  0  0  0
    9.4568   -3.5816   26.7425 N   0  0  0  0  0  0  0  0  0  0  0  0
    9.4805   -4.0292   27.6459 H   0  0  0  0  0  0  0  0  0  0  0  0
    8.4016   -2.7392   26.4532 C   0  0  0  0  0  0  0  0  0  0  0  0
    7.5608   -2.4494   27.2624 O   0  0  0  0  0  0  0  0  0  0  0  0
    7.6818   -1.3784   22.8741 C   0  0  0  0  0  0  0  0  0  0  0  0
    6.8302   -0.7111   22.1714 N   0  0  0  0  0  0  0  0  0  0  0  0
    7.3688   -0.6840   20.9018 C   0  0  0  0  0  0  0  0  0  0  0  0
    6.6433    0.0217   19.8516 C   0  0  0  0  0  0  0  0  0  0  0  0
    7.1560    0.0708   18.5503 C   0  0  0  0  0  0  0  0  0  0  0  0
    8.1044   -0.4172   18.3280 H   0  0  0  0  0  0  0  0  0  0  0  0
    6.5501    0.6915   17.5372 N   0  0  0  0  0  0  0  0  0  0  0  0
    5.3904    1.3111   17.8074 C   0  0  0  0  0  0  0  0  0  0  0  0
    4.9159    1.8205   16.9760 H   0  0  0  0  0  0  0  0  0  0  0  0
    4.7893    1.3235   19.0727 C   0  0  0  0  0  0  0  0  0  0  0  0
    3.8550    1.8516   19.2302 H   0  0  0  0  0  0  0  0  0  0  0  0
    5.4239    0.6676   20.1189 C   0  0  0  0  0  0  0  0  0  0  0  0
    5.0126    0.6482   21.1313 H   0  0  0  0  0  0  0  0  0  0  0  0
    8.5410   -1.3627   20.9089 C   0  0  0  0  0  0  0  0  0  0  0  0
    9.2995   -1.6022   20.1727 H   0  0  0  0  0  0  0  0  0  0  0  0
    8.7509   -1.8163   22.1702 O   0  0  0  0  0  0  0  0  0  0  0  0
  1  2  1  0
  2  3  2  3
  3  4  1  0
  4  5  1  0
  5  6  2  0
  5  7  1  0
  7  8  1  0
  7  9  1  0
  9 10  2  0
  2 11  1  0
 11 12  2  0
 12 13  1  0
 13 14  1  0
 14 15  2  0
 15 16  1  0
 15 17  1  0
 17 18  2  0
 18 19  1  0
 18 20  1  0
 20 21  1  0
 20 22  2  0
 22 23  1  0
 13 24  2  0
 24 25  1  0
 24 26  1  0
  9  3  1  0
 26 11  1  0
 22 14  1  0
M  END
>  <cnnaffinity>  (1) 
-5.13515

>  <filename>  (1) 
O=C1NC(=S)SC1=Cc1nc(-c2cccnc2)co1

$$$$
