
     RDKit          3D

 27 29  0  0  0  0  0  0  0  0999 V2000
    5.0473    1.9521   16.8911 H   0  0  0  0  0  0  0  0  0  0  0  0
    5.4817    1.4000   17.7225 C   0  0  0  0  0  0  0  0  0  0  0  0
    6.6764    0.8265   17.4879 N   0  0  0  0  0  0  0  0  0  0  0  0
    7.2574    0.1556   18.4878 C   0  0  0  0  0  0  0  0  0  0  0  0
    8.2544   -0.2427   18.2999 H   0  0  0  0  0  0  0  0  0  0  0  0
    6.6357   -0.0449   19.7354 C   0  0  0  0  0  0  0  0  0  0  0  0
    7.3163   -0.7839   20.7625 N   0  0  0  0  0  0  0  0  0  0  0  0
    8.6293   -0.4471   20.9138 N   0  0  0  0  0  0  0  0  0  0  0  0
    9.3076   -0.9745   21.9124 C   0  0  0  0  0  0  0  0  0  0  0  0
   10.6922   -0.4476   22.1392 C   0  0  0  0  0  0  0  0  0  0  0  0
   11.6116   -0.9512   22.9368 N   0  0  0  0  0  0  0  0  0  0  0  0
   12.6476   -0.0577   22.9516 C   0  0  0  0  0  0  0  0  0  0  0  0
   13.5278   -0.2098   23.5672 H   0  0  0  0  0  0  0  0  0  0  0  0
   12.3625    1.0119   22.1447 C   0  0  0  0  0  0  0  0  0  0  0  0
   12.8935    1.9352   21.9413 H   0  0  0  0  0  0  0  0  0  0  0  0
   11.1221    0.7424   21.6222 N   0  0  0  0  0  0  0  0  0  0  0  0
   10.5323    1.3268   21.0563 H   0  0  0  0  0  0  0  0  0  0  0  0
    8.7200   -1.9338   22.8210 C   0  0  0  0  0  0  0  0  0  0  0  0
    9.3113   -2.2839   23.6700 H   0  0  0  0  0  0  0  0  0  0  0  0
    7.4359   -2.3300   22.6166 C   0  0  0  0  0  0  0  0  0  0  0  0
    6.9171   -3.0603   23.2252 H   0  0  0  0  0  0  0  0  0  0  0  0
    6.6365   -1.8217   21.5030 C   0  0  0  0  0  0  0  0  0  0  0  0
    5.5349   -2.2393   21.2018 O   0  0  0  0  0  0  0  0  0  0  0  0
    5.3808    0.5349   19.9657 C   0  0  0  0  0  0  0  0  0  0  0  0
    4.8811    0.4067   20.9236 H   0  0  0  0  0  0  0  0  0  0  0  0
    4.8048    1.2982   18.9418 C   0  0  0  0  0  0  0  0  0  0  0  0
    3.8532    1.8119   19.0718 H   0  0  0  0  0  0  0  0  0  0  0  0
  1  2  1  0
  2  3  2  0
  3  4  1  0
  4  5  1  0
  4  6  2  0
  6  7  1  0
  7  8  1  0
  8  9  2  0
  9 10  1  0
 10 11  2  0
 11 12  1  0
 12 13  1  0
 12 14  2  0
 14 15  1  0
 14 16  1  0
 16 17  1  0
  9 18  1  0
 18 19  1  0
 18 20  2  0
 20 21  1  0
 20 22  1  0
 22 23  2  0
  6 24  1  0
 24 25  1  0
 24 26  2  0
 26 27  1  0
 26  2  1  0
 22  7  1  0
 16 10  1  0
M  END
>  <cnnaffinity>  (1) 
-4.44961

>  <filename>  (1) 
O=c1ccc(-c2ncc[nH]2)nn1-c1cccnc1

$$$$
