
     RDKit          3D

 35 37  0  0  0  0  0  0  0  0999 V2000
    4.8546    1.6437   16.8779 H   0  0  0  0  0  0  0  0  0  0  0  0
    5.4517    1.4258   17.7596 C   0  0  0  0  0  0  0  0  0  0  0  0
    6.6873    0.9558   17.5242 N   0  0  0  0  0  0  0  0  0  0  0  0
    7.4213    0.6380   18.5966 C   0  0  0  0  0  0  0  0  0  0  0  0
    8.4314    0.2756   18.3949 H   0  0  0  0  0  0  0  0  0  0  0  0
    6.9797    0.7265   19.9227 C   0  0  0  0  0  0  0  0  0  0  0  0
    7.8004    0.0828   21.0156 C   0  0  2  0  0  0  0  0  0  0  0  0
    8.6625   -0.4013   20.5381 H   0  0  0  0  0  0  0  0  0  0  0  0
    7.0457   -0.9398   21.7609 N   0  0  0  0  0  0  0  0  0  0  0  0
    6.3643   -1.9623   21.0979 C   0  0  0  0  0  0  0  0  0  0  0  0
    6.2308   -1.9233   19.8918 O   0  0  0  0  0  0  0  0  0  0  0  0
    5.9519   -2.9915   21.8753 N   0  0  0  0  0  0  0  0  0  0  0  0
    5.9750   -2.7838   22.8658 H   0  0  0  0  0  0  0  0  0  0  0  0
    5.6225   -4.2593   21.4412 C   0  0  0  0  0  0  0  0  0  0  0  0
    5.8784   -4.7058   20.1383 C   0  0  0  0  0  0  0  0  0  0  0  0
    6.2147   -4.0217   19.3774 H   0  0  0  0  0  0  0  0  0  0  0  0
    5.6466   -6.0470   19.8615 C   0  0  0  0  0  0  0  0  0  0  0  0
    5.8880   -6.4531   18.8761 H   0  0  0  0  0  0  0  0  0  0  0  0
    5.1086   -6.9006   20.7378 N   0  0  0  0  0  0  0  0  0  0  0  0
    4.7896   -6.4305   21.9484 C   0  0  0  0  0  0  0  0  0  0  0  0
    4.2890   -7.1265   22.6170 H   0  0  0  0  0  0  0  0  0  0  0  0
    5.0502   -5.1306   22.3653 C   0  0  0  0  0  0  0  0  0  0  0  0
    4.8104   -4.7972   23.3692 H   0  0  0  0  0  0  0  0  0  0  0  0
    6.9469   -0.6963   23.0954 C   0  0  0  0  0  0  0  0  0  0  0  0
    6.4336   -1.4477   23.9063 O   0  0  0  0  0  0  0  0  0  0  0  0
    7.5691    0.6372   23.4037 C   0  0  0  0  0  0  0  0  0  0  0  0
    6.7632    1.3139   23.7078 H   0  0  0  0  0  0  0  0  0  0  0  0
    8.2396    0.5130   24.2552 H   0  0  0  0  0  0  0  0  0  0  0  0
    8.2814    1.0595   22.1112 C   0  0  0  0  0  0  0  0  0  0  0  0
    8.0847    2.1010   21.8368 H   0  0  0  0  0  0  0  0  0  0  0  0
    9.3640    0.9594   22.2162 H   0  0  0  0  0  0  0  0  0  0  0  0
    5.7298    1.3104   20.1508 C   0  0  0  0  0  0  0  0  0  0  0  0
    5.3786    1.5100   21.1666 H   0  0  0  0  0  0  0  0  0  0  0  0
    4.9373    1.6340   19.0444 C   0  0  0  0  0  0  0  0  0  0  0  0
    3.9353    2.0302   19.1656 H   0  0  0  0  0  0  0  0  0  0  0  0
  1  2  1  0
  2  3  2  0
  3  4  1  0
  4  5  1  0
  4  6  2  0
  6  7  1  0
  7  8  1  6
  7  9  1  0
  9 10  1  0
 10 11  2  0
 10 12  1  0
 12 13  1  0
 12 14  1  0
 14 15  2  0
 15 16  1  0
 15 17  1  0
 17 18  1  0
 17 19  2  0
 19 20  1  0
 20 21  1  0
 20 22  2  0
 22 23  1  0
  9 24  1  0
 24 25  2  0
 24 26  1  0
 26 27  1  0
 26 28  1  0
 26 29  1  0
 29 30  1  0
 29 31  1  0
  6 32  1  0
 32 33  1  0
 32 34  2  0
 34 35  1  0
 34  2  1  0
 29  7  1  0
 22 14  1  0
M  END
>  <cnnaffinity>  (1) 
-5.25559

>  <filename>  (1) 
O=C1CC[C@H](c2cccnc2)N1C(=O)Nc1ccncc1

$$$$
