
     RDKit          3D

 35 38  0  0  0  0  0  0  0  0999 V2000
    4.9228    1.7896   16.9975 H   0  0  0  0  0  0  0  0  0  0  0  0
    5.3987    1.2963   17.8422 C   0  0  0  0  0  0  0  0  0  0  0  0
    6.5641    0.6833   17.5785 N   0  0  0  0  0  0  0  0  0  0  0  0
    7.1809    0.0659   18.5933 C   0  0  0  0  0  0  0  0  0  0  0  0
    8.1240   -0.4378   18.3764 H   0  0  0  0  0  0  0  0  0  0  0  0
    6.6687    0.0234   19.9044 C   0  0  0  0  0  0  0  0  0  0  0  0
    7.3611   -0.6866   20.9424 N   0  0  0  0  0  0  0  0  0  0  0  0
    8.2804   -0.1709   21.8458 C   0  0  0  0  0  0  0  0  0  0  0  0
    8.7074    1.2751   21.8783 C   0  0  0  0  0  0  0  0  0  0  0  0
    8.1545    1.8077   21.0972 H   0  0  0  0  0  0  0  0  0  0  0  0
    9.7732    1.3309   21.6440 H   0  0  0  0  0  0  0  0  0  0  0  0
    8.5220    1.9391   23.1698 N   0  0  0  0  0  0  0  0  0  0  0  0
    7.2970    1.9811   23.8214 C   0  0  0  0  0  0  0  0  0  0  0  0
    6.3274    1.3625   23.4477 O   0  0  0  0  0  0  0  0  0  0  0  0
    7.4543    2.9194   24.9720 C   0  0  0  0  0  0  0  0  0  0  0  0
    6.5354    3.3744   25.9209 C   0  0  0  0  0  0  0  0  0  0  0  0
    5.5087    3.0121   25.9347 H   0  0  0  0  0  0  0  0  0  0  0  0
    6.9784    4.3255   26.8478 C   0  0  0  0  0  0  0  0  0  0  0  0
    6.2905    4.7052   27.5985 H   0  0  0  0  0  0  0  0  0  0  0  0
    8.3014    4.8131   26.8129 C   0  0  0  0  0  0  0  0  0  0  0  0
    8.6238    5.5519   27.5406 H   0  0  0  0  0  0  0  0  0  0  0  0
    9.2061    4.3671   25.8453 C   0  0  0  0  0  0  0  0  0  0  0  0
   10.2068    4.7853   25.7745 H   0  0  0  0  0  0  0  0  0  0  0  0
    8.7639    3.4005   24.9425 C   0  0  0  0  0  0  0  0  0  0  0  0
    9.4624    2.7561   23.7880 C   0  0  0  0  0  0  0  0  0  0  0  0
   10.6032    2.8846   23.4129 O   0  0  0  0  0  0  0  0  0  0  0  0
    8.7534   -1.0954   22.6181 N   0  0  0  0  0  0  0  0  0  0  0  0
    8.0939   -2.2188   22.2292 N   0  0  0  0  0  0  0  0  0  0  0  0
    8.2178   -3.1048   22.6907 H   0  0  0  0  0  0  0  0  0  0  0  0
    7.2122   -2.0386   21.2232 C   0  0  0  0  0  0  0  0  0  0  0  0
    6.2355   -3.1964   20.5419 S   0  0  0  0  0  0  0  0  0  0  0  0
    5.4565    0.6571   20.1712 C   0  0  0  0  0  0  0  0  0  0  0  0
    5.0552    0.6226   21.1847 H   0  0  0  0  0  0  0  0  0  0  0  0
    4.8110    1.3103   19.1117 C   0  0  0  0  0  0  0  0  0  0  0  0
    3.8750    1.8356   19.2568 H   0  0  0  0  0  0  0  0  0  0  0  0
  1  2  1  0
  2  3  2  0
  3  4  1  0
  4  5  1  0
  4  6  2  0
  6  7  1  0
  7  8  1  0
  8  9  1  0
  9 10  1  0
  9 11  1  0
  9 12  1  0
 12 13  1  0
 13 14  2  0
 13 15  1  0
 15 16  2  0
 16 17  1  0
 16 18  1  0
 18 19  1  0
 18 20  2  0
 20 21  1  0
 20 22  1  0
 22 23  1  0
 22 24  2  0
 24 25  1  0
 25 26  2  0
  8 27  2  0
 27 28  1  0
 28 29  1  0
 28 30  1  0
 30 31  2  0
  6 32  1  0
 32 33  1  0
 32 34  2  0
 34 35  1  0
 34  2  1  0
 30  7  1  0
 25 12  1  0
 24 15  1  0
M  END
>  <cnnaffinity>  (1) 
-5.23233

>  <filename>  (1) 
O=C1c2ccccc2C(=O)N1Cc1n[nH]c(=S)n1-c1cccnc1

$$$$
