
     RDKit          3D

 45 48  0  0  0  0  0  0  0  0999 V2000
   14.4488    0.5981   22.6532 O   0  0  0  0  0  0  0  0  0  0  0  0
   13.6445    1.4875   22.5842 C   0  0  0  0  0  0  0  0  0  0  0  0
   13.9363    2.9193   22.5700 C   0  0  0  0  0  0  0  0  0  0  0  0
   12.9583    3.8267   22.3626 C   0  0  0  0  0  0  0  0  0  0  0  0
   11.6004    3.3813   22.2587 C   0  0  0  0  0  0  0  0  0  0  0  0
   11.3144    2.0444   22.3136 C   0  0  0  0  0  0  0  0  0  0  0  0
    9.9708    1.4375   22.2270 C   0  0  0  0  0  0  0  0  0  0  0  0
    9.5931    0.4082   21.4813 N   0  0  0  0  0  0  0  0  0  0  0  0
    8.2716    0.3192   21.7330 C   0  0  0  0  0  0  0  0  0  0  0  0
    7.3963   -0.6674   21.0236 C   0  0  0  0  0  0  0  0  0  0  0  0
    6.6258   -0.0250   19.8772 C   0  0  0  0  0  0  0  0  0  0  0  0
    5.4218    0.6425   20.1267 C   0  0  0  0  0  0  0  0  0  0  0  0
    4.7862    1.3142   19.0788 C   0  0  0  0  0  0  0  0  0  0  0  0
    5.3843    1.3034   17.8167 C   0  0  0  0  0  0  0  0  0  0  0  0
    6.5450    0.6814   17.5575 N   0  0  0  0  0  0  0  0  0  0  0  0
    7.1442    0.0463   18.5719 C   0  0  0  0  0  0  0  0  0  0  0  0
    8.1019   -0.4210   18.3344 H   0  0  0  0  0  0  0  0  0  0  0  0
    4.9194    1.8140   16.9736 H   0  0  0  0  0  0  0  0  0  0  0  0
    3.8595    1.8548   19.2283 H   0  0  0  0  0  0  0  0  0  0  0  0
    5.0113    0.6454   21.1392 H   0  0  0  0  0  0  0  0  0  0  0  0
    6.7135   -1.1069   21.7603 H   0  0  0  0  0  0  0  0  0  0  0  0
    8.0595   -1.4618   20.6690 H   0  0  0  0  0  0  0  0  0  0  0  0
    7.8098    1.2026   22.5995 N   0  0  0  0  0  0  0  0  0  0  0  0
    8.9052    1.9263   22.9211 N   0  0  0  0  0  0  0  0  0  0  0  0
    8.8236    3.0119   23.9189 C   0  0  0  0  0  0  0  0  0  0  0  0
    8.0978    4.2657   23.3667 C   0  0  0  0  0  0  0  0  0  0  0  0
    6.5621    4.1217   23.3305 C   0  0  0  0  0  0  0  0  0  0  0  0
    6.0115    3.7059   24.6855 C   0  0  0  0  0  0  0  0  0  0  0  0
    6.2218    4.7267   25.5900 F   0  0  0  0  0  0  0  0  0  0  0  0
    4.6551    3.5369   24.5991 F   0  0  0  0  0  0  0  0  0  0  0  0
    6.6483    2.4329   25.2196 C   0  0  0  0  0  0  0  0  0  0  0  0
    8.1897    2.5326   25.2481 C   0  0  0  0  0  0  0  0  0  0  0  0
    8.6335    1.5700   25.5254 H   0  0  0  0  0  0  0  0  0  0  0  0
    8.4832    3.2533   26.0234 H   0  0  0  0  0  0  0  0  0  0  0  0
    6.3364    1.6139   24.5626 H   0  0  0  0  0  0  0  0  0  0  0  0
    6.2404    2.2540   26.2207 H   0  0  0  0  0  0  0  0  0  0  0  0
    6.0728    5.0602   23.0459 H   0  0  0  0  0  0  0  0  0  0  0  0
    6.2758    3.3496   22.6060 H   0  0  0  0  0  0  0  0  0  0  0  0
    8.4724    4.5145   22.3649 H   0  0  0  0  0  0  0  0  0  0  0  0
    8.3644    5.1095   24.0178 H   0  0  0  0  0  0  0  0  0  0  0  0
    9.8605    3.2746   24.1381 H   0  0  0  0  0  0  0  0  0  0  0  0
   12.3069    1.1310   22.4445 O   0  0  0  0  0  0  0  0  0  0  0  0
   10.8026    4.0894   22.1316 H   0  0  0  0  0  0  0  0  0  0  0  0
   13.1796    4.8847   22.2273 H   0  0  0  0  0  0  0  0  0  0  0  0
   14.9905    3.1416   22.5156 H   0  0  0  0  0  0  0  0  0  0  0  0
  1  2  2  0
  2  3  1  0
  3  4  2  0
  4  5  1  0
  5  6  2  0
  6  7  1  0
  7  8  2  0
  8  9  1  0
  9 10  1  0
 10 11  1  0
 11 12  2  0
 12 13  1  0
 13 14  2  0
 14 15  1  0
 15 16  2  0
 16 17  1  0
 14 18  1  0
 13 19  1  0
 12 20  1  0
 10 21  1  0
 10 22  1  0
  9 23  2  0
 23 24  1  0
 24 25  1  0
 25 26  1  0
 26 27  1  0
 27 28  1  0
 28 29  1  0
 28 30  1  0
 28 31  1  0
 31 32  1  0
 32 33  1  0
 32 34  1  0
 31 35  1  0
 31 36  1  0
 27 37  1  0
 27 38  1  0
 26 39  1  0
 26 40  1  0
 25 41  1  0
  6 42  1  0
  5 43  1  0
  4 44  1  0
  3 45  1  0
 42  2  1  0
 24  7  1  0
 32 25  1  0
 16 11  1  0
M  END
>  <cnnaffinity>  (1) 
-6.33085

>  <filename>  (1) 
O=c1cccc(-c2nc(Cc3cccnc3)nn2C2CCC(F)(F)CC2)o1

$$$$
