
     RDKit          3D

 37 39  0  0  0  0  0  0  0  0999 V2000
    5.0574    1.8615   16.9950 H   0  0  0  0  0  0  0  0  0  0  0  0
    5.5357    1.3321   17.8172 C   0  0  0  0  0  0  0  0  0  0  0  0
    6.7134    0.7518   17.5442 N   0  0  0  0  0  0  0  0  0  0  0  0
    7.3236    0.0849   18.5352 C   0  0  0  0  0  0  0  0  0  0  0  0
    8.2768   -0.3788   18.2856 H   0  0  0  0  0  0  0  0  0  0  0  0
    6.7846   -0.0674   19.8319 C   0  0  0  0  0  0  0  0  0  0  0  0
    7.4481   -0.8135   20.8588 N   0  0  0  0  0  0  0  0  0  0  0  0
    6.8178   -1.8282   21.5678 C   0  0  0  0  0  0  0  0  0  0  0  0
    5.7213   -2.2983   21.3366 O   0  0  0  0  0  0  0  0  0  0  0  0
    7.7562   -2.2756   22.6697 C   0  0  0  0  0  0  0  0  0  0  0  0
    7.8139   -3.3649   22.6538 H   0  0  0  0  0  0  0  0  0  0  0  0
    7.2893   -1.9998   23.6186 H   0  0  0  0  0  0  0  0  0  0  0  0
    9.0904   -1.5578   22.4207 C   0  0  0  0  0  0  0  0  0  0  0  0
    9.3610   -0.9367   23.2851 H   0  0  0  0  0  0  0  0  0  0  0  0
    9.9211   -2.2522   22.2507 H   0  0  0  0  0  0  0  0  0  0  0  0
    8.8803   -0.6591   21.1722 C   0  0  2  0  0  0  0  0  0  0  0  0
    9.4814   -1.0390   20.3290 H   0  0  0  0  0  0  0  0  0  0  0  0
    9.2936    0.8061   21.4299 C   0  0  0  0  0  0  0  0  0  0  0  0
    8.6842    1.1978   22.2607 H   0  0  0  0  0  0  0  0  0  0  0  0
    9.0549    1.4157   20.5437 H   0  0  0  0  0  0  0  0  0  0  0  0
   10.7032    0.8684   21.7813 N   0  0  0  0  0  0  0  0  0  0  0  0
   11.3018    0.1002   21.5277 H   0  0  0  0  0  0  0  0  0  0  0  0
   11.3891    2.0020   22.1450 C   0  0  0  0  0  0  0  0  0  0  0  0
   10.7628    3.2531   22.2509 C   0  0  0  0  0  0  0  0  0  0  0  0
    9.6938    3.3058   22.0654 H   0  0  0  0  0  0  0  0  0  0  0  0
   11.5085    4.3899   22.5781 C   0  0  0  0  0  0  0  0  0  0  0  0
   11.0027    5.3504   22.6473 H   0  0  0  0  0  0  0  0  0  0  0  0
   12.8863    4.3034   22.7889 C   0  0  0  0  0  0  0  0  0  0  0  0
   13.4695    5.1908   23.0305 H   0  0  0  0  0  0  0  0  0  0  0  0
   13.5142    3.0595   22.6666 C   0  0  0  0  0  0  0  0  0  0  0  0
   14.5941    2.9899   22.7543 H   0  0  0  0  0  0  0  0  0  0  0  0
   12.7728    1.9093   22.4016 C   0  0  0  0  0  0  0  0  0  0  0  0
   13.2399    0.9268   22.4224 H   0  0  0  0  0  0  0  0  0  0  0  0
    5.5487    0.5430   20.0954 C   0  0  0  0  0  0  0  0  0  0  0  0
    5.1043    0.4501   21.0860 H   0  0  0  0  0  0  0  0  0  0  0  0
    4.9213    1.2637   19.0728 C   0  0  0  0  0  0  0  0  0  0  0  0
    3.9742    1.7685   19.2339 H   0  0  0  0  0  0  0  0  0  0  0  0
  1  2  1  0
  2  3  2  0
  3  4  1  0
  4  5  1  0
  4  6  2  0
  6  7  1  0
  7  8  1  0
  8  9  2  0
  8 10  1  0
 10 11  1  0
 10 12  1  0
 10 13  1  0
 13 14  1  0
 13 15  1  0
 13 16  1  0
 16 17  1  6
 16 18  1  0
 18 19  1  0
 18 20  1  0
 18 21  1  0
 21 22  1  0
 21 23  1  0
 23 24  2  0
 24 25  1  0
 24 26  1  0
 26 27  1  0
 26 28  2  0
 28 29  1  0
 28 30  1  0
 30 31  1  0
 30 32  2  0
 32 33  1  0
  6 34  1  0
 34 35  1  0
 34 36  2  0
 36 37  1  0
 36  2  1  0
 16  7  1  0
 32 23  1  0
M  END
>  <cnnaffinity>  (1) 
-5.14053

>  <filename>  (1) 
O=C1CC[C@H](CNc2ccccc2)N1c1cccnc1

$$$$
