
     RDKit          3D

 33 35  0  0  0  0  0  0  0  0999 V2000
    4.9164    1.7951   16.9826 H   0  0  0  0  0  0  0  0  0  0  0  0
    5.3934    1.3027   17.8263 C   0  0  0  0  0  0  0  0  0  0  0  0
    6.5578    0.6886   17.5643 N   0  0  0  0  0  0  0  0  0  0  0  0
    7.1777    0.0778   18.5798 C   0  0  0  0  0  0  0  0  0  0  0  0
    8.1205   -0.4215   18.3487 H   0  0  0  0  0  0  0  0  0  0  0  0
    6.6543    0.0227   19.8862 C   0  0  0  0  0  0  0  0  0  0  0  0
    7.3478   -0.6769   20.9380 N   0  0  0  0  0  0  0  0  0  0  0  0
    8.6383   -0.2803   21.2758 C   0  0  0  0  0  0  0  0  0  0  0  0
    9.0092    0.5586   20.6887 H   0  0  0  0  0  0  0  0  0  0  0  0
    9.3580   -0.8800   22.2493 C   0  0  0  0  0  0  0  0  0  0  0  0
   10.7497   -0.4619   22.6654 C   0  0  1  0  0  0  0  0  0  0  0  0
   11.4641   -1.2433   22.3471 H   0  0  0  0  0  0  0  0  0  0  0  0
   11.2541    0.8843   22.0900 C   0  0  0  0  0  0  0  0  0  0  0  0
   11.5562    0.8128   21.0378 H   0  0  0  0  0  0  0  0  0  0  0  0
   10.4527    1.6367   22.1493 H   0  0  0  0  0  0  0  0  0  0  0  0
   12.3674    1.2986   22.9379 N   0  0  0  0  0  0  0  0  0  0  0  0
   13.2241    0.8844   22.5859 H   0  0  0  0  0  0  0  0  0  0  0  0
   12.0953    0.7877   24.2938 C   0  0  0  0  0  0  0  0  0  0  0  0
   11.8086    1.6164   24.9551 H   0  0  0  0  0  0  0  0  0  0  0  0
   13.0137    0.3559   24.7104 H   0  0  0  0  0  0  0  0  0  0  0  0
   10.9356   -0.2366   24.1881 C   0  0  0  0  0  0  0  0  0  0  0  0
   10.0141    0.1836   24.6096 H   0  0  0  0  0  0  0  0  0  0  0  0
   11.0797   -1.1730   24.7326 H   0  0  0  0  0  0  0  0  0  0  0  0
    8.7511   -2.0335   22.9536 C   0  0  0  0  0  0  0  0  0  0  0  0
    9.2365   -2.7287   23.8241 O   0  0  0  0  0  0  0  0  0  0  0  0
    7.4814   -2.3372   22.5561 N   0  0  0  0  0  0  0  0  0  0  0  0
    7.0574   -3.1201   23.0062 H   0  0  0  0  0  0  0  0  0  0  0  0
    6.7291   -1.7618   21.5927 C   0  0  0  0  0  0  0  0  0  0  0  0
    5.6365   -2.2154   21.3483 O   0  0  0  0  0  0  0  0  0  0  0  0
    5.4389    0.6569   20.1492 C   0  0  0  0  0  0  0  0  0  0  0  0
    5.0184    0.6099   21.1528 H   0  0  0  0  0  0  0  0  0  0  0  0
    4.8064    1.3201   19.0951 C   0  0  0  0  0  0  0  0  0  0  0  0
    3.8738    1.8438   19.2478 H   0  0  0  0  0  0  0  0  0  0  0  0
  1  2  1  0
  2  3  2  0
  3  4  1  0
  4  5  1  0
  4  6  2  0
  6  7  1  0
  7  8  1  0
  8  9  1  0
  8 10  2  0
 10 11  1  0
 11 12  1  6
 11 13  1  0
 13 14  1  0
 13 15  1  0
 13 16  1  0
 16 17  1  0
 16 18  1  0
 18 19  1  0
 18 20  1  0
 18 21  1  0
 21 22  1  0
 21 23  1  0
 10 24  1  0
 24 25  2  0
 24 26  1  0
 26 27  1  0
 26 28  1  0
 28 29  2  0
  6 30  1  0
 30 31  1  0
 30 32  2  0
 32 33  1  0
 32  2  1  0
 28  7  1  0
 21 11  1  0
M  END
>  <cnnaffinity>  (1) 
-4.83653

>  <filename>  (1) 
O=c1[nH]c(=O)n(-c2cccnc2)cc1[C@@H]1CCNC1

$$$$
