
     RDKit          3D

 34 36  0  0  0  0  0  0  0  0999 V2000
    9.6564    2.6114   21.6629 H   0  0  0  0  0  0  0  0  0  0  0  0
    9.2013    1.6364   21.8700 C   0  0  0  0  0  0  0  0  0  0  0  0
    9.6532    0.5415   21.2486 C   0  0  0  0  0  0  0  0  0  0  0  0
   10.6828    0.5124   20.8995 H   0  0  0  0  0  0  0  0  0  0  0  0
    8.9458   -0.7959   21.0851 C   0  0  1  0  0  0  0  0  0  0  0  0
    9.4653   -1.3318   20.2828 H   0  0  0  0  0  0  0  0  0  0  0  0
    9.0545   -1.6967   22.3272 C   0  0  0  0  0  0  0  0  0  0  0  0
   10.0277   -2.0147   22.9613 O   0  0  0  0  0  0  0  0  0  0  0  0
    7.7920   -2.1108   22.5935 N   0  0  0  0  0  0  0  0  0  0  0  0
    7.5485   -2.7746   23.2955 H   0  0  0  0  0  0  0  0  0  0  0  0
    6.8578   -1.6836   21.6921 C   0  0  0  0  0  0  0  0  0  0  0  0
    5.7332   -2.1135   21.6437 O   0  0  0  0  0  0  0  0  0  0  0  0
    7.4938   -0.7894   20.8431 N   0  0  0  0  0  0  0  0  0  0  0  0
    6.8097   -0.0834   19.8206 C   0  0  0  0  0  0  0  0  0  0  0  0
    7.3042    0.0703   18.5026 C   0  0  0  0  0  0  0  0  0  0  0  0
    8.2537   -0.3866   18.2117 H   0  0  0  0  0  0  0  0  0  0  0  0
    6.6489    0.7331   17.5388 N   0  0  0  0  0  0  0  0  0  0  0  0
    5.4729    1.3032   17.8476 C   0  0  0  0  0  0  0  0  0  0  0  0
    4.9747    1.8554   17.0521 H   0  0  0  0  0  0  0  0  0  0  0  0
    4.9015    1.2134   19.1198 C   0  0  0  0  0  0  0  0  0  0  0  0
    3.9608    1.7108   19.3220 H   0  0  0  0  0  0  0  0  0  0  0  0
    5.5659    0.4949   20.1152 C   0  0  0  0  0  0  0  0  0  0  0  0
    5.1552    0.3695   21.1152 H   0  0  0  0  0  0  0  0  0  0  0  0
    8.1122    1.6667   22.8866 C   0  0  0  0  0  0  0  0  0  0  0  0
    6.9367    2.4024   22.6541 C   0  0  0  0  0  0  0  0  0  0  0  0
    6.8138    2.9231   21.7036 H   0  0  0  0  0  0  0  0  0  0  0  0
    5.9223    2.4461   23.6174 C   0  0  0  0  0  0  0  0  0  0  0  0
    5.0185    3.0221   23.4327 H   0  0  0  0  0  0  0  0  0  0  0  0
    6.0774    1.7602   24.8283 C   0  0  0  0  0  0  0  0  0  0  0  0
    5.2955    1.7895   25.5839 H   0  0  0  0  0  0  0  0  0  0  0  0
    7.2541    1.0480   25.0786 C   0  0  0  0  0  0  0  0  0  0  0  0
    7.3929    0.5283   26.0231 H   0  0  0  0  0  0  0  0  0  0  0  0
    8.2657    1.0054   24.1146 C   0  0  0  0  0  0  0  0  0  0  0  0
    9.2037    0.4883   24.3188 H   0  0  0  0  0  0  0  0  0  0  0  0
  1  2  1  0
  2  3  2  3
  3  4  1  0
  3  5  1  0
  5  6  1  6
  5  7  1  0
  7  8  2  0
  7  9  1  0
  9 10  1  0
  9 11  1  0
 11 12  2  0
 11 13  1  0
 13 14  1  0
 14 15  2  0
 15 16  1  0
 15 17  1  0
 17 18  2  0
 18 19  1  0
 18 20  1  0
 20 21  1  0
 20 22  2  0
 22 23  1  0
  2 24  1  0
 24 25  2  0
 25 26  1  0
 25 27  1  0
 27 28  1  0
 27 29  2  0
 29 30  1  0
 29 31  1  0
 31 32  1  0
 31 33  2  0
 33 34  1  0
 13  5  1  0
 22 14  1  0
 33 24  1  0
M  END
>  <cnnaffinity>  (1) 
-5.30458

>  <filename>  (1) 
O=C1NC(=O)N(c2cccnc2)[C@H]1C=Cc1ccccc1

$$$$
