
     RDKit          3D

 35 37  0  0  0  0  0  0  0  0999 V2000
    5.7678   -2.0778   21.8064 O   0  0  0  0  0  0  0  0  0  0  0  0
    6.8497   -1.5483   21.8919 C   0  0  0  0  0  0  0  0  0  0  0  0
    7.7798   -1.7916   22.8467 N   0  0  0  0  0  0  0  0  0  0  0  0
    9.1082   -1.3527   22.4718 C   0  0  0  0  0  0  0  0  0  0  0  0
    9.8549   -0.5291   23.5349 C   0  0  0  0  0  0  0  0  0  0  0  0
    9.2407    0.8586   23.8239 C   0  0  0  0  0  0  0  0  0  0  0  0
    7.8412    0.8249   24.3998 C   0  0  0  0  0  0  0  0  0  0  0  0
    7.5945    0.2378   25.6486 C   0  0  0  0  0  0  0  0  0  0  0  0
    6.2898    0.2018   26.1483 C   0  0  0  0  0  0  0  0  0  0  0  0
    5.2338    0.7006   25.4957 N   0  0  0  0  0  0  0  0  0  0  0  0
    5.4660    1.2530   24.2971 C   0  0  0  0  0  0  0  0  0  0  0  0
    6.7331    1.3469   23.7180 C   0  0  0  0  0  0  0  0  0  0  0  0
    6.8511    1.8164   22.7471 H   0  0  0  0  0  0  0  0  0  0  0  0
    4.5813    1.6465   23.7938 H   0  0  0  0  0  0  0  0  0  0  0  0
    6.0796   -0.2517   27.1165 H   0  0  0  0  0  0  0  0  0  0  0  0
    8.4046   -0.1844   26.2348 H   0  0  0  0  0  0  0  0  0  0  0  0
    9.2417    1.4468   22.8971 H   0  0  0  0  0  0  0  0  0  0  0  0
    9.9025    1.3856   24.5236 H   0  0  0  0  0  0  0  0  0  0  0  0
   10.8892   -0.3945   23.1889 H   0  0  0  0  0  0  0  0  0  0  0  0
    9.9093   -1.1183   24.4627 H   0  0  0  0  0  0  0  0  0  0  0  0
    8.7942   -0.5690   21.1869 C   0  0  0  0  0  0  0  0  0  0  0  0
    9.5878    0.0009   20.4758 O   0  0  0  0  0  0  0  0  0  0  0  0
    7.4243   -0.6543   20.9699 N   0  0  0  0  0  0  0  0  0  0  0  0
    6.7055    0.0092   19.9196 C   0  0  0  0  0  0  0  0  0  0  0  0
    5.4799    0.6271   20.1856 C   0  0  0  0  0  0  0  0  0  0  0  0
    4.8298    1.2896   19.1345 C   0  0  0  0  0  0  0  0  0  0  0  0
    5.4078    1.2776   17.8609 C   0  0  0  0  0  0  0  0  0  0  0  0
    6.5650    0.6559   17.5822 N   0  0  0  0  0  0  0  0  0  0  0  0
    7.1997    0.0541   18.5934 C   0  0  0  0  0  0  0  0  0  0  0  0
    8.1491   -0.4239   18.3637 H   0  0  0  0  0  0  0  0  0  0  0  0
    4.9317    1.7800   17.0221 H   0  0  0  0  0  0  0  0  0  0  0  0
    3.8960    1.8193   19.2824 H   0  0  0  0  0  0  0  0  0  0  0  0
    5.0571    0.5770   21.1911 H   0  0  0  0  0  0  0  0  0  0  0  0
    9.7595   -2.1961   22.1921 H   0  0  0  0  0  0  0  0  0  0  0  0
    7.4821   -2.3565   23.6194 H   0  0  0  0  0  0  0  0  0  0  0  0
  1  2  2  0
  2  3  1  0
  3  4  1  0
  4  5  1  0
  5  6  1  0
  6  7  1  0
  7  8  2  0
  8  9  1  0
  9 10  2  0
 10 11  1  0
 11 12  2  0
 12 13  1  0
 11 14  1  0
  9 15  1  0
  8 16  1  0
  6 17  1  0
  6 18  1  0
  5 19  1  0
  5 20  1  0
  4 21  1  0
 21 22  2  0
 21 23  1  0
 23 24  1  0
 24 25  2  0
 25 26  1  0
 26 27  2  0
 27 28  1  0
 28 29  2  0
 29 30  1  0
 27 31  1  0
 26 32  1  0
 25 33  1  0
  4 34  1  0
  3 35  1  0
 23  2  1  0
 29 24  1  0
 12  7  1  0
M  END
>  <cnnaffinity>  (1) 
-5.28555

>  <filename>  (1) 
O=C1NC(CCc2ccncc2)C(=O)N1c1cccnc1

$$$$
