
     RDKit          3D

 33 35  0  0  0  0  0  0  0  0999 V2000
   10.8573   -5.6554   25.6934 H   0  0  0  0  0  0  0  0  0  0  0  0
   10.6817   -4.8634   25.1681 O   0  0  0  0  0  0  0  0  0  0  0  0
    9.6090   -4.2494   25.7270 C   0  0  0  0  0  0  0  0  0  0  0  0
    8.9879   -4.8186   26.8401 C   0  0  0  0  0  0  0  0  0  0  0  0
    9.3548   -5.7588   27.2416 H   0  0  0  0  0  0  0  0  0  0  0  0
    7.8964   -4.1871   27.4451 C   0  0  0  0  0  0  0  0  0  0  0  0
    7.0451   -4.9965   28.7296 Cl  0  0  0  0  0  0  0  0  0  0  0  0
    7.4774   -2.9305   27.0130 C   0  0  0  0  0  0  0  0  0  0  0  0
    6.6600   -2.4230   27.5169 H   0  0  0  0  0  0  0  0  0  0  0  0
    8.1128   -2.3470   25.9089 C   0  0  0  0  0  0  0  0  0  0  0  0
    7.8482   -1.3453   25.5801 H   0  0  0  0  0  0  0  0  0  0  0  0
    9.0943   -3.0442   25.1924 C   0  0  0  0  0  0  0  0  0  0  0  0
    9.5975   -2.5915   23.9913 O   0  0  0  0  0  0  0  0  0  0  0  0
    8.7923   -2.0358   23.0391 C   0  0  0  0  0  0  0  0  0  0  0  0
    7.4351   -2.2591   22.8945 C   0  0  0  0  0  0  0  0  0  0  0  0
    6.9104   -2.8962   23.6056 H   0  0  0  0  0  0  0  0  0  0  0  0
    6.6958   -1.6257   21.8553 C   0  0  0  0  0  0  0  0  0  0  0  0
    5.6286   -1.7859   21.7716 H   0  0  0  0  0  0  0  0  0  0  0  0
    7.3260   -0.7924   20.9675 C   0  0  0  0  0  0  0  0  0  0  0  0
    6.6606   -0.0176   19.9044 C   0  0  0  0  0  0  0  0  0  0  0  0
    7.2091    0.0445   18.6091 C   0  0  0  0  0  0  0  0  0  0  0  0
    8.1461   -0.4652   18.3879 H   0  0  0  0  0  0  0  0  0  0  0  0
    6.6377    0.6752   17.5778 N   0  0  0  0  0  0  0  0  0  0  0  0
    5.4764    1.3100   17.8062 C   0  0  0  0  0  0  0  0  0  0  0  0
    5.0309    1.8214   16.9528 H   0  0  0  0  0  0  0  0  0  0  0  0
    4.8485    1.3282   19.0559 C   0  0  0  0  0  0  0  0  0  0  0  0
    3.9149    1.8670   19.1732 H   0  0  0  0  0  0  0  0  0  0  0  0
    5.4477    0.6593   20.1246 C   0  0  0  0  0  0  0  0  0  0  0  0
    5.0045    0.6912   21.1216 H   0  0  0  0  0  0  0  0  0  0  0  0
    8.6929   -0.6732   21.0578 N   0  0  0  0  0  0  0  0  0  0  0  0
    9.2083    0.0007   20.5165 H   0  0  0  0  0  0  0  0  0  0  0  0
    9.5029   -1.1695   22.0714 C   0  0  0  0  0  0  0  0  0  0  0  0
   10.6758   -0.8431   22.0602 O   0  0  0  0  0  0  0  0  0  0  0  0
  1  2  1  0
  2  3  1  0
  3  4  2  0
  4  5  1  0
  4  6  1  0
  6  7  1  0
  6  8  2  0
  8  9  1  0
  8 10  1  0
 10 11  1  0
 10 12  2  0
 12 13  1  0
 13 14  1  0
 14 15  2  0
 15 16  1  0
 15 17  1  0
 17 18  1  0
 17 19  2  0
 19 20  1  0
 20 21  2  0
 21 22  1  0
 21 23  1  0
 23 24  2  0
 24 25  1  0
 24 26  1  0
 26 27  1  0
 26 28  2  0
 28 29  1  0
 19 30  1  0
 30 31  1  0
 30 32  1  0
 32 33  2  0
 12  3  1  0
 32 14  1  0
 28 20  1  0
M  END
>  <cnnaffinity>  (1) 
-5.40167

>  <filename>  (1) 
O=c1[nH]c(-c2cccnc2)ccc1Oc1ccc(Cl)cc1O

$$$$
