
     RDKit          3D

 20 21  0  0  0  0  0  0  0  0999 V2000
    4.9782    1.8445   17.0716 H   0  0  0  0  0  0  0  0  0  0  0  0
    5.4320    1.2641   17.8722 C   0  0  0  0  0  0  0  0  0  0  0  0
    6.5690    0.6262   17.5487 N   0  0  0  0  0  0  0  0  0  0  0  0
    7.1696   -0.0661   18.5194 C   0  0  0  0  0  0  0  0  0  0  0  0
    8.1012   -0.5661   18.2545 H   0  0  0  0  0  0  0  0  0  0  0  0
    6.6733   -0.1891   19.8296 C   0  0  0  0  0  0  0  0  0  0  0  0
    7.5001   -0.8841   20.8204 C   0  0  0  0  0  0  0  0  0  0  0  0
    8.8085   -0.6767   21.0026 C   0  0  0  0  0  0  0  0  0  0  0  0
    9.5034   -0.0354   20.4795 H   0  0  0  0  0  0  0  0  0  0  0  0
    9.2527   -1.3015   22.1326 O   0  0  0  0  0  0  0  0  0  0  0  0
    8.2031   -1.9522   22.7190 C   0  0  0  0  0  0  0  0  0  0  0  0
    8.2656   -2.5875   23.7339 O   0  0  0  0  0  0  0  0  0  0  0  0
    7.0882   -1.6946   21.8860 N   0  0  0  0  0  0  0  0  0  0  0  0
    5.8656   -2.4170   21.9211 N   0  0  0  0  0  0  0  0  0  0  0  0
    5.3593   -3.1929   22.7250 C   0  0  0  0  0  0  0  0  0  0  0  0
    4.3298   -4.1576   23.4266 S   0  0  0  0  0  0  0  0  0  0  0  0
    5.4687    0.4602   20.1440 C   0  0  0  0  0  0  0  0  0  0  0  0
    5.0633    0.3766   21.1536 H   0  0  0  0  0  0  0  0  0  0  0  0
    4.8434    1.2078   19.1424 C   0  0  0  0  0  0  0  0  0  0  0  0
    3.9307    1.7653   19.3336 H   0  0  0  0  0  0  0  0  0  0  0  0
  1  2  1  0
  2  3  2  0
  3  4  1  0
  4  5  1  0
  4  6  2  0
  6  7  1  0
  7  8  2  0
  8  9  1  0
  8 10  1  0
 10 11  1  0
 11 12  2  0
 11 13  1  0
 13 14  1  0
 14 15  2  0
 15 16  2  0
  6 17  1  0
 17 18  1  0
 17 19  2  0
 19 20  1  0
 19  2  1  0
 13  7  1  0
M  END
>  <cnnaffinity>  (1) 
-4.26552

>  <filename>  (1) 
O=c1occ(-c2cccnc2)n1N=C=S

$$$$
