
     RDKit          3D

 29 31  0  0  0  0  0  0  0  0999 V2000
    4.9147    1.7948   16.9884 H   0  0  0  0  0  0  0  0  0  0  0  0
    5.3954    1.2978   17.8278 C   0  0  0  0  0  0  0  0  0  0  0  0
    6.5595    0.6857   17.5603 N   0  0  0  0  0  0  0  0  0  0  0  0
    7.1686    0.0675   18.5782 C   0  0  0  0  0  0  0  0  0  0  0  0
    8.1209   -0.4154   18.3480 H   0  0  0  0  0  0  0  0  0  0  0  0
    6.6679    0.0055   19.8882 C   0  0  0  0  0  0  0  0  0  0  0  0
    7.4122   -0.7298   20.9735 C   0  0  2  0  0  0  0  0  0  0  0  0
    8.3113   -1.1881   20.5453 H   0  0  0  0  0  0  0  0  0  0  0  0
    6.5754   -1.8588   21.6322 C   0  0  0  0  0  0  0  0  0  0  0  0
    6.9167   -2.8507   21.3097 H   0  0  0  0  0  0  0  0  0  0  0  0
    5.5053   -1.8000   21.3738 H   0  0  0  0  0  0  0  0  0  0  0  0
    6.8044   -1.6596   23.0430 N   0  0  0  0  0  0  0  0  0  0  0  0
    6.3951   -2.1852   23.7978 H   0  0  0  0  0  0  0  0  0  0  0  0
    7.4439   -0.5257   23.4144 C   0  0  0  0  0  0  0  0  0  0  0  0
    7.5911   -0.1784   24.5640 O   0  0  0  0  0  0  0  0  0  0  0  0
    7.8593    0.2057   22.1365 C   0  0  1  0  0  0  0  0  0  0  0  0
    7.2909    1.1432   22.1336 H   0  0  0  0  0  0  0  0  0  0  0  0
    9.3112    0.5810   22.0834 C   0  0  0  0  0  0  0  0  0  0  0  0
   10.5251   -0.5492   22.5564 S   0  0  0  0  0  0  0  0  0  0  0  0
   11.7749    0.5436   22.0843 C   0  0  0  0  0  0  0  0  0  0  0  0
   13.4240    0.1155   22.2903 Cl  0  0  0  0  0  0  0  0  0  0  0  0
   11.2879    1.7164   21.5870 C   0  0  0  0  0  0  0  0  0  0  0  0
   11.9260    2.5235   21.2503 H   0  0  0  0  0  0  0  0  0  0  0  0
    9.8614    1.7279   21.5897 C   0  0  0  0  0  0  0  0  0  0  0  0
    9.2577    2.5558   21.2358 H   0  0  0  0  0  0  0  0  0  0  0  0
    5.4488    0.6503   20.1429 C   0  0  0  0  0  0  0  0  0  0  0  0
    5.0149    0.6369   21.1475 H   0  0  0  0  0  0  0  0  0  0  0  0
    4.8076    1.3115   19.0966 C   0  0  0  0  0  0  0  0  0  0  0  0
    3.8767    1.8413   19.2515 H   0  0  0  0  0  0  0  0  0  0  0  0
  1  2  1  0
  2  3  2  0
  3  4  1  0
  4  5  1  0
  4  6  2  0
  6  7  1  0
  7  8  1  6
  7  9  1  0
  9 10  1  0
  9 11  1  0
  9 12  1  0
 12 13  1  0
 12 14  1  0
 14 15  2  0
 14 16  1  0
 16 17  1  6
 16 18  1  0
 18 19  1  0
 19 20  1  0
 20 21  1  0
 20 22  2  0
 22 23  1  0
 22 24  1  0
 24 25  1  0
  6 26  1  0
 26 27  1  0
 26 28  2  0
 28 29  1  0
 28  2  1  0
 16  7  1  0
 24 18  2  0
M  END
>  <cnnaffinity>  (1) 
-5.40529

>  <filename>  (1) 
O=C1NC[C@@H](c2cccnc2)[C@@H]1c1ccc(Cl)s1

$$$$
