
     RDKit          3D

 39 42  0  0  0  0  0  0  0  0999 V2000
    9.6902   -1.3695   27.3639 O   0  0  0  0  0  0  0  0  0  0  0  0
    8.8334   -1.7129   26.5724 C   0  0  0  0  0  0  0  0  0  0  0  0
    8.8078   -1.3933   25.1384 C   0  0  0  0  0  0  0  0  0  0  0  0
    7.7709   -1.7419   24.3187 C   0  0  0  0  0  0  0  0  0  0  0  0
    7.7426   -1.3096   22.8856 C   0  0  0  0  0  0  0  0  0  0  0  0
    6.8190   -0.6635   22.2018 N   0  0  0  0  0  0  0  0  0  0  0  0
    7.3530   -0.5693   20.9562 C   0  0  0  0  0  0  0  0  0  0  0  0
    6.6277    0.0514   19.8589 C   0  0  0  0  0  0  0  0  0  0  0  0
    5.3994    0.6827   20.0891 C   0  0  0  0  0  0  0  0  0  0  0  0
    4.7875    1.3268   19.0198 C   0  0  0  0  0  0  0  0  0  0  0  0
    5.4165    1.3012   17.7686 C   0  0  0  0  0  0  0  0  0  0  0  0
    6.5754    0.6669   17.5318 N   0  0  0  0  0  0  0  0  0  0  0  0
    7.1651    0.0540   18.5626 C   0  0  0  0  0  0  0  0  0  0  0  0
    8.1085   -0.4540   18.3607 H   0  0  0  0  0  0  0  0  0  0  0  0
    4.9800    1.8128   16.9149 H   0  0  0  0  0  0  0  0  0  0  0  0
    3.8590    1.8713   19.1437 H   0  0  0  0  0  0  0  0  0  0  0  0
    4.9624    0.6799   21.0906 H   0  0  0  0  0  0  0  0  0  0  0  0
    8.5447   -1.1135   20.8292 N   0  0  0  0  0  0  0  0  0  0  0  0
    8.8025   -1.5698   22.0741 N   0  0  0  0  0  0  0  0  0  0  0  0
    9.9743   -2.3902   22.2424 C   0  0  0  0  0  0  0  0  0  0  0  0
   11.2998   -1.6478   22.2767 C   0  0  0  0  0  0  0  0  0  0  0  0
   11.6294   -1.0918   21.1079 F   0  0  0  0  0  0  0  0  0  0  0  0
   12.2376   -2.5640   22.5726 F   0  0  0  0  0  0  0  0  0  0  0  0
   11.3485   -0.6850   23.2150 F   0  0  0  0  0  0  0  0  0  0  0  0
   10.0307   -3.0130   21.3511 H   0  0  0  0  0  0  0  0  0  0  0  0
    9.8936   -2.9972   23.1480 H   0  0  0  0  0  0  0  0  0  0  0  0
    6.6988   -2.5934   24.8487 C   0  0  0  0  0  0  0  0  0  0  0  0
    5.6385   -3.1451   24.0774 C   0  0  0  0  0  0  0  0  0  0  0  0
    4.6516   -3.9189   24.6568 C   0  0  0  0  0  0  0  0  0  0  0  0
    4.7056   -4.1604   26.0384 C   0  0  0  0  0  0  0  0  0  0  0  0
    3.7226   -4.8836   26.5942 F   0  0  0  0  0  0  0  0  0  0  0  0
    5.7240   -3.6796   26.8342 C   0  0  0  0  0  0  0  0  0  0  0  0
    6.7304   -2.9149   26.2359 C   0  0  0  0  0  0  0  0  0  0  0  0
    7.7657   -2.4638   27.0114 N   0  0  0  0  0  0  0  0  0  0  0  0
    7.8068   -2.6699   27.9969 H   0  0  0  0  0  0  0  0  0  0  0  0
    5.7431   -3.8936   27.8984 H   0  0  0  0  0  0  0  0  0  0  0  0
    3.8424   -4.3403   24.0728 H   0  0  0  0  0  0  0  0  0  0  0  0
    5.6074   -2.9332   23.0091 H   0  0  0  0  0  0  0  0  0  0  0  0
    9.6826   -0.8477   24.8138 H   0  0  0  0  0  0  0  0  0  0  0  0
  1  2  2  0
  2  3  1  0
  3  4  2  0
  4  5  1  0
  5  6  2  0
  6  7  1  0
  7  8  1  0
  8  9  2  0
  9 10  1  0
 10 11  2  0
 11 12  1  0
 12 13  2  0
 13 14  1  0
 11 15  1  0
 10 16  1  0
  9 17  1  0
  7 18  2  0
 18 19  1  0
 19 20  1  0
 20 21  1  0
 21 22  1  0
 21 23  1  0
 21 24  1  0
 20 25  1  0
 20 26  1  0
  4 27  1  0
 27 28  2  0
 28 29  1  0
 29 30  2  0
 30 31  1  0
 30 32  1  0
 32 33  2  0
 33 34  1  0
 34 35  1  0
 32 36  1  0
 29 37  1  0
 28 38  1  0
  3 39  1  0
 34  2  1  0
 19  5  1  0
 33 27  1  0
 13  8  1  0
M  END
>  <cnnaffinity>  (1) 
-6.1882

>  <filename>  (1) 
O=c1cc(-c2nc(-c3cccnc3)nn2CC(F)(F)F)c2ccc(F)cc2[nH]1

$$$$
