
     RDKit          3D

 24 25  0  0  0  0  0  0  0  0999 V2000
    7.2866   -2.2940   23.8385 H   0  0  0  0  0  0  0  0  0  0  0  0
    7.5609   -1.4595   23.1955 C   0  0  0  0  0  0  0  0  0  0  0  0
    6.9335   -1.5469   21.8553 C   0  0  0  0  0  0  0  0  0  0  0  0
    5.7705   -2.6667   21.5543 S   0  0  0  0  0  0  0  0  0  0  0  0
    7.4124   -0.6673   20.9350 N   0  0  0  0  0  0  0  0  0  0  0  0
    8.3340   -0.2945   21.1348 H   0  0  0  0  0  0  0  0  0  0  0  0
    6.6803   -0.0227   19.9006 C   0  0  0  0  0  0  0  0  0  0  0  0
    7.1952    0.0358   18.5912 C   0  0  0  0  0  0  0  0  0  0  0  0
    8.1432   -0.4534   18.3784 H   0  0  0  0  0  0  0  0  0  0  0  0
    6.5921    0.6624   17.5737 N   0  0  0  0  0  0  0  0  0  0  0  0
    5.4275    1.2825   17.8284 C   0  0  0  0  0  0  0  0  0  0  0  0
    4.9591    1.7938   16.9869 H   0  0  0  0  0  0  0  0  0  0  0  0
    4.8295    1.2862   19.0938 C   0  0  0  0  0  0  0  0  0  0  0  0
    3.8941    1.8186   19.2325 H   0  0  0  0  0  0  0  0  0  0  0  0
    5.4610    0.6180   20.1530 C   0  0  0  0  0  0  0  0  0  0  0  0
    5.0478    0.6051   21.1629 H   0  0  0  0  0  0  0  0  0  0  0  0
    8.3281   -0.4804   23.7294 C   0  0  0  0  0  0  0  0  0  0  0  0
    8.6304    1.1473   23.0981 S   0  0  0  0  0  0  0  0  0  0  0  0
    9.6202    1.6095   24.5220 C   0  0  0  0  0  0  0  0  0  0  0  0
   10.1400    2.6695   24.7210 O   0  0  0  0  0  0  0  0  0  0  0  0
    9.6893    0.5434   25.3699 N   0  0  0  0  0  0  0  0  0  0  0  0
   10.1716    0.6389   26.2451 H   0  0  0  0  0  0  0  0  0  0  0  0
    9.0324   -0.6195   25.0675 C   0  0  0  0  0  0  0  0  0  0  0  0
    9.0439   -1.5858   25.7842 O   0  0  0  0  0  0  0  0  0  0  0  0
  1  2  1  0
  2  3  1  0
  3  4  2  0
  3  5  1  0
  5  6  1  0
  5  7  1  0
  7  8  2  0
  8  9  1  0
  8 10  1  0
 10 11  2  0
 11 12  1  0
 11 13  1  0
 13 14  1  0
 13 15  2  0
 15 16  1  0
  2 17  2  3
 17 18  1  0
 18 19  1  0
 19 20  2  0
 19 21  1  0
 21 22  1  0
 21 23  1  0
 23 24  2  0
 15  7  1  0
 23 17  1  0
M  END
>  <cnnaffinity>  (1) 
-4.68949

>  <filename>  (1) 
O=C1NC(=O)C(=CC(=S)Nc2cccnc2)S1

$$$$
