
     RDKit          3D

 37 40  0  0  0  0  0  0  0  0999 V2000
    5.0079    1.7592   17.0791 H   0  0  0  0  0  0  0  0  0  0  0  0
    5.4716    1.2677   17.9292 C   0  0  0  0  0  0  0  0  0  0  0  0
    6.6294    0.6342   17.6778 N   0  0  0  0  0  0  0  0  0  0  0  0
    7.2210    0.0179   18.7077 C   0  0  0  0  0  0  0  0  0  0  0  0
    8.1637   -0.4835   18.5085 H   0  0  0  0  0  0  0  0  0  0  0  0
    6.6984   -0.0116   20.0216 C   0  0  0  0  0  0  0  0  0  0  0  0
    7.3755   -0.6718   21.0837 N   0  0  0  0  0  0  0  0  0  0  0  0
    7.5915   -2.0386   21.1590 C   0  0  0  0  0  0  0  0  0  0  0  0
    6.9430   -2.9346   20.6658 O   0  0  0  0  0  0  0  0  0  0  0  0
    8.7188   -2.1959   21.9168 N   0  0  0  0  0  0  0  0  0  0  0  0
    8.9429   -3.1511   22.1295 H   0  0  0  0  0  0  0  0  0  0  0  0
    9.1080   -1.0107   22.6567 C   0  0  0  0  0  0  0  0  0  0  0  0
    9.0243   -1.1370   23.7461 H   0  0  0  0  0  0  0  0  0  0  0  0
   10.1489   -0.7335   22.4475 H   0  0  0  0  0  0  0  0  0  0  0  0
    8.1110    0.0536   22.1202 C   0  0  2  0  0  0  0  0  0  0  0  0
    8.6799    0.8629   21.6422 H   0  0  0  0  0  0  0  0  0  0  0  0
    7.1906    0.6915   23.1574 C   0  0  0  0  0  0  0  0  0  0  0  0
    7.1934    2.0687   23.2597 C   0  0  0  0  0  0  0  0  0  0  0  0
    7.9037    2.6387   22.6649 H   0  0  0  0  0  0  0  0  0  0  0  0
    6.3008    2.7631   24.1119 C   0  0  0  0  0  0  0  0  0  0  0  0
    6.3677    3.8478   24.1696 H   0  0  0  0  0  0  0  0  0  0  0  0
    5.3634    2.0663   24.8394 C   0  0  0  0  0  0  0  0  0  0  0  0
    4.6832    2.5843   25.5088 H   0  0  0  0  0  0  0  0  0  0  0  0
    5.3295    0.6372   24.7951 C   0  0  0  0  0  0  0  0  0  0  0  0
    4.3837   -0.1148   25.5687 C   0  0  0  0  0  0  0  0  0  0  0  0
    3.6203    0.4249   26.1237 H   0  0  0  0  0  0  0  0  0  0  0  0
    4.4398   -1.4862   25.6246 C   0  0  0  0  0  0  0  0  0  0  0  0
    3.7261   -2.0471   26.2247 H   0  0  0  0  0  0  0  0  0  0  0  0
    5.4477   -2.1896   24.9171 C   0  0  0  0  0  0  0  0  0  0  0  0
    5.5086   -3.2719   24.9996 H   0  0  0  0  0  0  0  0  0  0  0  0
    6.3466   -1.4977   24.1326 C   0  0  0  0  0  0  0  0  0  0  0  0
    7.0835   -2.0480   23.5648 H   0  0  0  0  0  0  0  0  0  0  0  0
    6.3015   -0.0681   24.0033 C   0  0  0  0  0  0  0  0  0  0  0  0
    5.5065    0.6730   20.2688 C   0  0  0  0  0  0  0  0  0  0  0  0
    5.1195    0.6756   21.2905 H   0  0  0  0  0  0  0  0  0  0  0  0
    4.8762    1.3139   19.1956 C   0  0  0  0  0  0  0  0  0  0  0  0
    3.9566    1.8718   19.3363 H   0  0  0  0  0  0  0  0  0  0  0  0
  1  2  1  0
  2  3  2  0
  3  4  1  0
  4  5  1  0
  4  6  2  0
  6  7  1  0
  7  8  1  0
  8  9  2  0
  8 10  1  0
 10 11  1  0
 10 12  1  0
 12 13  1  0
 12 14  1  0
 12 15  1  0
 15 16  1  6
 15 17  1  0
 17 18  2  0
 18 19  1  0
 18 20  1  0
 20 21  1  0
 20 22  2  0
 22 23  1  0
 22 24  1  0
 24 25  2  0
 25 26  1  0
 25 27  1  0
 27 28  1  0
 27 29  2  0
 29 30  1  0
 29 31  1  0
 31 32  1  0
 31 33  2  0
  6 34  1  0
 34 35  1  0
 34 36  2  0
 36 37  1  0
 36  2  1  0
 15  7  1  0
 33 17  1  0
 33 24  1  0
M  END
>  <cnnaffinity>  (1) 
-4.89347

>  <filename>  (1) 
O=C1NC[C@H](c2cccc3ccccc23)N1c1cccnc1

$$$$
