
     RDKit          3D

 42 45  0  0  0  0  0  0  0  0999 V2000
    2.6773   -2.5090   26.1488 O   0  0  0  0  0  0  0  0  0  0  0  0
    3.8254   -2.3915   25.7320 C   0  0  0  0  0  0  0  0  0  0  0  0
    4.5807   -1.1709   25.9600 C   0  0  0  0  0  0  0  0  0  0  0  0
    5.8487   -1.0653   25.5220 C   0  0  0  0  0  0  0  0  0  0  0  0
    6.5077   -2.0965   24.8858 N   0  0  0  0  0  0  0  0  0  0  0  0
    7.8191   -1.8099   24.3184 C   0  0  0  0  0  0  0  0  0  0  0  0
    7.8174   -1.4551   22.8433 C   0  0  0  0  0  0  0  0  0  0  0  0
    6.9342   -0.7190   22.2022 N   0  0  0  0  0  0  0  0  0  0  0  0
    7.4022   -0.6934   20.9327 C   0  0  0  0  0  0  0  0  0  0  0  0
    6.6696    0.0065   19.8902 C   0  0  0  0  0  0  0  0  0  0  0  0
    5.4490    0.6476   20.1567 C   0  0  0  0  0  0  0  0  0  0  0  0
    4.8146    1.3010   19.1066 C   0  0  0  0  0  0  0  0  0  0  0  0
    5.4126    1.2826   17.8409 C   0  0  0  0  0  0  0  0  0  0  0  0
    6.5740    0.6657   17.5769 N   0  0  0  0  0  0  0  0  0  0  0  0
    7.1880    0.0479   18.5899 C   0  0  0  0  0  0  0  0  0  0  0  0
    8.1383   -0.4351   18.3610 H   0  0  0  0  0  0  0  0  0  0  0  0
    4.9431    1.7839   16.9985 H   0  0  0  0  0  0  0  0  0  0  0  0
    3.8820    1.8345   19.2498 H   0  0  0  0  0  0  0  0  0  0  0  0
    5.0188    0.6331   21.1612 H   0  0  0  0  0  0  0  0  0  0  0  0
    8.5387   -1.3398   20.7567 N   0  0  0  0  0  0  0  0  0  0  0  0
    8.8008   -1.8256   21.9902 N   0  0  0  0  0  0  0  0  0  0  0  0
   10.0654   -2.5000   22.2030 C   0  0  0  0  0  0  0  0  0  0  0  0
   11.1803   -1.5747   22.6406 C   0  0  0  0  0  0  0  0  0  0  0  0
   10.8573   -1.0159   23.8713 F   0  0  0  0  0  0  0  0  0  0  0  0
   11.3358   -0.7730   21.9128 H   0  0  0  0  0  0  0  0  0  0  0  0
   12.1026   -2.1585   22.7267 H   0  0  0  0  0  0  0  0  0  0  0  0
   10.3099   -2.9000   21.2217 H   0  0  0  0  0  0  0  0  0  0  0  0
    9.9525   -3.3129   22.9330 H   0  0  0  0  0  0  0  0  0  0  0  0
    8.2502   -0.9599   24.8579 H   0  0  0  0  0  0  0  0  0  0  0  0
    8.4957   -2.6467   24.5165 H   0  0  0  0  0  0  0  0  0  0  0  0
    5.8356   -3.2847   24.5411 C   0  0  0  0  0  0  0  0  0  0  0  0
    6.4459   -4.2986   23.7631 C   0  0  0  0  0  0  0  0  0  0  0  0
    5.7712   -5.4822   23.4862 C   0  0  0  0  0  0  0  0  0  0  0  0
    4.4608   -5.6786   23.9587 C   0  0  0  0  0  0  0  0  0  0  0  0
    3.8397   -4.6798   24.6867 C   0  0  0  0  0  0  0  0  0  0  0  0
    4.5082   -3.4722   24.9767 C   0  0  0  0  0  0  0  0  0  0  0  0
    2.8260   -4.7867   25.0692 H   0  0  0  0  0  0  0  0  0  0  0  0
    3.9401   -6.6094   23.7570 H   0  0  0  0  0  0  0  0  0  0  0  0
    6.2628   -6.2678   22.9146 H   0  0  0  0  0  0  0  0  0  0  0  0
    7.4448   -4.1438   23.3744 H   0  0  0  0  0  0  0  0  0  0  0  0
    6.4201   -0.1452   25.6371 H   0  0  0  0  0  0  0  0  0  0  0  0
    4.0715   -0.3806   26.4927 H   0  0  0  0  0  0  0  0  0  0  0  0
  1  2  2  0
  2  3  1  0
  3  4  2  0
  4  5  1  0
  5  6  1  0
  6  7  1  0
  7  8  2  0
  8  9  1  0
  9 10  1  0
 10 11  2  0
 11 12  1  0
 12 13  2  0
 13 14  1  0
 14 15  2  0
 15 16  1  0
 13 17  1  0
 12 18  1  0
 11 19  1  0
  9 20  2  0
 20 21  1  0
 21 22  1  0
 22 23  1  0
 23 24  1  0
 23 25  1  0
 23 26  1  0
 22 27  1  0
 22 28  1  0
  6 29  1  0
  6 30  1  0
  5 31  1  0
 31 32  2  0
 32 33  1  0
 33 34  2  0
 34 35  1  0
 35 36  2  0
 35 37  1  0
 34 38  1  0
 33 39  1  0
 32 40  1  0
  4 41  1  0
  3 42  1  0
 36  2  1  0
 21  7  1  0
 36 31  1  0
 15 10  1  0
M  END
>  <cnnaffinity>  (1) 
-5.87639

>  <filename>  (1) 
O=c1ccn(Cc2nc(-c3cccnc3)nn2CCF)c2ccccc12

$$$$
