
     RDKit          3D

 50 55  0  0  0  0  0  0  0  0999 V2000
    8.3450    5.7862   28.3502 O   0  0  0  0  0  0  0  0  0  0  0  0
    8.8250    5.8037   27.2299 C   0  0  0  0  0  0  0  0  0  0  0  0
    9.4367    6.9833   26.8248 N   0  0  0  0  0  0  0  0  0  0  0  0
   10.0384    7.2094   25.6041 C   0  0  0  0  0  0  0  0  0  0  0  0
   10.0771    6.2169   24.6898 C   0  0  0  0  0  0  0  0  0  0  0  0
    9.4436    4.9433   24.9710 C   0  0  0  0  0  0  0  0  0  0  0  0
    9.4260    3.9212   23.9932 C   0  0  0  0  0  0  0  0  0  0  0  0
    8.8354    2.6989   24.2717 C   0  0  0  0  0  0  0  0  0  0  0  0
    8.8433    1.6768   23.2719 N   0  0  0  0  0  0  0  0  0  0  0  0
    7.7410    0.9557   22.9158 N   0  0  0  0  0  0  0  0  0  0  0  0
    8.1383    0.3503   21.8143 C   0  0  0  0  0  0  0  0  0  0  0  0
    7.3160   -0.6206   21.0214 C   0  0  0  0  0  0  0  0  0  0  0  0
    6.5984   -0.0007   19.8313 C   0  0  0  0  0  0  0  0  0  0  0  0
    5.4133    0.7205   20.0274 C   0  0  0  0  0  0  0  0  0  0  0  0
    4.8252    1.3689   18.9409 C   0  0  0  0  0  0  0  0  0  0  0  0
    5.4403    1.2702   17.6903 C   0  0  0  0  0  0  0  0  0  0  0  0
    6.5637    0.5700   17.4726 N   0  0  0  0  0  0  0  0  0  0  0  0
    7.1189   -0.0426   18.5257 C   0  0  0  0  0  0  0  0  0  0  0  0
    8.0408   -0.5910   18.3250 H   0  0  0  0  0  0  0  0  0  0  0  0
    5.0184    1.7778   16.8249 H   0  0  0  0  0  0  0  0  0  0  0  0
    3.9206    1.9572   19.0511 H   0  0  0  0  0  0  0  0  0  0  0  0
    4.9705    0.7812   21.0235 H   0  0  0  0  0  0  0  0  0  0  0  0
    8.0049   -1.4110   20.7017 H   0  0  0  0  0  0  0  0  0  0  0  0
    6.5976   -1.0657   21.7127 H   0  0  0  0  0  0  0  0  0  0  0  0
    9.4058    0.6184   21.4358 N   0  0  0  0  0  0  0  0  0  0  0  0
    9.8564    1.3950   22.4108 C   0  0  0  0  0  0  0  0  0  0  0  0
   11.2958    1.7171   22.6589 C   0  0  0  0  0  0  0  0  0  0  0  0
   11.7535    1.7252   24.1064 C   0  0  0  0  0  0  0  0  0  0  0  0
   12.7044    0.6738   24.6118 C   0  0  0  0  0  0  0  0  0  0  0  0
   11.2602    0.6198   24.9946 C   0  0  0  0  0  0  0  0  0  0  0  0
   10.6147   -0.1195   24.5294 H   0  0  0  0  0  0  0  0  0  0  0  0
   11.0189    0.8608   26.0232 H   0  0  0  0  0  0  0  0  0  0  0  0
   13.3880    0.9335   25.4051 H   0  0  0  0  0  0  0  0  0  0  0  0
   13.1254   -0.0298   23.8982 H   0  0  0  0  0  0  0  0  0  0  0  0
   11.8051    2.7288   24.5345 H   0  0  0  0  0  0  0  0  0  0  0  0
   11.9939    2.6152   21.6569 C   0  0  0  0  0  0  0  0  0  0  0  0
   12.2243    1.1371   21.6284 C   0  0  0  0  0  0  0  0  0  0  0  0
   13.1852    0.7136   21.9216 H   0  0  0  0  0  0  0  0  0  0  0  0
   11.7105    0.5734   20.8556 H   0  0  0  0  0  0  0  0  0  0  0  0
   12.8086    3.2474   22.0078 H   0  0  0  0  0  0  0  0  0  0  0  0
   11.3852    3.0331   20.8535 H   0  0  0  0  0  0  0  0  0  0  0  0
    8.2486    2.4601   25.5377 C   0  0  0  0  0  0  0  0  0  0  0  0
    8.2673    3.4504   26.5062 C   0  0  0  0  0  0  0  0  0  0  0  0
    8.8421    4.7087   26.2288 C   0  0  0  0  0  0  0  0  0  0  0  0
    7.8256    3.2707   27.4851 H   0  0  0  0  0  0  0  0  0  0  0  0
    7.7758    1.5013   25.7336 H   0  0  0  0  0  0  0  0  0  0  0  0
    9.8548    4.1293   23.0180 H   0  0  0  0  0  0  0  0  0  0  0  0
   10.5669    6.3573   23.7348 H   0  0  0  0  0  0  0  0  0  0  0  0
   10.4646    8.1937   25.4365 H   0  0  0  0  0  0  0  0  0  0  0  0
    9.3363    7.6732   27.5526 H   0  0  0  0  0  0  0  0  0  0  0  0
  1  2  2  0
  2  3  1  0
  3  4  1  0
  4  5  2  0
  5  6  1  0
  6  7  2  0
  7  8  1  0
  8  9  1  0
  9 10  1  0
 10 11  2  0
 11 12  1  0
 12 13  1  0
 13 14  2  0
 14 15  1  0
 15 16  2  0
 16 17  1  0
 17 18  2  0
 18 19  1  0
 16 20  1  0
 15 21  1  0
 14 22  1  0
 12 23  1  0
 12 24  1  0
 11 25  1  0
 25 26  2  0
 26 27  1  0
 27 28  1  0
 28 29  1  0
 29 30  1  0
 30 31  1  0
 30 32  1  0
 29 33  1  0
 29 34  1  0
 28 35  1  0
 27 36  1  0
 36 37  1  0
 37 38  1  0
 37 39  1  0
 36 40  1  0
 36 41  1  0
  8 42  2  0
 42 43  1  0
 43 44  2  0
 43 45  1  0
 42 46  1  0
  7 47  1  0
  5 48  1  0
  4 49  1  0
  3 50  1  0
 44  2  1  0
 44  6  1  0
 26  9  1  0
 37 27  1  0
 18 13  1  0
 30 28  1  0
M  END
>  <cnnaffinity>  (1) 
-6.03948

>  <filename>  (1) 
O=c1[nH]ccc2cc(-n3nc(Cc4cccnc4)nc3C3(C4CC4)CC3)ccc12

$$$$
