
     RDKit          3D

 28 30  0  0  0  0  0  0  0  0999 V2000
    9.4215   -4.8131   26.1969 H   0  0  0  0  0  0  0  0  0  0  0  0
    9.0674   -4.9156   25.1767 C   0  0  0  0  0  0  0  0  0  0  0  0
    8.5363   -3.8266   24.5183 N   0  0  0  0  0  0  0  0  0  0  0  0
    8.1658   -4.1623   23.3239 C   0  0  0  0  0  0  0  0  0  0  0  0
    7.6564   -3.3070   22.3848 N   0  0  0  0  0  0  0  0  0  0  0  0
    7.3854   -3.6600   21.4816 H   0  0  0  0  0  0  0  0  0  0  0  0
    7.5623   -1.9229   22.3980 C   0  0  0  0  0  0  0  0  0  0  0  0
    7.0748   -1.4613   21.1991 N   0  0  0  0  0  0  0  0  0  0  0  0
    6.8876   -0.1602   21.0512 C   0  0  0  0  0  0  0  0  0  0  0  0
    6.3337    0.3541   19.7876 C   0  0  0  0  0  0  0  0  0  0  0  0
    6.7172   -0.1953   18.5502 C   0  0  0  0  0  0  0  0  0  0  0  0
    7.3978   -1.0451   18.5038 H   0  0  0  0  0  0  0  0  0  0  0  0
    6.3259    0.3067   17.3738 N   0  0  0  0  0  0  0  0  0  0  0  0
    5.4859    1.3514   17.3893 C   0  0  0  0  0  0  0  0  0  0  0  0
    5.1855    1.7433   16.4229 H   0  0  0  0  0  0  0  0  0  0  0  0
    5.0073    1.9385   18.5604 C   0  0  0  0  0  0  0  0  0  0  0  0
    4.3256    2.7787   18.5152 H   0  0  0  0  0  0  0  0  0  0  0  0
    5.4395    1.4394   19.7812 C   0  0  0  0  0  0  0  0  0  0  0  0
    5.1439    1.9106   20.7175 H   0  0  0  0  0  0  0  0  0  0  0  0
    7.2391    0.8533   22.1477 C   0  0  0  0  0  0  0  0  0  0  0  0
    7.1318    2.0707   22.1717 O   0  0  0  0  0  0  0  0  0  0  0  0
    7.8046    0.2572   23.2674 N   0  0  0  0  0  0  0  0  0  0  0  0
    8.0911    0.9828   23.9203 H   0  0  0  0  0  0  0  0  0  0  0  0
    7.9175   -1.1046   23.4473 C   0  0  0  0  0  0  0  0  0  0  0  0
    8.2429   -1.5066   24.3997 H   0  0  0  0  0  0  0  0  0  0  0  0
    8.4046   -5.8497   22.9225 S   0  0  0  0  0  0  0  0  0  0  0  0
    9.1082   -6.0786   24.4909 C   0  0  0  0  0  0  0  0  0  0  0  0
    9.5490   -7.0008   24.8258 H   0  0  0  0  0  0  0  0  0  0  0  0
  1  2  1  0
  2  3  1  0
  3  4  2  0
  4  5  1  0
  5  6  1  0
  5  7  1  0
  7  8  1  0
  8  9  2  0
  9 10  1  0
 10 11  2  0
 11 12  1  0
 11 13  1  0
 13 14  2  0
 14 15  1  0
 14 16  1  0
 16 17  1  0
 16 18  2  0
 18 19  1  0
  9 20  1  0
 20 21  2  0
 20 22  1  0
 22 23  1  0
 22 24  1  0
 24 25  1  0
  4 26  1  0
 26 27  1  0
 27 28  1  0
 27  2  2  0
 24  7  2  0
 18 10  1  0
M  END
>  <cnnaffinity>  (1) 
-5.11342

>  <filename>  (1) 
O=c1[nH]cc(Nc2nccs2)nc1-c1cccnc1

$$$$
