
     RDKit          3D

 36 38  0  0  0  0  0  0  0  0999 V2000
    4.9861    1.8363   16.9077 H   0  0  0  0  0  0  0  0  0  0  0  0
    5.4236    1.3265   17.7641 C   0  0  0  0  0  0  0  0  0  0  0  0
    6.5880    0.6965   17.5414 N   0  0  0  0  0  0  0  0  0  0  0  0
    7.1559    0.0740   18.5810 C   0  0  0  0  0  0  0  0  0  0  0  0
    8.0978   -0.4388   18.3722 H   0  0  0  0  0  0  0  0  0  0  0  0
    6.6079    0.0402   19.8808 C   0  0  0  0  0  0  0  0  0  0  0  0
    7.3351   -0.6320   21.0455 C   0  0  2  0  0  0  0  0  0  0  0  0
    8.2212   -1.1216   20.6341 H   0  0  0  0  0  0  0  0  0  0  0  0
    6.5504   -1.7480   21.7388 C   0  0  0  0  0  0  0  0  0  0  0  0
    6.0349   -2.7140   21.2233 O   0  0  0  0  0  0  0  0  0  0  0  0
    6.5106   -1.4938   23.0809 N   0  0  0  0  0  0  0  0  0  0  0  0
    5.7448   -1.9582   23.5520 H   0  0  0  0  0  0  0  0  0  0  0  0
    6.9011   -0.1335   23.4109 C   0  0  0  0  0  0  0  0  0  0  0  0
    7.4410   -0.1068   24.3677 H   0  0  0  0  0  0  0  0  0  0  0  0
    6.0377    0.5484   23.4885 H   0  0  0  0  0  0  0  0  0  0  0  0
    7.7711    0.3159   22.1978 C   0  0  1  0  0  0  0  0  0  0  0  0
    7.5180    1.3585   21.9561 H   0  0  0  0  0  0  0  0  0  0  0  0
    9.2183    0.2824   22.3458 N   0  0  0  0  0  0  0  0  0  0  0  0
    9.6041    1.1495   22.7045 H   0  0  0  0  0  0  0  0  0  0  0  0
    9.8861   -0.8817   22.9257 C   0  0  0  0  0  0  0  0  0  0  0  0
    9.3563   -1.7904   22.6066 H   0  0  0  0  0  0  0  0  0  0  0  0
    9.8503   -0.9015   24.0286 H   0  0  0  0  0  0  0  0  0  0  0  0
   11.3305   -0.9811   22.4436 C   0  0  0  0  0  0  0  0  0  0  0  0
   11.6207   -1.7485   21.3114 C   0  0  0  0  0  0  0  0  0  0  0  0
   10.8178   -2.2739   20.8092 H   0  0  0  0  0  0  0  0  0  0  0  0
   12.9267   -1.8296   20.8258 C   0  0  0  0  0  0  0  0  0  0  0  0
   13.1410   -2.4016   19.9255 H   0  0  0  0  0  0  0  0  0  0  0  0
   13.9717   -1.2336   21.4137 N   0  0  0  0  0  0  0  0  0  0  0  0
   13.7011   -0.4739   22.4838 C   0  0  0  0  0  0  0  0  0  0  0  0
   14.5540    0.0404   22.9209 H   0  0  0  0  0  0  0  0  0  0  0  0
   12.4196   -0.3081   23.0247 C   0  0  0  0  0  0  0  0  0  0  0  0
   12.3039    0.3192   23.9020 H   0  0  0  0  0  0  0  0  0  0  0  0
    5.3756    0.6733   20.0773 C   0  0  0  0  0  0  0  0  0  0  0  0
    4.8900    0.6438   21.0555 H   0  0  0  0  0  0  0  0  0  0  0  0
    4.7786    1.3331   19.0026 C   0  0  0  0  0  0  0  0  0  0  0  0
    3.8390    1.8580   19.1150 H   0  0  0  0  0  0  0  0  0  0  0  0
  1  2  1  0
  2  3  2  0
  3  4  1  0
  4  5  1  0
  4  6  2  0
  6  7  1  0
  7  8  1  6
  7  9  1  0
  9 10  2  0
  9 11  1  0
 11 12  1  0
 11 13  1  0
 13 14  1  0
 13 15  1  0
 13 16  1  0
 16 17  1  6
 16 18  1  0
 18 19  1  0
 18 20  1  0
 20 21  1  0
 20 22  1  0
 20 23  1  0
 23 24  2  0
 24 25  1  0
 24 26  1  0
 26 27  1  0
 26 28  2  0
 28 29  1  0
 29 30  1  0
 29 31  2  0
 31 32  1  0
  6 33  1  0
 33 34  1  0
 33 35  2  0
 35 36  1  0
 35  2  1  0
 16  7  1  0
 31 23  1  0
M  END
>  <cnnaffinity>  (1) 
-5.44726

>  <filename>  (1) 
O=C1NC[C@@H](NCc2ccncc2)[C@@H]1c1cccnc1

$$$$
