
     RDKit          3D

 31 33  0  0  0  0  0  0  0  0999 V2000
    4.9417    1.8770   16.8247 H   0  0  0  0  0  0  0  0  0  0  0  0
    5.4202    1.3679   17.6580 C   0  0  0  0  0  0  0  0  0  0  0  0
    6.5980    0.7851   17.3951 N   0  0  0  0  0  0  0  0  0  0  0  0
    7.2109    0.1608   18.4056 C   0  0  0  0  0  0  0  0  0  0  0  0
    8.1954   -0.2574   18.1943 H   0  0  0  0  0  0  0  0  0  0  0  0
    6.6700    0.0459   19.7007 C   0  0  0  0  0  0  0  0  0  0  0  0
    7.3496   -0.7623   20.7554 C   0  0  0  0  0  0  0  0  0  0  0  0
    6.6187   -1.6886   21.3431 N   0  0  0  0  0  0  0  0  0  0  0  0
    7.1946   -2.3976   22.2943 N   0  0  0  0  0  0  0  0  0  0  0  0
    6.4125   -3.3815   22.8251 O   0  0  0  0  0  0  0  0  0  0  0  0
    6.3584   -3.5008   24.2432 C   0  0  0  0  0  0  0  0  0  0  0  0
    5.9118   -4.7293   24.7486 C   0  0  0  0  0  0  0  0  0  0  0  0
    5.6465   -5.5329   24.0664 H   0  0  0  0  0  0  0  0  0  0  0  0
    5.8371   -4.8971   26.1354 C   0  0  0  0  0  0  0  0  0  0  0  0
    5.5160   -5.8539   26.5381 H   0  0  0  0  0  0  0  0  0  0  0  0
    6.1769   -3.8553   27.0073 C   0  0  0  0  0  0  0  0  0  0  0  0
    6.1407   -3.9941   28.0851 H   0  0  0  0  0  0  0  0  0  0  0  0
    6.5732   -2.6275   26.4721 C   0  0  0  0  0  0  0  0  0  0  0  0
    6.9894   -1.3255   27.5446 Cl  0  0  0  0  0  0  0  0  0  0  0  0
    6.6514   -2.4210   25.0926 C   0  0  0  0  0  0  0  0  0  0  0  0
    6.9265   -1.4646   24.6573 H   0  0  0  0  0  0  0  0  0  0  0  0
    8.5347   -2.4430   22.5598 C   0  0  0  0  0  0  0  0  0  0  0  0
    8.8199   -3.2563   23.2181 H   0  0  0  0  0  0  0  0  0  0  0  0
    9.3477   -1.5106   22.0401 C   0  0  0  0  0  0  0  0  0  0  0  0
   10.3947   -1.4247   22.2720 H   0  0  0  0  0  0  0  0  0  0  0  0
    8.7991   -0.5271   21.1253 C   0  0  0  0  0  0  0  0  0  0  0  0
    9.4939    0.3811   20.6749 O   0  0  0  0  0  0  0  0  0  0  0  0
    5.4522    0.6888   19.9623 C   0  0  0  0  0  0  0  0  0  0  0  0
    5.0324    0.6786   20.9693 H   0  0  0  0  0  0  0  0  0  0  0  0
    4.8133    1.3543   18.9177 C   0  0  0  0  0  0  0  0  0  0  0  0
    3.8626    1.8542   19.0628 H   0  0  0  0  0  0  0  0  0  0  0  0
  1  2  1  0
  2  3  2  0
  3  4  1  0
  4  5  1  0
  4  6  2  0
  6  7  1  0
  7  8  2  0
  8  9  1  0
  9 10  1  0
 10 11  1  0
 11 12  2  0
 12 13  1  0
 12 14  1  0
 14 15  1  0
 14 16  2  0
 16 17  1  0
 16 18  1  0
 18 19  1  0
 18 20  2  0
 20 21  1  0
  9 22  1  0
 22 23  1  0
 22 24  2  0
 24 25  1  0
 24 26  1  0
 26 27  2  0
  6 28  1  0
 28 29  1  0
 28 30  2  0
 30 31  1  0
 30  2  1  0
 26  7  1  0
 20 11  1  0
M  END
>  <cnnaffinity>  (1) 
-5.33329

>  <filename>  (1) 
O=c1ccn(Oc2cccc(Cl)c2)nc1-c1cccnc1

$$$$
