
     RDKit          3D

 31 33  0  0  0  0  0  0  0  0999 V2000
    4.9187    1.7957   16.9828 H   0  0  0  0  0  0  0  0  0  0  0  0
    5.3868    1.2989   17.8303 C   0  0  0  0  0  0  0  0  0  0  0  0
    6.5464    0.6730   17.5720 N   0  0  0  0  0  0  0  0  0  0  0  0
    7.1532    0.0531   18.5877 C   0  0  0  0  0  0  0  0  0  0  0  0
    8.1143   -0.4139   18.3877 H   0  0  0  0  0  0  0  0  0  0  0  0
    6.6300   -0.0050   19.8939 C   0  0  0  0  0  0  0  0  0  0  0  0
    7.3560   -0.6842   20.9029 N   0  0  0  0  0  0  0  0  0  0  0  0
    8.7589   -0.6615   21.1345 C   0  0  0  0  0  0  0  0  0  0  0  0
    9.5757   -0.0511   20.4632 O   0  0  0  0  0  0  0  0  0  0  0  0
    8.9246   -1.4984   22.2951 C   0  0  0  0  0  0  0  0  0  0  0  0
    9.8854   -1.6769   22.7408 H   0  0  0  0  0  0  0  0  0  0  0  0
    7.7123   -1.9420   22.7157 C   0  0  0  0  0  0  0  0  0  0  0  0
    7.3802   -2.8187   23.8625 C   0  0  0  0  0  0  0  0  0  0  0  0
    6.1058   -2.8386   24.4538 C   0  0  0  0  0  0  0  0  0  0  0  0
    5.3327   -2.1925   24.0731 H   0  0  0  0  0  0  0  0  0  0  0  0
    5.8231   -3.6577   25.5500 C   0  0  0  0  0  0  0  0  0  0  0  0
    4.8246   -3.6539   25.9820 H   0  0  0  0  0  0  0  0  0  0  0  0
    6.8171   -4.4756   26.0870 C   0  0  0  0  0  0  0  0  0  0  0  0
    6.6213   -5.1212   26.9389 H   0  0  0  0  0  0  0  0  0  0  0  0
    8.0914   -4.4516   25.5041 C   0  0  0  0  0  0  0  0  0  0  0  0
    9.1597   -5.3121   26.0720 N   0  0  0  0  0  4  0  0  0  0  0  0
   10.2666   -5.2797   25.5644 O   0  0  0  0  0  0  0  0  0  0  0  0
    8.8581   -6.0088   27.0244 O   0  0  0  0  0  1  0  0  0  0  0  0
    8.3811   -3.6404   24.4069 C   0  0  0  0  0  0  0  0  0  0  0  0
    9.3796   -3.6555   23.9822 H   0  0  0  0  0  0  0  0  0  0  0  0
    6.7566   -1.4115   21.9070 N   0  0  0  0  0  0  0  0  0  0  0  0
    5.7702   -1.6103   21.8953 H   0  0  0  0  0  0  0  0  0  0  0  0
    5.4200    0.6496   20.1567 C   0  0  0  0  0  0  0  0  0  0  0  0
    5.0128    0.6441   21.1679 H   0  0  0  0  0  0  0  0  0  0  0  0
    4.7964    1.3168   19.1004 C   0  0  0  0  0  0  0  0  0  0  0  0
    3.8673    1.8510   19.2502 H   0  0  0  0  0  0  0  0  0  0  0  0
  1  2  1  0
  2  3  2  0
  3  4  1  0
  4  5  1  0
  4  6  2  0
  6  7  1  0
  7  8  1  0
  8  9  2  0
  8 10  1  0
 10 11  1  0
 10 12  2  0
 12 13  1  0
 13 14  2  0
 14 15  1  0
 14 16  1  0
 16 17  1  0
 16 18  2  0
 18 19  1  0
 18 20  1  0
 20 21  1  0
 21 22  2  0
 21 23  1  0
 20 24  2  0
 24 25  1  0
 12 26  1  0
 26 27  1  0
  6 28  1  0
 28 29  1  0
 28 30  2  0
 30 31  1  0
 30  2  1  0
 26  7  1  0
 24 13  1  0
M  CHG  2  21   1  23  -1
M  END
>  <cnnaffinity>  (1) 
-5.22085

>  <filename>  (1) 
O=c1cc(-c2cccc([N+](=O)[O-])c2)[nH]n1-c1cccnc1

$$$$
