
     RDKit          3D

 35 37  0  0  0  0  0  0  0  0999 V2000
    5.5580   -2.6679   20.3297 O   0  0  0  0  0  0  0  0  0  0  0  0
    6.5324   -2.1206   20.8082 C   0  0  0  0  0  0  0  0  0  0  0  0
    7.1450   -2.6986   22.1226 C   0  0  0  0  0  0  0  0  0  0  0  0
    8.1560   -1.8943   22.8482 N   0  0  0  0  0  0  0  0  0  0  0  0
    8.4586   -2.1825   24.1535 C   0  0  0  0  0  0  0  0  0  0  0  0
    8.2814   -3.4421   24.5593 N   0  0  0  0  0  0  0  0  0  0  0  0
    8.6248   -3.7317   25.8155 C   0  0  0  0  0  0  0  0  0  0  0  0
    8.5771   -5.2235   26.2783 C   0  0  0  0  0  0  0  0  0  0  0  0
    8.3250   -5.3403   27.5907 F   0  0  0  0  0  0  0  0  0  0  0  0
    9.7634   -5.8202   26.0423 F   0  0  0  0  0  0  0  0  0  0  0  0
    7.6360   -5.9309   25.6350 F   0  0  0  0  0  0  0  0  0  0  0  0
    9.0635   -2.8464   26.7153 N   0  0  0  0  0  0  0  0  0  0  0  0
    9.1915   -1.6045   26.2913 C   0  0  0  0  0  0  0  0  0  0  0  0
    9.8120   -0.4643   27.4353 Cl  0  0  0  0  0  0  0  0  0  0  0  0
    8.9184   -1.1782   25.0107 C   0  0  0  0  0  0  0  0  0  0  0  0
    9.0488   -0.1619   24.6867 H   0  0  0  0  0  0  0  0  0  0  0  0
    8.6378   -0.6659   22.1980 C   0  0  0  0  0  0  0  0  0  0  0  0
    8.5670   -0.7514   20.6654 C   0  0  0  0  0  0  0  0  0  0  0  0
    7.1903   -1.0283   20.2319 N   0  0  0  0  0  0  0  0  0  0  0  0
    6.5454   -0.1360   19.2990 C   0  0  0  0  0  0  0  0  0  0  0  0
    5.3473    0.5094   19.6351 C   0  0  0  0  0  0  0  0  0  0  0  0
    4.7786    1.4011   18.7176 C   0  0  0  0  0  0  0  0  0  0  0  0
    5.4117    1.6207   17.4902 C   0  0  0  0  0  0  0  0  0  0  0  0
    6.5739    1.0340   17.1622 N   0  0  0  0  0  0  0  0  0  0  0  0
    7.1300    0.2031   18.0550 C   0  0  0  0  0  0  0  0  0  0  0  0
    8.0926   -0.2188   17.7684 H   0  0  0  0  0  0  0  0  0  0  0  0
    4.9690    2.2899   16.7505 H   0  0  0  0  0  0  0  0  0  0  0  0
    3.8658    1.9359   18.9460 H   0  0  0  0  0  0  0  0  0  0  0  0
    4.8999    0.3413   20.6138 H   0  0  0  0  0  0  0  0  0  0  0  0
    9.2707   -1.5110   20.2877 H   0  0  0  0  0  0  0  0  0  0  0  0
    8.8718    0.2173   20.2552 H   0  0  0  0  0  0  0  0  0  0  0  0
    9.6802   -0.4895   22.4812 H   0  0  0  0  0  0  0  0  0  0  0  0
    8.0323    0.1992   22.5064 H   0  0  0  0  0  0  0  0  0  0  0  0
    7.5561   -3.6726   21.8294 H   0  0  0  0  0  0  0  0  0  0  0  0
    6.2863   -2.9307   22.7676 H   0  0  0  0  0  0  0  0  0  0  0  0
  1  2  2  0
  2  3  1  0
  3  4  1  0
  4  5  1  0
  5  6  2  0
  6  7  1  0
  7  8  1  0
  8  9  1  0
  8 10  1  0
  8 11  1  0
  7 12  2  0
 12 13  1  0
 13 14  1  0
 13 15  2  0
 15 16  1  0
  4 17  1  0
 17 18  1  0
 18 19  1  0
 19 20  1  0
 20 21  2  0
 21 22  1  0
 22 23  2  0
 23 24  1  0
 24 25  2  0
 25 26  1  0
 23 27  1  0
 22 28  1  0
 21 29  1  0
 18 30  1  0
 18 31  1  0
 17 32  1  0
 17 33  1  0
  3 34  1  0
  3 35  1  0
 19  2  1  0
 25 20  1  0
 15  5  1  0
M  END
>  <cnnaffinity>  (1) 
-4.96633

>  <filename>  (1) 
O=C1CN(c2cc(Cl)nc(C(F)(F)F)n2)CCN1c1cccnc1

$$$$
