
     RDKit          3D

 32 34  0  0  0  0  0  0  0  0999 V2000
    4.9594    1.7706   17.0610 H   0  0  0  0  0  0  0  0  0  0  0  0
    5.4337    1.2562   17.8926 C   0  0  0  0  0  0  0  0  0  0  0  0
    6.5926    0.6387   17.6130 N   0  0  0  0  0  0  0  0  0  0  0  0
    7.2202    0.0133   18.6152 C   0  0  0  0  0  0  0  0  0  0  0  0
    8.1770   -0.4517   18.3864 H   0  0  0  0  0  0  0  0  0  0  0  0
    6.7040   -0.0646   19.9324 C   0  0  0  0  0  0  0  0  0  0  0  0
    7.4050   -0.7666   20.9901 N   0  0  0  0  0  0  0  0  0  0  0  0
    6.8394   -1.7075   21.8740 C   0  0  0  0  0  0  0  0  0  0  0  0
    5.7546   -2.2179   21.7740 O   0  0  0  0  0  0  0  0  0  0  0  0
    7.7931   -2.0001   22.8272 N   0  0  0  0  0  0  0  0  0  0  0  0
    7.5625   -2.8841   23.8796 C   0  0  0  0  0  0  0  0  0  0  0  0
    8.6110   -3.6401   24.2090 N   0  0  0  0  0  0  0  0  0  0  0  0
    8.4895   -4.4791   25.2529 C   0  0  0  0  0  0  0  0  0  0  0  0
    9.6796   -5.3731   25.6885 C   0  0  0  0  0  0  0  0  0  0  0  0
    9.3242   -6.6766   25.6568 F   0  0  0  0  0  0  0  0  0  0  0  0
   10.0284   -5.1033   26.9669 F   0  0  0  0  0  0  0  0  0  0  0  0
   10.7782   -5.2422   24.9429 F   0  0  0  0  0  0  0  0  0  0  0  0
    7.3127   -4.5752   26.0041 C   0  0  0  0  0  0  0  0  0  0  0  0
    7.2584   -5.2635   26.8393 H   0  0  0  0  0  0  0  0  0  0  0  0
    6.2269   -3.7660   25.6552 C   0  0  0  0  0  0  0  0  0  0  0  0
    5.3087   -3.8177   26.2354 H   0  0  0  0  0  0  0  0  0  0  0  0
    6.3399   -2.9077   24.5658 C   0  0  0  0  0  0  0  0  0  0  0  0
    5.5296   -2.2729   24.2369 H   0  0  0  0  0  0  0  0  0  0  0  0
    9.1045   -1.5688   22.3789 C   0  0  0  0  0  0  0  0  0  0  0  0
    9.6709   -1.0150   23.1281 H   0  0  0  0  0  0  0  0  0  0  0  0
    9.7338   -2.4012   22.0503 H   0  0  0  0  0  0  0  0  0  0  0  0
    8.7795   -0.7009   21.1949 C   0  0  0  0  0  0  0  0  0  0  0  0
    9.5660   -0.0836   20.5232 O   0  0  0  0  0  0  0  0  0  0  0  0
    5.4892    0.5788   20.2034 C   0  0  0  0  0  0  0  0  0  0  0  0
    5.0667    0.5371   21.2065 H   0  0  0  0  0  0  0  0  0  0  0  0
    4.8451    1.2632   19.1613 C   0  0  0  0  0  0  0  0  0  0  0  0
    3.9121    1.8025   19.3165 H   0  0  0  0  0  0  0  0  0  0  0  0
  1  2  1  0
  2  3  2  0
  3  4  1  0
  4  5  1  0
  4  6  2  0
  6  7  1  0
  7  8  1  0
  8  9  2  0
  8 10  1  0
 10 11  1  0
 11 12  2  0
 12 13  1  0
 13 14  1  0
 14 15  1  0
 14 16  1  0
 14 17  1  0
 13 18  2  0
 18 19  1  0
 18 20  1  0
 20 21  1  0
 20 22  2  0
 22 23  1  0
 10 24  1  0
 24 25  1  0
 24 26  1  0
 24 27  1  0
 27 28  2  0
  6 29  1  0
 29 30  1  0
 29 31  2  0
 31 32  1  0
 31  2  1  0
 27  7  1  0
 22 11  1  0
M  END
>  <cnnaffinity>  (1) 
-5.03035

>  <filename>  (1) 
O=C1CN(c2cccc(C(F)(F)F)n2)C(=O)N1c1cccnc1

$$$$
