
     RDKit          3D

 36 38  0  0  0  0  0  0  0  0999 V2000
    4.9919    1.7633   16.8999 H   0  0  0  0  0  0  0  0  0  0  0  0
    5.4343    1.2799   17.7680 C   0  0  0  0  0  0  0  0  0  0  0  0
    6.6023    0.6504   17.5624 N   0  0  0  0  0  0  0  0  0  0  0  0
    7.1702    0.0388   18.6073 C   0  0  0  0  0  0  0  0  0  0  0  0
    8.1188   -0.4586   18.3973 H   0  0  0  0  0  0  0  0  0  0  0  0
    6.6290    0.0460   19.9064 C   0  0  0  0  0  0  0  0  0  0  0  0
    7.3286   -0.5850   21.0354 C   0  0  0  0  0  0  0  0  0  0  0  0
    7.5219    0.0083   22.2591 C   0  0  0  0  0  0  0  0  0  0  0  0
    7.1525    1.0109   22.4319 H   0  0  0  0  0  0  0  0  0  0  0  0
    8.2155   -0.6891   23.2786 C   0  0  0  0  0  0  0  0  0  0  0  0
    8.3772   -0.2029   24.2445 H   0  0  0  0  0  0  0  0  0  0  0  0
    8.6807   -1.9723   23.0807 C   0  0  0  0  0  0  0  0  0  0  0  0
    9.4417   -2.7775   24.0882 C   0  0  0  0  0  0  0  0  0  0  0  0
   10.4662   -2.9855   23.7404 H   0  0  0  0  0  0  0  0  0  0  0  0
    9.5799   -2.2295   25.0326 H   0  0  0  0  0  0  0  0  0  0  0  0
    8.8151   -4.0634   24.3185 N   0  0  0  0  0  0  0  0  0  0  0  0
    8.7985   -4.5462   23.4266 H   0  0  0  0  0  0  0  0  0  0  0  0
    7.5569   -4.1813   24.9212 C   0  0  0  0  0  0  0  0  0  0  0  0
    6.8708   -3.1397   25.5736 C   0  0  0  0  0  0  0  0  0  0  0  0
    7.3213   -2.1566   25.6345 H   0  0  0  0  0  0  0  0  0  0  0  0
    5.5921   -3.3620   26.0980 C   0  0  0  0  0  0  0  0  0  0  0  0
    5.0597   -2.5336   26.5640 H   0  0  0  0  0  0  0  0  0  0  0  0
    4.9952   -4.6227   26.0173 C   0  0  0  0  0  0  0  0  0  0  0  0
    4.0066   -4.7863   26.4379 H   0  0  0  0  0  0  0  0  0  0  0  0
    5.6850   -5.6730   25.3970 C   0  0  0  0  0  0  0  0  0  0  0  0
    5.2301   -6.6596   25.3281 H   0  0  0  0  0  0  0  0  0  0  0  0
    6.9484   -5.4468   24.8518 C   0  0  0  0  0  0  0  0  0  0  0  0
    7.5078   -6.2291   24.3482 H   0  0  0  0  0  0  0  0  0  0  0  0
    8.3511   -2.6596   21.8388 C   0  0  0  0  0  0  0  0  0  0  0  0
    8.5102   -3.8492   21.5770 O   0  0  0  0  0  0  0  0  0  0  0  0
    7.8230   -1.8539   20.8444 N   0  0  0  0  0  0  0  0  0  0  0  0
    7.6327   -2.3999   20.0241 H   0  0  0  0  0  0  0  0  0  0  0  0
    5.4081    0.7171   20.1002 C   0  0  0  0  0  0  0  0  0  0  0  0
    4.9458    0.7402   21.0871 H   0  0  0  0  0  0  0  0  0  0  0  0
    4.7959    1.3315   19.0104 C   0  0  0  0  0  0  0  0  0  0  0  0
    3.8522    1.8560   19.1088 H   0  0  0  0  0  0  0  0  0  0  0  0
  1  2  1  0
  2  3  2  0
  3  4  1  0
  4  5  1  0
  4  6  2  0
  6  7  1  0
  7  8  2  0
  8  9  1  0
  8 10  1  0
 10 11  1  0
 10 12  2  0
 12 13  1  0
 13 14  1  0
 13 15  1  0
 13 16  1  0
 16 17  1  0
 16 18  1  0
 18 19  2  0
 19 20  1  0
 19 21  1  0
 21 22  1  0
 21 23  2  0
 23 24  1  0
 23 25  1  0
 25 26  1  0
 25 27  2  0
 27 28  1  0
 12 29  1  0
 29 30  2  0
 29 31  1  0
 31 32  1  0
  6 33  1  0
 33 34  1  0
 33 35  2  0
 35 36  1  0
 35  2  1  0
 31  7  1  0
 27 18  1  0
M  END
>  <cnnaffinity>  (1) 
-5.17138

>  <filename>  (1) 
O=c1[nH]c(-c2cccnc2)ccc1CNc1ccccc1

$$$$
