
     RDKit          3D

 33 35  0  0  0  0  0  0  0  0999 V2000
    4.9906    1.8456   16.9608 H   0  0  0  0  0  0  0  0  0  0  0  0
    5.4170    1.3029   17.8051 C   0  0  0  0  0  0  0  0  0  0  0  0
    6.5669    0.6531   17.5725 N   0  0  0  0  0  0  0  0  0  0  0  0
    7.1133    0.0053   18.6094 C   0  0  0  0  0  0  0  0  0  0  0  0
    8.0531   -0.5013   18.3982 H   0  0  0  0  0  0  0  0  0  0  0  0
    6.5701   -0.0503   19.9022 C   0  0  0  0  0  0  0  0  0  0  0  0
    7.3606   -0.7176   21.0078 C   0  0  2  0  0  0  0  0  0  0  0  0
    8.0307   -1.4690   20.5689 H   0  0  0  0  0  0  0  0  0  0  0  0
    6.5103   -1.4182   21.9168 O   0  0  0  0  0  0  0  0  0  0  0  0
    6.8293   -1.1042   23.2012 C   0  0  0  0  0  0  0  0  0  0  0  0
    6.4206   -1.6836   24.1681 O   0  0  0  0  0  0  0  0  0  0  0  0
    7.6832   -0.0541   23.1791 N   0  0  0  0  0  0  0  0  0  0  0  0
    7.9476    0.3502   24.0599 H   0  0  0  0  0  0  0  0  0  0  0  0
    8.1619    0.2993   21.8763 C   0  0  1  0  0  0  0  0  0  0  0  0
    7.8710    1.3313   21.6177 H   0  0  0  0  0  0  0  0  0  0  0  0
    9.6971    0.2039   21.7408 C   0  0  0  0  0  0  0  0  0  0  0  0
   10.0356   -0.7792   22.0924 H   0  0  0  0  0  0  0  0  0  0  0  0
    9.9677    0.2785   20.6804 H   0  0  0  0  0  0  0  0  0  0  0  0
   10.3708    1.3049   22.5247 C   0  0  0  0  0  0  0  0  0  0  0  0
   10.7917    1.0903   23.8456 C   0  0  0  0  0  0  0  0  0  0  0  0
   10.7013    0.0935   24.2800 H   0  0  0  0  0  0  0  0  0  0  0  0
   11.3083    2.1450   24.6038 C   0  0  0  0  0  0  0  0  0  0  0  0
   11.5761    2.0100   25.6385 H   0  0  0  0  0  0  0  0  0  0  0  0
   11.4363    3.4050   24.0225 C   0  0  0  0  0  0  0  0  0  0  0  0
   11.9756    4.4122   24.7322 F   0  0  0  0  0  0  0  0  0  0  0  0
   11.0129    3.6587   22.7217 C   0  0  0  0  0  0  0  0  0  0  0  0
   11.0936    4.6637   22.3158 H   0  0  0  0  0  0  0  0  0  0  0  0
   10.4661    2.5992   21.9912 C   0  0  0  0  0  0  0  0  0  0  0  0
   10.0795    2.7825   20.9934 H   0  0  0  0  0  0  0  0  0  0  0  0
    5.3620    0.6279   20.1216 C   0  0  0  0  0  0  0  0  0  0  0  0
    4.8938    0.6321   21.1076 H   0  0  0  0  0  0  0  0  0  0  0  0
    4.7769    1.3069   19.0493 C   0  0  0  0  0  0  0  0  0  0  0  0
    3.8545    1.8650   19.1688 H   0  0  0  0  0  0  0  0  0  0  0  0
  1  2  1  0
  2  3  2  0
  3  4  1  0
  4  5  1  0
  4  6  2  0
  6  7  1  0
  7  8  1  6
  7  9  1  0
  9 10  1  0
 10 11  2  0
 10 12  1  0
 12 13  1  0
 12 14  1  0
 14 15  1  6
 14 16  1  0
 16 17  1  0
 16 18  1  0
 16 19  1  0
 19 20  2  0
 20 21  1  0
 20 22  1  0
 22 23  1  0
 22 24  2  0
 24 25  1  0
 24 26  1  0
 26 27  1  0
 26 28  2  0
 28 29  1  0
  6 30  1  0
 30 31  1  0
 30 32  2  0
 32 33  1  0
 32  2  1  0
 14  7  1  0
 28 19  1  0
M  END
>  <cnnaffinity>  (1) 
-4.75174

>  <filename>  (1) 
O=C1N[C@@H](Cc2ccc(F)cc2)[C@H](c2cccnc2)O1

$$$$
