
     RDKit          3D

 29 31  0  0  0  0  0  0  0  0999 V2000
    5.0145    1.9310   16.9038 H   0  0  0  0  0  0  0  0  0  0  0  0
    5.4883    1.3763   17.7097 C   0  0  0  0  0  0  0  0  0  0  0  0
    6.6618    0.7873   17.4190 N   0  0  0  0  0  0  0  0  0  0  0  0
    7.2822    0.1094   18.3908 C   0  0  0  0  0  0  0  0  0  0  0  0
    8.2477   -0.3297   18.1418 H   0  0  0  0  0  0  0  0  0  0  0  0
    6.7334   -0.0577   19.6812 C   0  0  0  0  0  0  0  0  0  0  0  0
    7.3746   -0.8318   20.6793 N   0  0  0  0  0  0  0  0  0  0  0  0
    6.8094   -1.7652   21.5702 C   0  0  0  0  0  0  0  0  0  0  0  0
    5.6657   -2.1798   21.5030 O   0  0  0  0  0  0  0  0  0  0  0  0
    7.9249   -2.1096   22.4915 C   0  0  0  0  0  0  0  0  0  0  0  0
    7.7769   -3.0114   23.6563 C   0  0  0  0  0  0  0  0  0  0  0  0
    6.8192   -4.0440   23.5826 C   0  0  0  0  0  0  0  0  0  0  0  0
    6.1742   -4.0617   22.7152 H   0  0  0  0  0  0  0  0  0  0  0  0
    6.6912   -5.0032   24.5862 C   0  0  0  0  0  0  0  0  0  0  0  0
    5.9136   -5.7571   24.5214 H   0  0  0  0  0  0  0  0  0  0  0  0
    7.5480   -4.9869   25.6841 C   0  0  0  0  0  0  0  0  0  0  0  0
    7.4941   -5.7421   26.4657 H   0  0  0  0  0  0  0  0  0  0  0  0
    8.4846   -3.9595   25.8064 C   0  0  0  0  0  0  0  0  0  0  0  0
    9.5155   -4.0169   27.1992 Cl  0  0  0  0  0  0  0  0  0  0  0  0
    8.5623   -2.9387   24.8392 C   0  0  0  0  0  0  0  0  0  0  0  0
    9.5435   -1.5491   25.1763 Cl  0  0  0  0  0  0  0  0  0  0  0  0
    9.0153   -1.4516   22.0285 C   0  0  0  0  0  0  0  0  0  0  0  0
   10.0164   -1.4316   22.4351 H   0  0  0  0  0  0  0  0  0  0  0  0
    8.7588   -0.7425   20.8567 N   0  0  0  0  0  0  0  0  0  0  0  0
    9.0910    0.2171   20.8540 H   0  0  0  0  0  0  0  0  0  0  0  0
    5.5134    0.5663   19.9747 C   0  0  0  0  0  0  0  0  0  0  0  0
    5.0921    0.4631   20.9733 H   0  0  0  0  0  0  0  0  0  0  0  0
    4.8846    1.3058   18.9708 C   0  0  0  0  0  0  0  0  0  0  0  0
    3.9496    1.8263   19.1544 H   0  0  0  0  0  0  0  0  0  0  0  0
  1  2  1  0
  2  3  2  0
  3  4  1  0
  4  5  1  0
  4  6  2  0
  6  7  1  0
  7  8  1  0
  8  9  2  0
  8 10  1  0
 10 11  1  0
 11 12  2  0
 12 13  1  0
 12 14  1  0
 14 15  1  0
 14 16  2  0
 16 17  1  0
 16 18  1  0
 18 19  1  0
 18 20  2  0
 20 21  1  0
 10 22  2  0
 22 23  1  0
 22 24  1  0
 24 25  1  0
  6 26  1  0
 26 27  1  0
 26 28  2  0
 28 29  1  0
 28  2  1  0
 24  7  1  0
 20 11  1  0
M  END
>  <cnnaffinity>  (1) 
-5.62279

>  <filename>  (1) 
O=c1c(-c2cccc(Cl)c2Cl)c[nH]n1-c1cccnc1

$$$$
