
     RDKit          3D

 34 36  0  0  0  0  0  0  0  0999 V2000
    6.7962    1.1724   22.3647 H   0  0  0  0  0  0  0  0  0  0  0  0
    7.2188    0.1995   22.1991 C   0  0  0  0  0  0  0  0  0  0  0  0
    7.1564   -0.3831   20.9921 C   0  0  0  0  0  0  0  0  0  0  0  0
    6.4910    0.2231   19.8273 C   0  0  0  0  0  0  0  0  0  0  0  0
    7.0737    0.1917   18.5489 C   0  0  0  0  0  0  0  0  0  0  0  0
    8.0484   -0.2677   18.3988 H   0  0  0  0  0  0  0  0  0  0  0  0
    6.5214    0.7417   17.4621 N   0  0  0  0  0  0  0  0  0  0  0  0
    5.3435    1.3642   17.6126 C   0  0  0  0  0  0  0  0  0  0  0  0
    4.9270    1.8200   16.7187 H   0  0  0  0  0  0  0  0  0  0  0  0
    4.6779    1.4646   18.8389 C   0  0  0  0  0  0  0  0  0  0  0  0
    3.7361    1.9939   18.8982 H   0  0  0  0  0  0  0  0  0  0  0  0
    5.2680    0.9002   19.9663 C   0  0  0  0  0  0  0  0  0  0  0  0
    4.7947    0.9691   20.9472 H   0  0  0  0  0  0  0  0  0  0  0  0
    7.7426   -1.6266   20.8129 N   0  0  0  0  0  0  0  0  0  0  0  0
    7.4867   -2.2388   20.0612 H   0  0  0  0  0  0  0  0  0  0  0  0
    8.3623   -2.3368   21.8198 C   0  0  0  0  0  0  0  0  0  0  0  0
    8.6756   -3.4962   21.6350 O   0  0  0  0  0  0  0  0  0  0  0  0
    8.6145   -1.6294   22.9743 N   0  0  0  0  0  0  0  0  0  0  0  0
    9.8562   -1.9204   23.6744 C   0  0  0  0  0  0  0  0  0  0  0  0
    9.9578   -3.0115   23.7287 H   0  0  0  0  0  0  0  0  0  0  0  0
    9.8004   -1.5482   24.7046 H   0  0  0  0  0  0  0  0  0  0  0  0
   11.0870   -1.3454   22.9872 C   0  0  0  0  0  0  0  0  0  0  0  0
   11.4904   -0.0102   23.0767 C   0  0  0  0  0  0  0  0  0  0  0  0
   10.8635    0.7197   23.5761 H   0  0  0  0  0  0  0  0  0  0  0  0
   12.7237    0.3685   22.5288 C   0  0  0  0  0  0  0  0  0  0  0  0
   13.0430    1.4057   22.5949 H   0  0  0  0  0  0  0  0  0  0  0  0
   13.5596   -0.4872   21.9187 N   0  0  0  0  0  0  0  0  0  0  0  0
   13.1570   -1.7578   21.7983 C   0  0  0  0  0  0  0  0  0  0  0  0
   13.8631   -2.4460   21.3292 H   0  0  0  0  0  0  0  0  0  0  0  0
   11.9333   -2.2118   22.2960 C   0  0  0  0  0  0  0  0  0  0  0  0
   11.6181   -3.2380   22.2195 H   0  0  0  0  0  0  0  0  0  0  0  0
    7.7665   -0.5157   23.3866 C   0  0  0  0  0  0  0  0  0  0  0  0
    6.9421   -0.8670   24.0416 H   0  0  0  0  0  0  0  0  0  0  0  0
    8.3417    0.1876   24.0106 H   0  0  0  0  0  0  0  0  0  0  0  0
  1  2  1  0
  2  3  2  0
  3  4  1  0
  4  5  2  0
  5  6  1  0
  5  7  1  0
  7  8  2  0
  8  9  1  0
  8 10  1  0
 10 11  1  0
 10 12  2  0
 12 13  1  0
  3 14  1  0
 14 15  1  0
 14 16  1  0
 16 17  2  0
 16 18  1  0
 18 19  1  0
 19 20  1  0
 19 21  1  0
 19 22  1  0
 22 23  2  0
 23 24  1  0
 23 25  1  0
 25 26  1  0
 25 27  2  0
 27 28  1  0
 28 29  1  0
 28 30  2  0
 30 31  1  0
 18 32  1  0
 32 33  1  0
 32 34  1  0
 32  2  1  0
 12  4  1  0
 30 22  1  0
M  END
>  <cnnaffinity>  (1) 
-5.60985

>  <filename>  (1) 
O=C1NC(c2cccnc2)=CCN1Cc1ccncc1

$$$$
