
     RDKit          3D

 34 37  0  0  0  0  0  0  0  0999 V2000
    4.9903    1.7565   17.1017 H   0  0  0  0  0  0  0  0  0  0  0  0
    5.4432    1.2303   17.9376 C   0  0  0  0  0  0  0  0  0  0  0  0
    6.5883    0.5824   17.6676 N   0  0  0  0  0  0  0  0  0  0  0  0
    7.1924   -0.0576   18.6737 C   0  0  0  0  0  0  0  0  0  0  0  0
    8.1351   -0.5587   18.4587 H   0  0  0  0  0  0  0  0  0  0  0  0
    6.6791   -0.0969   19.9861 C   0  0  0  0  0  0  0  0  0  0  0  0
    7.3786   -0.7732   21.0298 N   0  0  0  0  0  0  0  0  0  0  0  0
    6.6958   -1.3986   22.0404 N   0  0  0  0  0  0  0  0  0  0  0  0
    7.5723   -1.9151   22.8676 C   0  0  0  0  0  0  0  0  0  0  0  0
    7.1389   -2.6424   24.0650 C   0  0  0  0  0  0  0  0  0  0  0  0
    5.7904   -2.8623   24.3175 C   0  0  0  0  0  0  0  0  0  0  0  0
    5.0726   -2.6880   23.5245 H   0  0  0  0  0  0  0  0  0  0  0  0
    5.3252   -3.2995   25.5769 C   0  0  0  0  0  0  0  0  0  0  0  0
    4.2526   -3.3753   25.7342 H   0  0  0  0  0  0  0  0  0  0  0  0
    6.2140   -3.6278   26.5800 C   0  0  0  0  0  0  0  0  0  0  0  0
    5.8653   -3.9027   27.5765 H   0  0  0  0  0  0  0  0  0  0  0  0
    7.6068   -3.6512   26.2883 C   0  0  0  0  0  0  0  0  0  0  0  0
    8.5587   -4.2462   27.1674 C   0  0  0  0  0  0  0  0  0  0  0  0
    8.2224   -4.6300   28.1283 H   0  0  0  0  0  0  0  0  0  0  0  0
    9.8631   -4.3732   26.7613 C   0  0  0  0  0  0  0  0  0  0  0  0
   10.6102   -4.8935   27.3500 H   0  0  0  0  0  0  0  0  0  0  0  0
   10.2339   -3.8310   25.5037 C   0  0  0  0  0  0  0  0  0  0  0  0
   11.2596   -3.9133   25.1617 H   0  0  0  0  0  0  0  0  0  0  0  0
    9.4139   -3.2079   24.6932 N   0  0  0  0  0  0  0  0  0  0  0  0
    8.0883   -3.1513   25.0257 C   0  0  0  0  0  0  0  0  0  0  0  0
    8.9768   -1.6345   22.4323 C   0  0  0  0  0  0  0  0  0  0  0  0
    9.5631   -1.0757   23.1676 H   0  0  0  0  0  0  0  0  0  0  0  0
    9.5450   -2.5461   22.2229 H   0  0  0  0  0  0  0  0  0  0  0  0
    8.7632   -0.8367   21.1821 C   0  0  0  0  0  0  0  0  0  0  0  0
    9.5952   -0.3623   20.4450 O   0  0  0  0  0  0  0  0  0  0  0  0
    5.4637    0.5493   20.2502 C   0  0  0  0  0  0  0  0  0  0  0  0
    5.0412    0.4938   21.2530 H   0  0  0  0  0  0  0  0  0  0  0  0
    4.8439    1.2382   19.2034 C   0  0  0  0  0  0  0  0  0  0  0  0
    3.9188    1.7861   19.3537 H   0  0  0  0  0  0  0  0  0  0  0  0
  1  2  1  0
  2  3  2  0
  3  4  1  0
  4  5  1  0
  4  6  2  0
  6  7  1  0
  7  8  1  0
  8  9  2  0
  9 10  1  0
 10 11  2  0
 11 12  1  0
 11 13  1  0
 13 14  1  0
 13 15  2  0
 15 16  1  0
 15 17  1  0
 17 18  2  0
 18 19  1  0
 18 20  1  0
 20 21  1  0
 20 22  2  0
 22 23  1  0
 22 24  1  0
 24 25  2  0
  9 26  1  0
 26 27  1  0
 26 28  1  0
 26 29  1  0
 29 30  2  0
  6 31  1  0
 31 32  1  0
 31 33  2  0
 33 34  1  0
 33  2  1  0
 29  7  1  0
 25 10  1  0
 25 17  1  0
M  END
>  <cnnaffinity>  (1) 
-5.07912

>  <filename>  (1) 
O=C1CC(c2cccc3cccnc23)=NN1c1cccnc1

$$$$
