
     RDKit          3D

 29 31  0  0  0  0  0  0  0  0999 V2000
    9.8365   -1.4120   23.1113 O   0  0  0  0  0  0  0  0  0  0  0  0
    8.8405   -1.3007   22.4465 C   0  0  0  0  0  0  0  0  0  0  0  0
    7.6663   -1.9689   22.6381 O   0  0  0  0  0  0  0  0  0  0  0  0
    6.7165   -1.5566   21.6996 N   0  0  0  0  0  0  0  0  0  0  0  0
    7.3294   -0.6907   20.9625 C   0  0  0  0  0  0  0  0  0  0  0  0
    6.6486    0.0242   19.8947 C   0  0  0  0  0  0  0  0  0  0  0  0
    5.4287    0.6587   20.1548 C   0  0  0  0  0  0  0  0  0  0  0  0
    4.8032    1.3182   19.1044 C   0  0  0  0  0  0  0  0  0  0  0  0
    5.4063    1.2926   17.8401 C   0  0  0  0  0  0  0  0  0  0  0  0
    6.5708    0.6771   17.5789 N   0  0  0  0  0  0  0  0  0  0  0  0
    7.1774    0.0648   18.6022 C   0  0  0  0  0  0  0  0  0  0  0  0
    8.1194   -0.4360   18.3805 H   0  0  0  0  0  0  0  0  0  0  0  0
    4.9153    1.7751   17.0004 H   0  0  0  0  0  0  0  0  0  0  0  0
    3.8701    1.8472   19.2607 H   0  0  0  0  0  0  0  0  0  0  0  0
    5.0055    0.6252   21.1638 H   0  0  0  0  0  0  0  0  0  0  0  0
    8.6438   -0.5147   21.3185 N   0  0  0  0  0  0  0  0  0  0  0  0
    9.5712    0.5301   20.8916 C   0  0  0  0  0  0  0  0  0  0  0  0
    9.1585    1.9311   21.3670 C   0  0  0  0  0  0  0  0  0  0  0  0
    9.1095    2.0262   22.8599 C   0  0  0  0  0  0  0  0  0  0  0  0
   10.1792    2.1438   23.7060 C   0  0  0  0  0  0  0  0  0  0  0  0
    9.6318    2.0911   24.9356 N   0  0  0  0  0  0  0  0  0  0  0  0
    8.3058    1.9411   24.8790 N   0  0  0  0  0  0  0  0  0  0  0  0
    7.9821    1.9002   23.6222 N   0  0  0  0  0  0  0  0  0  0  0  0
   10.0752    2.1467   25.8375 H   0  0  0  0  0  0  0  0  0  0  0  0
   11.2341    2.2477   23.5018 H   0  0  0  0  0  0  0  0  0  0  0  0
    9.8885    2.6600   20.9900 H   0  0  0  0  0  0  0  0  0  0  0  0
    8.1879    2.1918   20.9379 H   0  0  0  0  0  0  0  0  0  0  0  0
   10.5633    0.2777   21.2766 H   0  0  0  0  0  0  0  0  0  0  0  0
    9.6406    0.5223   19.8023 H   0  0  0  0  0  0  0  0  0  0  0  0
  1  2  2  0
  2  3  1  0
  3  4  1  0
  4  5  2  0
  5  6  1  0
  6  7  2  0
  7  8  1  0
  8  9  2  0
  9 10  1  0
 10 11  2  0
 11 12  1  0
  9 13  1  0
  8 14  1  0
  7 15  1  0
  5 16  1  0
 16 17  1  0
 17 18  1  0
 18 19  1  0
 19 20  2  0
 20 21  1  0
 21 22  1  0
 22 23  2  0
 21 24  1  0
 20 25  1  0
 18 26  1  0
 18 27  1  0
 17 28  1  0
 17 29  1  0
 16  2  1  0
 23 19  1  0
 11  6  1  0
M  END
>  <cnnaffinity>  (1) 
-4.9094

>  <filename>  (1) 
O=c1onc(-c2cccnc2)n1CCc1c[nH]nn1

$$$$
