
     RDKit          3D

 32 34  0  0  0  0  0  0  0  0999 V2000
    4.9109    1.8912   16.9164 H   0  0  0  0  0  0  0  0  0  0  0  0
    5.3944    1.3644   17.7337 C   0  0  0  0  0  0  0  0  0  0  0  0
    6.5509    0.7503   17.4301 N   0  0  0  0  0  0  0  0  0  0  0  0
    7.1827    0.1020   18.4156 C   0  0  0  0  0  0  0  0  0  0  0  0
    8.1250   -0.3910   18.1788 H   0  0  0  0  0  0  0  0  0  0  0  0
    6.6832    0.0268   19.7303 C   0  0  0  0  0  0  0  0  0  0  0  0
    7.4004   -0.6430   20.7887 N   0  0  0  0  0  0  0  0  0  0  0  0
    8.6574   -0.1217   21.2444 C   0  0  0  0  0  0  0  0  0  0  0  0
    9.1881    0.7777   20.6232 O   0  0  0  0  0  0  0  0  0  0  0  0
    9.1993   -0.7110   22.4256 C   0  0  0  0  0  0  0  0  0  0  0  0
   10.0931   -0.2595   22.8145 H   0  0  0  0  0  0  0  0  0  0  0  0
    8.6270   -1.7996   22.9497 C   0  0  0  0  0  0  0  0  0  0  0  0
    9.1056   -2.4678   24.0211 N   0  0  0  0  0  0  0  0  0  0  0  0
    9.8633   -1.9661   24.4454 H   0  0  0  0  0  0  0  0  0  0  0  0
    9.0672   -3.8220   24.3368 C   0  0  0  0  0  0  0  0  0  0  0  0
    9.5474   -4.1908   25.5960 C   0  0  0  0  0  0  0  0  0  0  0  0
    9.7991   -3.4455   26.3397 H   0  0  0  0  0  0  0  0  0  0  0  0
    9.6306   -5.5444   25.8926 C   0  0  0  0  0  0  0  0  0  0  0  0
   10.0330   -5.8762   26.8472 H   0  0  0  0  0  0  0  0  0  0  0  0
    9.2615   -6.5190   25.0557 N   0  0  0  0  0  0  0  0  0  0  0  0
    8.7694   -6.1430   23.8710 C   0  0  0  0  0  0  0  0  0  0  0  0
    8.4690   -6.9507   23.2049 H   0  0  0  0  0  0  0  0  0  0  0  0
    8.6551   -4.8229   23.4536 C   0  0  0  0  0  0  0  0  0  0  0  0
    8.3236   -4.5856   22.4536 H   0  0  0  0  0  0  0  0  0  0  0  0
    7.4728   -2.2815   22.4381 N   0  0  0  0  0  0  0  0  0  0  0  0
    6.8877   -2.8920   22.9679 H   0  0  0  0  0  0  0  0  0  0  0  0
    6.7669   -1.6837   21.4454 C   0  0  0  0  0  0  0  0  0  0  0  0
    5.6656   -2.1107   21.1930 O   0  0  0  0  0  0  0  0  0  0  0  0
    5.4591    0.6245   20.0213 C   0  0  0  0  0  0  0  0  0  0  0  0
    5.0394    0.5144   21.0212 H   0  0  0  0  0  0  0  0  0  0  0  0
    4.8108    1.3306   19.0049 C   0  0  0  0  0  0  0  0  0  0  0  0
    3.8704    1.8358   19.1914 H   0  0  0  0  0  0  0  0  0  0  0  0
  1  2  1  0
  2  3  2  0
  3  4  1  0
  4  5  1  0
  4  6  2  0
  6  7  1  0
  7  8  1  0
  8  9  2  0
  8 10  1  0
 10 11  1  0
 10 12  2  0
 12 13  1  0
 13 14  1  0
 13 15  1  0
 15 16  2  0
 16 17  1  0
 16 18  1  0
 18 19  1  0
 18 20  2  0
 20 21  1  0
 21 22  1  0
 21 23  2  0
 23 24  1  0
 12 25  1  0
 25 26  1  0
 25 27  1  0
 27 28  2  0
  6 29  1  0
 29 30  1  0
 29 31  2  0
 31 32  1  0
 31  2  1  0
 27  7  1  0
 23 15  1  0
M  END
>  <cnnaffinity>  (1) 
-5.51365

>  <filename>  (1) 
O=c1cc(Nc2ccncc2)[nH]c(=O)n1-c1cccnc1

$$$$
