
     RDKit          3D

 33 35  0  0  0  0  0  0  0  0999 V2000
    5.1394    1.8515   16.7647 H   0  0  0  0  0  0  0  0  0  0  0  0
    5.5919    1.3456   17.6159 C   0  0  0  0  0  0  0  0  0  0  0  0
    6.7223    0.6620   17.3725 N   0  0  0  0  0  0  0  0  0  0  0  0
    7.2975    0.0325   18.4039 C   0  0  0  0  0  0  0  0  0  0  0  0
    8.2160   -0.5082   18.1904 H   0  0  0  0  0  0  0  0  0  0  0  0
    6.7681    0.0214   19.7053 C   0  0  0  0  0  0  0  0  0  0  0  0
    7.3480   -0.8073   20.7595 C   0  0  0  0  0  0  0  0  0  0  0  0
    6.7185   -1.4492   21.7604 C   0  0  0  0  0  0  0  0  0  0  0  0
    5.6820   -1.4209   22.0200 H   0  0  0  0  0  0  0  0  0  0  0  0
    7.6350   -2.3197   22.4571 C   0  0  0  0  0  0  0  0  0  0  0  0
    7.4464   -3.0663   23.4106 O   0  0  0  0  0  0  0  0  0  0  0  0
    8.8338   -2.1055   21.7395 N   0  0  0  0  0  0  0  0  0  0  0  0
   10.1590   -2.3949   22.0171 N   0  0  0  0  0  0  0  0  0  0  0  0
   10.6994   -1.6445   21.5882 H   0  0  0  0  0  0  0  0  0  0  0  0
   10.4343   -2.5769   23.4477 C   0  0  0  0  0  0  0  0  0  0  0  0
   11.4287   -3.0212   23.5020 H   0  0  0  0  0  0  0  0  0  0  0  0
    9.7280   -3.3229   23.8170 H   0  0  0  0  0  0  0  0  0  0  0  0
   10.3555   -1.3016   24.2843 C   0  0  0  0  0  0  0  0  0  0  0  0
   11.1649   -0.1974   23.9628 C   0  0  0  0  0  0  0  0  0  0  0  0
   11.8444   -0.2301   23.1135 H   0  0  0  0  0  0  0  0  0  0  0  0
   11.1190    0.9517   24.7550 C   0  0  0  0  0  0  0  0  0  0  0  0
   11.7393    1.8139   24.5014 H   0  0  0  0  0  0  0  0  0  0  0  0
   10.3333    1.0797   25.8317 N   0  0  0  0  0  0  0  0  0  0  0  0
    9.5638    0.0299   26.1523 C   0  0  0  0  0  0  0  0  0  0  0  0
    8.9229    0.1474   27.0290 H   0  0  0  0  0  0  0  0  0  0  0  0
    9.5377   -1.1675   25.4243 C   0  0  0  0  0  0  0  0  0  0  0  0
    8.8882   -1.9703   25.7668 H   0  0  0  0  0  0  0  0  0  0  0  0
    8.7173   -1.1122   20.7473 N   0  0  0  0  0  0  0  0  0  0  0  0
    9.2465   -0.2890   21.0523 H   0  0  0  0  0  0  0  0  0  0  0  0
    5.5985    0.7580   19.9435 C   0  0  0  0  0  0  0  0  0  0  0  0
    5.1784    0.7982   20.9491 H   0  0  0  0  0  0  0  0  0  0  0  0
    5.0037    1.4353   18.8835 C   0  0  0  0  0  0  0  0  0  0  0  0
    4.1082    2.0315   19.0247 H   0  0  0  0  0  0  0  0  0  0  0  0
  1  2  1  0
  2  3  2  0
  3  4  1  0
  4  5  1  0
  4  6  2  0
  6  7  1  0
  7  8  2  0
  8  9  1  0
  8 10  1  0
 10 11  2  0
 10 12  1  0
 12 13  1  0
 13 14  1  0
 13 15  1  0
 15 16  1  0
 15 17  1  0
 15 18  1  0
 18 19  2  0
 19 20  1  0
 19 21  1  0
 21 22  1  0
 21 23  2  0
 23 24  1  0
 24 25  1  0
 24 26  2  0
 26 27  1  0
 12 28  1  0
 28 29  1  0
  6 30  1  0
 30 31  1  0
 30 32  2  0
 32 33  1  0
 32  2  1  0
 28  7  1  0
 26 18  1  0
M  END
>  <cnnaffinity>  (1) 
-5.17437

>  <filename>  (1) 
O=c1cc(-c2cccnc2)[nH]n1NCc1ccncc1

$$$$
