
     RDKit          3D

 35 37  0  0  0  0  0  0  0  0999 V2000
    4.9362    1.8515   16.9553 H   0  0  0  0  0  0  0  0  0  0  0  0
    5.3907    1.3336   17.7997 C   0  0  0  0  0  0  0  0  0  0  0  0
    6.5595    0.7188   17.5635 N   0  0  0  0  0  0  0  0  0  0  0  0
    7.1532    0.1033   18.5931 C   0  0  0  0  0  0  0  0  0  0  0  0
    8.1047   -0.3711   18.3662 H   0  0  0  0  0  0  0  0  0  0  0  0
    6.6171    0.0425   19.8939 C   0  0  0  0  0  0  0  0  0  0  0  0
    7.3567   -0.6527   21.0308 C   0  0  1  0  0  0  0  0  0  0  0  0
    6.7780   -0.5335   21.9621 H   0  0  0  0  0  0  0  0  0  0  0  0
    7.5860   -2.1929   20.9174 C   0  0  0  0  0  0  0  0  0  0  0  0
    6.7949   -3.0867   20.7715 O   0  0  0  0  0  0  0  0  0  0  0  0
    8.9306   -2.3689   21.0724 N   0  0  0  0  0  0  0  0  0  0  0  0
    9.4256   -3.2119   20.8617 H   0  0  0  0  0  0  0  0  0  0  0  0
    9.6253   -1.2021   21.2068 C   0  0  0  0  0  0  0  0  0  0  0  0
   10.8320   -1.1406   21.3118 O   0  0  0  0  0  0  0  0  0  0  0  0
    8.7320   -0.1757   21.1790 N   0  0  0  0  0  0  0  0  0  0  0  0
    9.2350    1.1550   21.4104 C   0  0  0  0  0  0  0  0  0  0  0  0
    9.8739    1.4329   20.5627 H   0  0  0  0  0  0  0  0  0  0  0  0
    8.4076    1.8805   21.4816 H   0  0  0  0  0  0  0  0  0  0  0  0
   10.0798    1.1821   22.5749 N   0  0  0  0  0  0  0  0  0  0  0  0
   10.8445    0.5344   22.3829 H   0  0  0  0  0  0  0  0  0  0  0  0
    9.5616    0.8998   23.8441 C   0  0  0  0  0  0  0  0  0  0  0  0
   10.4769    0.5596   24.8567 C   0  0  0  0  0  0  0  0  0  0  0  0
   11.5314    0.5182   24.5972 H   0  0  0  0  0  0  0  0  0  0  0  0
   10.0422    0.2869   26.1541 C   0  0  0  0  0  0  0  0  0  0  0  0
   10.7681    0.0395   26.9283 H   0  0  0  0  0  0  0  0  0  0  0  0
    8.6766    0.3355   26.4624 C   0  0  0  0  0  0  0  0  0  0  0  0
    8.3422    0.1326   27.4764 H   0  0  0  0  0  0  0  0  0  0  0  0
    7.7560    0.6646   25.4627 C   0  0  0  0  0  0  0  0  0  0  0  0
    6.6916    0.6954   25.6949 H   0  0  0  0  0  0  0  0  0  0  0  0
    8.1934    0.9550   24.1637 C   0  0  0  0  0  0  0  0  0  0  0  0
    7.4794    1.1970   23.3855 H   0  0  0  0  0  0  0  0  0  0  0  0
    5.3813    0.6711   20.1123 C   0  0  0  0  0  0  0  0  0  0  0  0
    4.9146    0.6690   21.1001 H   0  0  0  0  0  0  0  0  0  0  0  0
    4.7603    1.3311   19.0471 C   0  0  0  0  0  0  0  0  0  0  0  0
    3.8231    1.8650   19.1764 H   0  0  0  0  0  0  0  0  0  0  0  0
  1  2  1  0
  2  3  2  0
  3  4  1  0
  4  5  1  0
  4  6  2  0
  6  7  1  0
  7  8  1  1
  7  9  1  0
  9 10  2  0
  9 11  1  0
 11 12  1  0
 11 13  1  0
 13 14  2  0
 13 15  1  0
 15 16  1  0
 16 17  1  0
 16 18  1  0
 16 19  1  0
 19 20  1  0
 19 21  1  0
 21 22  2  0
 22 23  1  0
 22 24  1  0
 24 25  1  0
 24 26  2  0
 26 27  1  0
 26 28  1  0
 28 29  1  0
 28 30  2  0
 30 31  1  0
  6 32  1  0
 32 33  1  0
 32 34  2  0
 34 35  1  0
 34  2  1  0
 15  7  1  0
 30 21  1  0
M  END
>  <cnnaffinity>  (1) 
-4.95075

>  <filename>  (1) 
O=C1NC(=O)N(CNc2ccccc2)[C@H]1c1cccnc1

$$$$
