
     RDKit          3D

 42 46  0  0  0  0  0  0  0  0999 V2000
    9.8975   -2.1528   25.2127 O   0  0  0  0  0  0  0  0  0  0  0  0
   10.4337   -1.2576   24.5974 C   0  0  0  0  0  0  0  0  0  0  0  0
   11.2250   -0.0713   25.1367 C   0  0  0  0  0  0  0  0  0  0  0  0
   11.5060    0.7301   23.8912 C   0  0  0  0  0  0  0  0  0  0  0  0
   12.2436    1.8827   23.6695 C   0  0  0  0  0  0  0  0  0  0  0  0
   12.3618    2.4050   22.3745 C   0  0  0  0  0  0  0  0  0  0  0  0
   11.6752    1.7966   21.3162 C   0  0  0  0  0  0  0  0  0  0  0  0
   10.9366    0.6255   21.5163 C   0  0  0  0  0  0  0  0  0  0  0  0
   10.9276    0.0708   22.7986 C   0  0  0  0  0  0  0  0  0  0  0  0
   10.4159   -1.1599   23.2179 N   0  0  0  0  0  0  0  0  0  0  0  0
    9.7850   -2.1590   22.3561 C   0  0  0  0  0  0  0  0  0  0  0  0
    8.4372   -1.7225   21.8726 C   0  0  0  0  0  0  0  0  0  0  0  0
    8.1701   -1.2846   20.6596 N   0  0  0  0  0  0  0  0  0  0  0  0
    6.9486   -0.7088   20.8077 C   0  0  0  0  0  0  0  0  0  0  0  0
    6.3411    0.0336   19.7126 C   0  0  0  0  0  0  0  0  0  0  0  0
    5.1680    0.7854   19.8747 C   0  0  0  0  0  0  0  0  0  0  0  0
    4.6895    1.4815   18.7699 C   0  0  0  0  0  0  0  0  0  0  0  0
    5.3928    1.4098   17.5628 C   0  0  0  0  0  0  0  0  0  0  0  0
    6.5241    0.7036   17.4060 N   0  0  0  0  0  0  0  0  0  0  0  0
    6.9873    0.0405   18.4710 C   0  0  0  0  0  0  0  0  0  0  0  0
    7.9168   -0.5095   18.3277 H   0  0  0  0  0  0  0  0  0  0  0  0
    5.0382    1.9484   16.6870 H   0  0  0  0  0  0  0  0  0  0  0  0
    3.7954    2.0892   18.8357 H   0  0  0  0  0  0  0  0  0  0  0  0
    4.6724    0.8222   20.8468 H   0  0  0  0  0  0  0  0  0  0  0  0
    6.4388   -0.8106   22.0164 N   0  0  0  0  0  0  0  0  0  0  0  0
    7.3921   -1.4890   22.7037 N   0  0  0  0  0  0  0  0  0  0  0  0
    7.2482   -1.7530   24.1199 C   0  0  0  0  0  0  0  0  0  0  0  0
    5.9779   -2.3387   24.6688 C   0  0  0  0  0  0  0  0  0  0  0  0
    7.2328   -3.1568   24.6579 C   0  0  0  0  0  0  0  0  0  0  0  0
    7.2702   -3.9618   23.9269 H   0  0  0  0  0  0  0  0  0  0  0  0
    7.7549   -3.3479   25.5948 H   0  0  0  0  0  0  0  0  0  0  0  0
    5.6016   -1.9338   25.6062 H   0  0  0  0  0  0  0  0  0  0  0  0
    5.2099   -2.6083   23.9508 H   0  0  0  0  0  0  0  0  0  0  0  0
    7.7236   -0.9920   24.7341 H   0  0  0  0  0  0  0  0  0  0  0  0
    9.7029   -3.0913   22.9201 H   0  0  0  0  0  0  0  0  0  0  0  0
   10.4146   -2.3389   21.4771 H   0  0  0  0  0  0  0  0  0  0  0  0
   10.3620    0.1536   20.7267 H   0  0  0  0  0  0  0  0  0  0  0  0
   11.7338    2.2361   20.3259 H   0  0  0  0  0  0  0  0  0  0  0  0
   12.9967    3.2670   22.1795 H   0  0  0  0  0  0  0  0  0  0  0  0
   12.7276    2.3491   24.5098 H   0  0  0  0  0  0  0  0  0  0  0  0
   12.1389   -0.4410   25.6071 H   0  0  0  0  0  0  0  0  0  0  0  0
   10.6365    0.4327   25.9103 H   0  0  0  0  0  0  0  0  0  0  0  0
  1  2  2  0
  2  3  1  0
  3  4  1  0
  4  5  2  0
  5  6  1  0
  6  7  2  0
  7  8  1  0
  8  9  2  0
  9 10  1  0
 10 11  1  0
 11 12  1  0
 12 13  2  0
 13 14  1  0
 14 15  1  0
 15 16  2  0
 16 17  1  0
 17 18  2  0
 18 19  1  0
 19 20  2  0
 20 21  1  0
 18 22  1  0
 17 23  1  0
 16 24  1  0
 14 25  2  0
 25 26  1  0
 26 27  1  0
 27 28  1  0
 28 29  1  0
 29 30  1  0
 29 31  1  0
 28 32  1  0
 28 33  1  0
 27 34  1  0
 11 35  1  0
 11 36  1  0
  8 37  1  0
  7 38  1  0
  6 39  1  0
  5 40  1  0
  3 41  1  0
  3 42  1  0
 10  2  1  0
 26 12  1  0
 29 27  1  0
  9  4  1  0
 20 15  1  0
M  END
>  <cnnaffinity>  (1) 
-5.59124

>  <filename>  (1) 
O=C1Cc2ccccc2N1Cc1nc(-c2cccnc2)nn1C1CC1

$$$$
