
     RDKit          3D

 33 35  0  0  0  0  0  0  0  0999 V2000
   11.4048   -2.5972   20.8393 H   0  0  0  0  0  0  0  0  0  0  0  0
   11.5109   -1.9286   21.5249 O   0  0  0  0  0  0  0  0  0  0  0  0
   10.4075   -2.0627   22.4127 C   0  0  1  0  0  0  0  0  0  0  0  0
   10.4095   -3.0584   22.8921 H   0  0  0  0  0  0  0  0  0  0  0  0
   10.5921   -1.0250   23.5185 C   0  0  0  0  0  0  0  0  0  0  0  0
   10.1129   -1.2925   24.8067 C   0  0  0  0  0  0  0  0  0  0  0  0
    9.7722   -2.2937   25.0636 H   0  0  0  0  0  0  0  0  0  0  0  0
   10.0945   -0.2909   25.7824 C   0  0  0  0  0  0  0  0  0  0  0  0
    9.6903   -0.5005   26.7685 H   0  0  0  0  0  0  0  0  0  0  0  0
   10.5941    0.9787   25.4808 C   0  0  0  0  0  0  0  0  0  0  0  0
   10.5822    1.7494   26.2414 H   0  0  0  0  0  0  0  0  0  0  0  0
   11.1305    1.2421   24.2179 C   0  0  0  0  0  0  0  0  0  0  0  0
   11.5381    2.2219   23.9754 H   0  0  0  0  0  0  0  0  0  0  0  0
   11.1415    0.2416   23.2480 C   0  0  0  0  0  0  0  0  0  0  0  0
   11.5940    0.4175   22.2761 H   0  0  0  0  0  0  0  0  0  0  0  0
    9.0781   -1.8839   21.6896 C   0  0  0  0  0  0  0  0  0  0  0  0
    8.7579   -0.9703   20.7421 C   0  0  0  0  0  0  0  0  0  0  0  0
    9.3876   -0.2549   20.2357 H   0  0  0  0  0  0  0  0  0  0  0  0
    7.3892   -1.0350   20.4835 N   0  0  0  0  0  0  0  0  0  0  0  0
    6.6844   -0.2132   19.5550 C   0  0  0  0  0  0  0  0  0  0  0  0
    7.1925    0.0010   18.2572 C   0  0  0  0  0  0  0  0  0  0  0  0
    8.1003   -0.5213   17.9497 H   0  0  0  0  0  0  0  0  0  0  0  0
    6.6044    0.7899   17.3505 N   0  0  0  0  0  0  0  0  0  0  0  0
    5.4735    1.4200   17.7118 C   0  0  0  0  0  0  0  0  0  0  0  0
    5.0204    2.0630   16.9587 H   0  0  0  0  0  0  0  0  0  0  0  0
    4.8804    1.2614   18.9688 C   0  0  0  0  0  0  0  0  0  0  0  0
    3.9761    1.8136   19.2005 H   0  0  0  0  0  0  0  0  0  0  0  0
    5.4748    0.4066   19.9045 C   0  0  0  0  0  0  0  0  0  0  0  0
    5.0189    0.2155   20.8748 H   0  0  0  0  0  0  0  0  0  0  0  0
    6.8040   -2.0109   21.3045 C   0  0  0  0  0  0  0  0  0  0  0  0
    5.6481   -2.3756   21.3917 O   0  0  0  0  0  0  0  0  0  0  0  0
    7.8687   -2.5163   22.0148 N   0  0  0  0  0  0  0  0  0  0  0  0
    7.6438   -3.2151   22.6940 H   0  0  0  0  0  0  0  0  0  0  0  0
  1  2  1  0
  2  3  1  0
  3  4  1  1
  3  5  1  0
  5  6  2  0
  6  7  1  0
  6  8  1  0
  8  9  1  0
  8 10  2  0
 10 11  1  0
 10 12  1  0
 12 13  1  0
 12 14  2  0
 14 15  1  0
  3 16  1  0
 16 17  2  0
 17 18  1  0
 17 19  1  0
 19 20  1  0
 20 21  2  0
 21 22  1  0
 21 23  1  0
 23 24  2  0
 24 25  1  0
 24 26  1  0
 26 27  1  0
 26 28  2  0
 28 29  1  0
 19 30  1  0
 30 31  2  0
 30 32  1  0
 32 33  1  0
 14  5  1  0
 32 16  1  0
 28 20  1  0
M  END
>  <cnnaffinity>  (1) 
-5.4162

>  <filename>  (1) 
O=c1[nH]c([C@@H](O)c2ccccc2)cn1-c1cccnc1

$$$$
