
     RDKit          3D

 37 39  0  0  0  0  0  0  0  0999 V2000
    9.3594    0.4669   20.4638 O   0  0  0  0  0  0  0  0  0  0  0  0
    8.7464   -0.3829   21.0885 C   0  0  0  0  0  0  0  0  0  0  0  0
    9.4870   -1.2576   22.1220 C   0  0  0  0  0  0  0  0  0  0  0  0
    8.6373   -2.0204   23.0292 N   0  0  0  0  0  0  0  0  0  0  0  0
    9.2637   -2.6976   24.0983 C   0  0  0  0  0  0  0  0  0  0  0  0
   10.2982   -3.6165   23.8964 C   0  0  0  0  0  0  0  0  0  0  0  0
   10.6934   -4.4643   24.9339 C   0  0  0  0  0  0  0  0  0  0  0  0
   10.1253   -4.3112   26.2053 C   0  0  0  0  0  0  0  0  0  0  0  0
    9.2057   -3.2837   26.4451 C   0  0  0  0  0  0  0  0  0  0  0  0
    8.8005   -2.4411   25.4001 C   0  0  0  0  0  0  0  0  0  0  0  0
    7.8624   -1.2668   25.5887 C   0  0  0  0  0  0  0  0  0  0  0  0
    6.6345   -1.5167   25.0697 F   0  0  0  0  0  0  0  0  0  0  0  0
    8.3062   -0.1314   25.0106 F   0  0  0  0  0  0  0  0  0  0  0  0
    7.6709   -0.9986   26.8974 F   0  0  0  0  0  0  0  0  0  0  0  0
    8.8080   -3.1362   27.4467 H   0  0  0  0  0  0  0  0  0  0  0  0
   10.4217   -4.9663   27.0187 H   0  0  0  0  0  0  0  0  0  0  0  0
   11.4223   -5.2503   24.7453 H   0  0  0  0  0  0  0  0  0  0  0  0
   10.7615   -3.6350   22.9163 H   0  0  0  0  0  0  0  0  0  0  0  0
    7.4731   -2.6176   22.3672 C   0  0  0  0  0  0  0  0  0  0  0  0
    6.6228   -1.4682   21.8294 C   0  0  0  0  0  0  0  0  0  0  0  0
    7.3992   -0.6736   20.8550 N   0  0  0  0  0  0  0  0  0  0  0  0
    6.6911    0.0109   19.8172 C   0  0  0  0  0  0  0  0  0  0  0  0
    5.4735    0.6534   20.0837 C   0  0  0  0  0  0  0  0  0  0  0  0
    4.8185    1.3242   19.0455 C   0  0  0  0  0  0  0  0  0  0  0  0
    5.3944    1.3189   17.7716 C   0  0  0  0  0  0  0  0  0  0  0  0
    6.5475    0.6872   17.4914 N   0  0  0  0  0  0  0  0  0  0  0  0
    7.1769    0.0587   18.4917 C   0  0  0  0  0  0  0  0  0  0  0  0
    8.1165   -0.4329   18.2449 H   0  0  0  0  0  0  0  0  0  0  0  0
    4.9102    1.8196   16.9357 H   0  0  0  0  0  0  0  0  0  0  0  0
    3.8819    1.8462   19.2123 H   0  0  0  0  0  0  0  0  0  0  0  0
    5.0671    0.6368   21.0950 H   0  0  0  0  0  0  0  0  0  0  0  0
    6.3082   -0.8375   22.6695 H   0  0  0  0  0  0  0  0  0  0  0  0
    5.7213   -1.8487   21.3373 H   0  0  0  0  0  0  0  0  0  0  0  0
    7.7547   -3.2683   21.5226 H   0  0  0  0  0  0  0  0  0  0  0  0
    6.8862   -3.2194   23.0663 H   0  0  0  0  0  0  0  0  0  0  0  0
   10.1002   -0.5593   22.6955 H   0  0  0  0  0  0  0  0  0  0  0  0
   10.1863   -1.8790   21.5280 H   0  0  0  0  0  0  0  0  0  0  0  0
  1  2  2  0
  2  3  1  0
  3  4  1  0
  4  5  1  0
  5  6  2  0
  6  7  1  0
  7  8  2  0
  8  9  1  0
  9 10  2  0
 10 11  1  0
 11 12  1  0
 11 13  1  0
 11 14  1  0
  9 15  1  0
  8 16  1  0
  7 17  1  0
  6 18  1  0
  4 19  1  0
 19 20  1  0
 20 21  1  0
 21 22  1  0
 22 23  2  0
 23 24  1  0
 24 25  2  0
 25 26  1  0
 26 27  2  0
 27 28  1  0
 25 29  1  0
 24 30  1  0
 23 31  1  0
 20 32  1  0
 20 33  1  0
 19 34  1  0
 19 35  1  0
  3 36  1  0
  3 37  1  0
 21  2  1  0
 27 22  1  0
 10  5  1  0
M  END
>  <cnnaffinity>  (1) 
-5.04408

>  <filename>  (1) 
O=C1CN(c2ccccc2C(F)(F)F)CCN1c1cccnc1

$$$$
