
     RDKit          3D

 34 36  0  0  0  0  0  0  0  0999 V2000
    5.8401   -1.3157   21.8901 H   0  0  0  0  0  0  0  0  0  0  0  0
    6.6442   -1.7450   21.5608 O   0  0  0  0  0  0  0  0  0  0  0  0
    7.4286   -0.7238   20.9839 C   0  0  1  0  0  0  0  0  0  0  0  0
    8.2676   -1.2557   20.5119 H   0  0  0  0  0  0  0  0  0  0  0  0
    6.6514   -0.0015   19.9058 C   0  0  0  0  0  0  0  0  0  0  0  0
    7.1554    0.0493   18.6004 C   0  0  0  0  0  0  0  0  0  0  0  0
    8.1060   -0.4320   18.3615 H   0  0  0  0  0  0  0  0  0  0  0  0
    6.5571    0.6714   17.5774 N   0  0  0  0  0  0  0  0  0  0  0  0
    5.3988    1.2919   17.8361 C   0  0  0  0  0  0  0  0  0  0  0  0
    4.9251    1.7907   16.9928 H   0  0  0  0  0  0  0  0  0  0  0  0
    4.8035    1.3101   19.1023 C   0  0  0  0  0  0  0  0  0  0  0  0
    3.8712    1.8427   19.2454 H   0  0  0  0  0  0  0  0  0  0  0  0
    5.4323    0.6496   20.1564 C   0  0  0  0  0  0  0  0  0  0  0  0
    4.9991    0.6490   21.1598 H   0  0  0  0  0  0  0  0  0  0  0  0
    8.0548    0.2551   22.0423 C   0  0  0  0  0  0  0  0  0  0  0  0
    7.0371    1.0248   22.8522 C   0  0  0  0  0  0  0  0  0  0  0  0
    6.8291    2.0470   22.5237 H   0  0  0  0  0  0  0  0  0  0  0  0
    6.3637    0.5710   23.9242 C   0  0  0  0  0  0  0  0  0  0  0  0
    6.4447   -1.0398   24.6557 S   0  0  0  0  0  0  0  0  0  0  0  0
    5.0885   -0.7150   25.7353 C   0  0  0  0  0  0  0  0  0  0  0  0
    4.3218   -1.7961   26.6845 S   0  0  0  0  0  0  0  0  0  0  0  0
    4.7685    0.6037   25.6371 N   0  0  0  0  0  0  0  0  0  0  0  0
    4.0109    1.0147   26.1583 H   0  0  0  0  0  0  0  0  0  0  0  0
    5.3389    1.3821   24.6522 C   0  0  0  0  0  0  0  0  0  0  0  0
    4.9891    2.5202   24.4484 O   0  0  0  0  0  0  0  0  0  0  0  0
    9.1338    1.1936   21.4175 C   0  0  0  0  0  0  0  0  0  0  0  0
    8.9772    2.2543   21.6424 H   0  0  0  0  0  0  0  0  0  0  0  0
    9.2309    1.0991   20.3337 H   0  0  0  0  0  0  0  0  0  0  0  0
   10.2438    0.4943   22.2330 C   0  0  0  0  0  0  0  0  0  0  0  0
   10.9891   -0.0361   21.6293 H   0  0  0  0  0  0  0  0  0  0  0  0
   10.7867    1.1458   22.9258 H   0  0  0  0  0  0  0  0  0  0  0  0
    9.1818   -0.4157   22.8973 C   0  0  0  0  0  0  0  0  0  0  0  0
    9.2858   -1.4944   22.7322 H   0  0  0  0  0  0  0  0  0  0  0  0
    9.0716   -0.2566   23.9748 H   0  0  0  0  0  0  0  0  0  0  0  0
  1  2  1  0
  2  3  1  0
  3  4  1  6
  3  5  1  0
  5  6  2  0
  6  7  1  0
  6  8  1  0
  8  9  2  0
  9 10  1  0
  9 11  1  0
 11 12  1  0
 11 13  2  0
 13 14  1  0
  3 15  1  0
 15 16  1  0
 16 17  1  0
 16 18  2  3
 18 19  1  0
 19 20  1  0
 20 21  2  0
 20 22  1  0
 22 23  1  0
 22 24  1  0
 24 25  2  0
 15 26  1  0
 26 27  1  0
 26 28  1  0
 26 29  1  0
 29 30  1  0
 29 31  1  0
 29 32  1  0
 32 33  1  0
 32 34  1  0
 13  5  1  0
 32 15  1  0
 24 18  1  0
M  END
>  <cnnaffinity>  (1) 
-4.99378

>  <filename>  (1) 
O=C1NC(=S)SC1=CC1([C@@H](O)c2cccnc2)CCC1

$$$$
