
     RDKit          3D

 26 28  0  0  0  0  0  0  0  0999 V2000
    6.4354    2.7126   22.8487 H   0  0  0  0  0  0  0  0  0  0  0  0
    6.9350    1.7797   23.1148 C   0  0  0  0  0  0  0  0  0  0  0  0
    6.4451    0.9191   24.0177 C   0  0  0  0  0  0  0  0  0  0  0  0
    4.8453    1.0834   24.7538 S   0  0  0  0  0  0  0  0  0  0  0  0
    5.0788   -0.4323   25.6952 C   0  0  0  0  0  0  0  0  0  0  0  0
    4.2947   -0.9704   26.4231 O   0  0  0  0  0  0  0  0  0  0  0  0
    6.3386   -0.9009   25.4623 N   0  0  0  0  0  0  0  0  0  0  0  0
    6.6324   -1.7295   25.9356 H   0  0  0  0  0  0  0  0  0  0  0  0
    7.1748   -0.2556   24.5913 C   0  0  0  0  0  0  0  0  0  0  0  0
    8.3049   -0.6226   24.3695 O   0  0  0  0  0  0  0  0  0  0  0  0
    8.1426    1.5715   22.4360 N   0  0  0  0  0  0  0  0  0  0  0  0
    9.0834    2.5396   22.3538 N   0  0  0  0  0  0  0  0  0  0  0  0
   10.0036    2.0855   21.5933 N   0  0  0  0  0  0  0  0  0  0  0  0
    9.7038    0.8504   21.1286 N   0  0  0  0  0  0  0  0  0  0  0  0
    8.5465    0.5371   21.6613 C   0  0  0  0  0  0  0  0  0  0  0  0
    7.5457   -0.8495   21.2083 S   0  0  0  0  0  0  0  0  0  0  0  0
    6.6300   -0.0278   19.8947 C   0  0  0  0  0  0  0  0  0  0  0  0
    7.1556    0.0386   18.5886 C   0  0  0  0  0  0  0  0  0  0  0  0
    8.1186   -0.4216   18.3648 H   0  0  0  0  0  0  0  0  0  0  0  0
    6.5516    0.6724   17.5782 N   0  0  0  0  0  0  0  0  0  0  0  0
    5.3916    1.2952   17.8339 C   0  0  0  0  0  0  0  0  0  0  0  0
    4.9220    1.7963   16.9876 H   0  0  0  0  0  0  0  0  0  0  0  0
    4.7982    1.3085   19.0985 C   0  0  0  0  0  0  0  0  0  0  0  0
    3.8721    1.8483   19.2462 H   0  0  0  0  0  0  0  0  0  0  0  0
    5.4234    0.6329   20.1501 C   0  0  0  0  0  0  0  0  0  0  0  0
    4.9976    0.6283   21.1559 H   0  0  0  0  0  0  0  0  0  0  0  0
  1  2  1  0
  2  3  2  3
  3  4  1  0
  4  5  1  0
  5  6  2  0
  5  7  1  0
  7  8  1  0
  7  9  1  0
  9 10  2  0
  2 11  1  0
 11 12  1  0
 12 13  2  0
 13 14  1  0
 14 15  2  0
 15 16  1  0
 16 17  1  0
 17 18  2  0
 18 19  1  0
 18 20  1  0
 20 21  2  0
 21 22  1  0
 21 23  1  0
 23 24  1  0
 23 25  2  0
 25 26  1  0
  9  3  1  0
 15 11  1  0
 25 17  1  0
M  END
>  <cnnaffinity>  (1) 
-4.6023

>  <filename>  (1) 
O=C1NC(=O)C(=Cn2nnnc2Sc2cccnc2)S1

$$$$
