
     RDKit          3D

 40 43  0  0  0  0  0  0  0  0999 V2000
    5.3616   -3.4016   22.7282 O   0  0  0  0  0  0  0  0  0  0  0  0
    6.0437   -2.8646   23.5795 C   0  0  0  0  0  0  0  0  0  0  0  0
    5.6290   -2.5124   24.9554 C   0  0  0  0  0  0  0  0  0  0  0  0
    4.3454   -2.6515   25.4984 C   0  0  0  0  0  0  0  0  0  0  0  0
    4.1434   -2.3097   26.8309 C   0  0  0  0  0  0  0  0  0  0  0  0
    5.2109   -1.8275   27.6067 C   0  0  0  0  0  0  0  0  0  0  0  0
    6.4916   -1.6731   27.0710 C   0  0  0  0  0  0  0  0  0  0  0  0
    6.6773   -2.0314   25.7306 C   0  0  0  0  0  0  0  0  0  0  0  0
    8.1469   -1.9613   24.7456 S   0  0  0  0  0  0  0  0  0  0  0  0
    9.1045   -2.9831   25.1307 O   0  0  0  0  0  0  0  0  0  0  0  0
    8.5720   -0.5867   24.5722 O   0  0  0  0  0  0  0  0  0  0  0  0
    7.3549   -2.5167   23.3772 N   0  0  0  0  0  0  0  0  0  0  0  0
    8.1495   -3.0295   22.2630 C   0  0  0  0  0  0  0  0  0  0  0  0
    9.1244   -1.9858   21.7795 C   0  0  0  0  0  0  0  0  0  0  0  0
   10.4996   -2.1308   21.9951 C   0  0  0  0  0  0  0  0  0  0  0  0
   11.3990   -1.0953   21.7154 C   0  0  0  0  0  0  0  0  0  0  0  0
   10.9050    0.1127   21.2169 C   0  0  0  0  0  0  0  0  0  0  0  0
    9.5482    0.2475   20.9031 C   0  0  0  0  0  0  0  0  0  0  0  0
    8.6668   -0.8049   21.1640 C   0  0  0  0  0  0  0  0  0  0  0  0
    7.3123   -0.7292   20.9124 O   0  0  0  0  0  0  0  0  0  0  0  0
    6.7482   -0.0217   19.8811 C   0  0  0  0  0  0  0  0  0  0  0  0
    5.5337    0.6114   20.1623 C   0  0  0  0  0  0  0  0  0  0  0  0
    4.8767    1.2740   19.1245 C   0  0  0  0  0  0  0  0  0  0  0  0
    5.4460    1.2760   17.8459 C   0  0  0  0  0  0  0  0  0  0  0  0
    6.6010    0.6519   17.5667 N   0  0  0  0  0  0  0  0  0  0  0  0
    7.2403    0.0189   18.5626 C   0  0  0  0  0  0  0  0  0  0  0  0
    8.1782   -0.4745   18.3032 H   0  0  0  0  0  0  0  0  0  0  0  0
    4.9568    1.7914   17.0206 H   0  0  0  0  0  0  0  0  0  0  0  0
    3.9383    1.7864   19.2949 H   0  0  0  0  0  0  0  0  0  0  0  0
    5.1435    0.5710   21.1786 H   0  0  0  0  0  0  0  0  0  0  0  0
    9.1726    1.1451   20.4266 H   0  0  0  0  0  0  0  0  0  0  0  0
   11.5599    0.9599   21.0259 H   0  0  0  0  0  0  0  0  0  0  0  0
   12.4622   -1.2626   21.8711 H   0  0  0  0  0  0  0  0  0  0  0  0
   10.8638   -3.0686   22.4158 H   0  0  0  0  0  0  0  0  0  0  0  0
    8.6839   -3.9417   22.5705 H   0  0  0  0  0  0  0  0  0  0  0  0
    7.4413   -3.3075   21.4733 H   0  0  0  0  0  0  0  0  0  0  0  0
    7.2912   -1.2806   27.6943 H   0  0  0  0  0  0  0  0  0  0  0  0
    5.0400   -1.5721   28.6465 H   0  0  0  0  0  0  0  0  0  0  0  0
    3.1572   -2.4238   27.2723 H   0  0  0  0  0  0  0  0  0  0  0  0
    3.5448   -3.0197   24.8650 H   0  0  0  0  0  0  0  0  0  0  0  0
  1  2  2  0
  2  3  1  0
  3  4  2  0
  4  5  1  0
  5  6  2  0
  6  7  1  0
  7  8  2  0
  8  9  1  0
  9 10  2  0
  9 11  2  0
  9 12  1  0
 12 13  1  0
 13 14  1  0
 14 15  2  0
 15 16  1  0
 16 17  2  0
 17 18  1  0
 18 19  2  0
 19 20  1  0
 20 21  1  0
 21 22  2  0
 22 23  1  0
 23 24  2  0
 24 25  1  0
 25 26  2  0
 26 27  1  0
 24 28  1  0
 23 29  1  0
 22 30  1  0
 18 31  1  0
 17 32  1  0
 16 33  1  0
 15 34  1  0
 13 35  1  0
 13 36  1  0
  7 37  1  0
  6 38  1  0
  5 39  1  0
  4 40  1  0
 12  2  1  0
 19 14  1  0
 26 21  1  0
  8  3  1  0
M  END
>  <cnnaffinity>  (1) 
-5.74657

>  <filename>  (1) 
O=C1c2ccccc2S(=O)(=O)N1Cc1ccccc1Oc1cccnc1

$$$$
