
     RDKit          3D

 27 29  0  0  0  0  0  0  0  0999 V2000
    6.6380   -1.8056   24.8487 H   0  0  0  0  0  0  0  0  0  0  0  0
    7.4144   -2.3434   24.2979 C   0  0  0  0  0  0  0  0  0  0  0  0
    7.8727   -3.4860   24.8357 C   0  0  0  0  0  0  0  0  0  0  0  0
    8.9453   -4.6681   24.0783 S   0  0  0  0  0  0  0  0  0  0  0  0
    8.9567   -5.6741   25.5180 C   0  0  0  0  0  0  0  0  0  0  0  0
    9.8423   -7.0110   25.7763 S   0  0  0  0  0  0  0  0  0  0  0  0
    8.0753   -5.1683   26.4172 N   0  0  0  0  0  0  0  0  0  0  0  0
    7.9372   -5.5972   27.3160 H   0  0  0  0  0  0  0  0  0  0  0  0
    7.4714   -3.9564   26.1862 C   0  0  0  0  0  0  0  0  0  0  0  0
    6.7611   -3.4202   27.0023 O   0  0  0  0  0  0  0  0  0  0  0  0
    7.8212   -1.7945   23.0051 C   0  0  0  0  0  0  0  0  0  0  0  0
    9.0726   -1.8167   22.4469 C   0  0  0  0  0  0  0  0  0  0  0  0
    9.9749   -2.2224   22.8859 H   0  0  0  0  0  0  0  0  0  0  0  0
    9.1125   -1.0719   20.9033 S   0  0  0  0  0  0  0  0  0  0  0  0
    7.4163   -0.6924   20.9680 C   0  0  0  0  0  0  0  0  0  0  0  0
    6.6798    0.0096   19.8966 C   0  0  0  0  0  0  0  0  0  0  0  0
    7.1753    0.0632   18.5784 C   0  0  0  0  0  0  0  0  0  0  0  0
    8.1194   -0.4209   18.3384 H   0  0  0  0  0  0  0  0  0  0  0  0
    6.5580    0.6775   17.5634 N   0  0  0  0  0  0  0  0  0  0  0  0
    5.3968    1.2944   17.8309 C   0  0  0  0  0  0  0  0  0  0  0  0
    4.9244    1.7948   16.9883 H   0  0  0  0  0  0  0  0  0  0  0  0
    4.8075    1.3078   19.0996 C   0  0  0  0  0  0  0  0  0  0  0  0
    3.8757    1.8392   19.2498 H   0  0  0  0  0  0  0  0  0  0  0  0
    5.4519    0.6494   20.1484 C   0  0  0  0  0  0  0  0  0  0  0  0
    5.0204    0.6516   21.1498 H   0  0  0  0  0  0  0  0  0  0  0  0
    6.8938   -1.1404   22.1352 C   0  0  0  0  0  0  0  0  0  0  0  0
    5.8526   -1.0553   22.3624 H   0  0  0  0  0  0  0  0  0  0  0  0
  1  2  1  0
  2  3  2  3
  3  4  1  0
  4  5  1  0
  5  6  2  0
  5  7  1  0
  7  8  1  0
  7  9  1  0
  9 10  2  0
  2 11  1  0
 11 12  2  0
 12 13  1  0
 12 14  1  0
 14 15  1  0
 15 16  1  0
 16 17  2  0
 17 18  1  0
 17 19  1  0
 19 20  2  0
 20 21  1  0
 20 22  1  0
 22 23  1  0
 22 24  2  0
 24 25  1  0
 15 26  2  0
 26 27  1  0
  9  3  1  0
 26 11  1  0
 24 16  1  0
M  END
>  <cnnaffinity>  (1) 
-5.27262

>  <filename>  (1) 
O=C1NC(=S)SC1=Cc1csc(-c2cccnc2)c1

$$$$
