
     RDKit          3D

 34 37  0  0  0  0  0  0  0  0999 V2000
    5.0708    2.0154   16.7968 H   0  0  0  0  0  0  0  0  0  0  0  0
    5.4143    1.4360   17.6510 C   0  0  0  0  0  0  0  0  0  0  0  0
    6.5533    0.7465   17.4737 N   0  0  0  0  0  0  0  0  0  0  0  0
    7.0104    0.0272   18.5073 C   0  0  0  0  0  0  0  0  0  0  0  0
    7.9403   -0.5184   18.3595 H   0  0  0  0  0  0  0  0  0  0  0  0
    6.3581   -0.0404   19.7534 C   0  0  0  0  0  0  0  0  0  0  0  0
    6.9023   -0.7932   20.8576 N   0  0  0  0  0  0  0  0  0  0  0  0
    7.4325   -0.0887   21.9209 C   0  0  0  0  0  0  0  0  0  0  0  0
    7.2896    0.9901   21.8860 H   0  0  0  0  0  0  0  0  0  0  0  0
    8.1329   -0.7083   22.9167 C   0  0  0  0  0  0  0  0  0  0  0  0
    8.7103    0.0630   24.0339 C   0  0  0  0  0  0  0  0  0  0  0  0
    7.9297    0.7417   24.9436 C   0  0  0  0  0  0  0  0  0  0  0  0
    6.8469    0.8151   24.9573 H   0  0  0  0  0  0  0  0  0  0  0  0
    8.8618    1.4903   26.2527 S   0  0  0  0  0  0  0  0  0  0  0  0
   10.5449    0.8841   25.7026 C   0  0  0  0  0  0  0  0  0  0  0  0
   10.7311    0.6927   25.5544 C   0  0  0  0  0  0  0  0  0  0  0  0
   11.2759    1.7498   25.6986 H   0  0  0  0  0  0  0  0  0  0  0  0
   12.6383    0.5644   24.9916 C   0  0  0  0  0  0  0  0  0  0  0  0
   13.6219    0.5697   25.5346 H   0  0  0  0  0  0  0  0  0  0  0  0
   12.4666    0.0790   23.7622 C   0  0  0  0  0  0  0  0  0  0  0  0
   13.3023   -0.1577   23.1094 H   0  0  0  0  0  0  0  0  0  0  0  0
   11.0860   -0.1432   23.3241 C   0  0  0  0  0  0  0  0  0  0  0  0
   10.8138   -0.4959   22.3349 H   0  0  0  0  0  0  0  0  0  0  0  0
   10.1648    0.1853   24.2623 C   0  0  0  0  0  0  0  0  0  0  0  0
    8.2739   -2.1325   22.8644 C   0  0  0  0  0  0  0  0  0  0  0  0
    8.8629   -2.6232   23.6405 H   0  0  0  0  0  0  0  0  0  0  0  0
    7.6659   -2.8570   21.8878 C   0  0  0  0  0  0  0  0  0  0  0  0
    7.6977   -3.9350   21.8435 H   0  0  0  0  0  0  0  0  0  0  0  0
    6.8540   -2.2335   20.8506 C   0  0  0  0  0  0  0  0  0  0  0  0
    6.1868   -2.8590   20.0465 O   0  0  0  0  0  0  0  0  0  0  0  0
    5.1788    0.6881   19.9273 C   0  0  0  0  0  0  0  0  0  0  0  0
    4.6773    0.6581   20.8963 H   0  0  0  0  0  0  0  0  0  0  0  0
    4.6914    1.4372   18.8503 C   0  0  0  0  0  0  0  0  0  0  0  0
    3.7906    2.0347   18.9402 H   0  0  0  0  0  0  0  0  0  0  0  0
  1  2  1  0
  2  3  2  0
  3  4  1  0
  4  5  1  0
  4  6  2  0
  6  7  1  0
  7  8  1  0
  8  9  1  0
  8 10  2  0
 10 11  1  0
 11 12  2  0
 12 13  1  0
 12 14  1  0
 14 15  1  0
 15 16  2  0
 16 17  1  0
 16 18  1  0
 18 19  1  0
 18 20  2  0
 20 21  1  0
 20 22  1  0
 22 23  1  0
 22 24  2  0
 10 25  1  0
 25 26  1  0
 25 27  2  0
 27 28  1  0
 27 29  1  0
 29 30  2  0
  6 31  1  0
 31 32  1  0
 31 33  2  0
 33 34  1  0
 33  2  1  0
 29  7  1  0
 24 11  1  0
 24 15  1  0
M  END
>  <cnnaffinity>  (1) 
-5.51086

>  <filename>  (1) 
O=c1ccc(-c2csc3ccccc23)cn1-c1cccnc1

$$$$
