
     RDKit          3D

 32 34  0  0  0  0  0  0  0  0999 V2000
    4.9095    1.7915   16.8926 H   0  0  0  0  0  0  0  0  0  0  0  0
    5.3655    1.3711   17.7858 C   0  0  0  0  0  0  0  0  0  0  0  0
    6.5705    0.8072   17.6137 N   0  0  0  0  0  0  0  0  0  0  0  0
    7.1697    0.3156   18.7033 C   0  0  0  0  0  0  0  0  0  0  0  0
    8.1561   -0.1144   18.5311 H   0  0  0  0  0  0  0  0  0  0  0  0
    6.6185    0.3431   20.0011 C   0  0  0  0  0  0  0  0  0  0  0  0
    7.3257   -0.3855   21.0968 C   0  0  0  0  0  0  0  0  0  0  0  0
    7.6883    0.4979   22.5618 S   0  0  0  0  0  0  0  0  0  0  0  0
    8.2640   -0.7682   23.6494 C   0  0  0  0  0  0  0  0  0  0  0  0
    8.2840   -0.3657   25.0842 C   0  0  0  0  0  0  0  0  0  0  0  0
    9.3959   -0.5506   25.9300 C   0  0  0  0  0  0  0  0  0  0  0  0
   10.3352   -0.9294   25.5400 H   0  0  0  0  0  0  0  0  0  0  0  0
    9.3143   -0.2266   27.2859 C   0  0  0  0  0  0  0  0  0  0  0  0
   10.1507   -0.3622   27.9649 H   0  0  0  0  0  0  0  0  0  0  0  0
    8.1247    0.3049   27.7998 C   0  0  0  0  0  0  0  0  0  0  0  0
    8.0563    0.6948   29.2386 N   0  0  0  0  0  4  0  0  0  0  0  0
    9.0395    0.5075   29.9384 O   0  0  0  0  0  0  0  0  0  0  0  0
    7.0141    1.1685   29.6543 O   0  0  0  0  0  1  0  0  0  0  0  0
    7.0024    0.4881   26.9815 C   0  0  0  0  0  0  0  0  0  0  0  0
    6.0909    0.8953   27.4069 H   0  0  0  0  0  0  0  0  0  0  0  0
    7.0947    0.1510   25.6370 C   0  0  0  0  0  0  0  0  0  0  0  0
    6.2375    0.2739   24.9830 H   0  0  0  0  0  0  0  0  0  0  0  0
    8.5898   -2.0093   23.2387 C   0  0  0  0  0  0  0  0  0  0  0  0
    9.0165   -2.7305   23.9309 H   0  0  0  0  0  0  0  0  0  0  0  0
    8.2889   -2.5590   21.9102 C   0  0  0  0  0  0  0  0  0  0  0  0
    8.5238   -3.7273   21.6406 O   0  0  0  0  0  0  0  0  0  0  0  0
    7.6544   -1.6785   20.9239 C   0  0  0  0  0  0  0  0  0  0  0  0
    7.3911   -2.1685   19.9985 H   0  0  0  0  0  0  0  0  0  0  0  0
    5.3565    0.9431   20.1595 C   0  0  0  0  0  0  0  0  0  0  0  0
    4.8943    0.9898   21.1480 H   0  0  0  0  0  0  0  0  0  0  0  0
    4.7176    1.4531   19.0242 C   0  0  0  0  0  0  0  0  0  0  0  0
    3.7475    1.9357   19.0926 H   0  0  0  0  0  0  0  0  0  0  0  0
  1  2  1  0
  2  3  2  0
  3  4  1  0
  4  5  1  0
  4  6  2  0
  6  7  1  0
  7  8  1  0
  8  9  1  0
  9 10  1  0
 10 11  2  0
 11 12  1  0
 11 13  1  0
 13 14  1  0
 13 15  2  0
 15 16  1  0
 16 17  2  0
 16 18  1  0
 15 19  1  0
 19 20  1  0
 19 21  2  0
 21 22  1  0
  9 23  2  0
 23 24  1  0
 23 25  1  0
 25 26  2  0
 25 27  1  0
 27 28  1  0
  6 29  1  0
 29 30  1  0
 29 31  2  0
 31 32  1  0
 31  2  1  0
 27  7  2  0
 21 10  1  0
M  CHG  2  16   1  18  -1
M  END
>  <cnnaffinity>  (1) 
-5.18483

>  <filename>  (1) 
O=c1cc(-c2ccc([N+](=O)[O-])cc2)sc(-c2cccnc2)c1

$$$$
