
     RDKit          3D

 36 38  0  0  0  0  0  0  0  0999 V2000
    9.9812    2.4316   21.7939 H   0  0  0  0  0  0  0  0  0  0  0  0
    9.3469    1.5477   21.9273 C   0  0  0  0  0  0  0  0  0  0  0  0
    9.5337    0.5118   21.1194 C   0  0  0  0  0  0  0  0  0  0  0  0
   10.4036    0.6017   20.5102 H   0  0  0  0  0  0  0  0  0  0  0  0
    8.8352   -0.8332   21.0270 C   0  0  2  0  0  0  0  0  0  0  0  0
    9.2393   -1.3094   20.1225 H   0  0  0  0  0  0  0  0  0  0  0  0
    7.3734   -0.7956   20.9117 N   0  0  0  0  0  0  0  0  0  0  0  0
    6.7170   -0.0663   19.8828 C   0  0  0  0  0  0  0  0  0  0  0  0
    7.2392    0.0561   18.5742 C   0  0  0  0  0  0  0  0  0  0  0  0
    8.1944   -0.4080   18.3305 H   0  0  0  0  0  0  0  0  0  0  0  0
    6.6123    0.6961   17.5781 N   0  0  0  0  0  0  0  0  0  0  0  0
    5.4398    1.2890   17.8553 C   0  0  0  0  0  0  0  0  0  0  0  0
    4.9465    1.7957   17.0281 H   0  0  0  0  0  0  0  0  0  0  0  0
    4.8549    1.2696   19.1278 C   0  0  0  0  0  0  0  0  0  0  0  0
    3.9123    1.7846   19.2947 H   0  0  0  0  0  0  0  0  0  0  0  0
    5.5002    0.5736   20.1573 C   0  0  0  0  0  0  0  0  0  0  0  0
    5.0960    0.5254   21.1686 H   0  0  0  0  0  0  0  0  0  0  0  0
    6.7382   -1.7546   21.6957 C   0  0  0  0  0  0  0  0  0  0  0  0
    5.6178   -2.1881   21.5394 O   0  0  0  0  0  0  0  0  0  0  0  0
    7.7136   -2.1676   22.7735 C   0  0  0  0  0  0  0  0  0  0  0  0
    7.4393   -1.6004   23.6673 H   0  0  0  0  0  0  0  0  0  0  0  0
    7.5936   -3.2330   22.9756 H   0  0  0  0  0  0  0  0  0  0  0  0
    9.0910   -1.7597   22.2423 C   0  0  0  0  0  0  0  0  0  0  0  0
    9.7011   -1.2496   22.9946 H   0  0  0  0  0  0  0  0  0  0  0  0
    9.6690   -2.6264   21.9184 H   0  0  0  0  0  0  0  0  0  0  0  0
    8.3395    1.5926   23.0018 C   0  0  0  0  0  0  0  0  0  0  0  0
    7.0843    2.1483   22.7372 C   0  0  0  0  0  0  0  0  0  0  0  0
    6.8738    2.5241   21.7371 H   0  0  0  0  0  0  0  0  0  0  0  0
    6.1083    2.1878   23.7344 C   0  0  0  0  0  0  0  0  0  0  0  0
    5.1309    2.6045   23.5134 H   0  0  0  0  0  0  0  0  0  0  0  0
    6.3891    1.6849   25.0079 C   0  0  0  0  0  0  0  0  0  0  0  0
    5.6277    1.7055   25.7824 H   0  0  0  0  0  0  0  0  0  0  0  0
    7.6473    1.1370   25.2796 C   0  0  0  0  0  0  0  0  0  0  0  0
    7.8749    0.7368   26.2617 H   0  0  0  0  0  0  0  0  0  0  0  0
    8.6132    1.0763   24.2740 C   0  0  0  0  0  0  0  0  0  0  0  0
    9.5833    0.6210   24.4682 H   0  0  0  0  0  0  0  0  0  0  0  0
  1  2  1  0
  2  3  2  3
  3  4  1  0
  3  5  1  0
  5  6  1  6
  5  7  1  0
  7  8  1  0
  8  9  2  0
  9 10  1  0
  9 11  1  0
 11 12  2  0
 12 13  1  0
 12 14  1  0
 14 15  1  0
 14 16  2  0
 16 17  1  0
  7 18  1  0
 18 19  2  0
 18 20  1  0
 20 21  1  0
 20 22  1  0
 20 23  1  0
 23 24  1  0
 23 25  1  0
  2 26  1  0
 26 27  2  0
 27 28  1  0
 27 29  1  0
 29 30  1  0
 29 31  2  0
 31 32  1  0
 31 33  1  0
 33 34  1  0
 33 35  2  0
 35 36  1  0
 23  5  1  0
 35 26  1  0
 16  8  1  0
M  END
>  <cnnaffinity>  (1) 
-5.05581

>  <filename>  (1) 
O=C1CC[C@H](C=Cc2ccccc2)N1c1cccnc1

$$$$
