
     RDKit          3D

 35 38  0  0  0  0  0  0  0  0999 V2000
    4.9487    1.8271   16.9540 H   0  0  0  0  0  0  0  0  0  0  0  0
    5.4369    1.3299   17.7890 C   0  0  0  0  0  0  0  0  0  0  0  0
    6.6228    0.7532   17.5382 N   0  0  0  0  0  0  0  0  0  0  0  0
    7.2619    0.1792   18.5692 C   0  0  0  0  0  0  0  0  0  0  0  0
    8.2359   -0.2437   18.3242 H   0  0  0  0  0  0  0  0  0  0  0  0
    6.7553    0.1188   19.8809 C   0  0  0  0  0  0  0  0  0  0  0  0
    7.4985   -0.5037   21.0210 C   0  0  0  0  0  0  0  0  0  0  0  0
    7.1507   -0.0712   22.2790 N   0  0  0  0  0  0  0  0  0  0  0  0
    7.7282   -0.5854   23.3591 C   0  0  0  0  0  0  0  0  0  0  0  0
    7.4949    0.0584   24.6859 C   0  0  0  0  0  0  0  0  0  0  0  0
    8.1782   -0.3198   25.7529 N   0  0  0  0  0  0  0  0  0  0  0  0
    7.9885    0.3440   26.9344 C   0  0  0  0  0  0  0  0  0  0  0  0
    8.7290   -0.0827   28.0773 C   0  0  0  0  0  0  0  0  0  0  0  0
    9.4097   -0.9148   27.9256 H   0  0  0  0  0  0  0  0  0  0  0  0
    8.5658    0.5502   29.2954 C   0  0  0  0  0  0  0  0  0  0  0  0
    9.1347    0.2230   30.1642 H   0  0  0  0  0  0  0  0  0  0  0  0
    7.6640    1.6420   29.4324 C   0  0  0  0  0  0  0  0  0  0  0  0
    7.5104    2.0795   30.4168 H   0  0  0  0  0  0  0  0  0  0  0  0
    6.9498    2.1030   28.3484 C   0  0  0  0  0  0  0  0  0  0  0  0
    6.2611    2.9430   28.4432 H   0  0  0  0  0  0  0  0  0  0  0  0
    7.0950    1.4567   27.0819 C   0  0  0  0  0  0  0  0  0  0  0  0
    6.3468    1.8192   25.9257 C   0  0  0  0  0  0  0  0  0  0  0  0
    5.6321    2.6381   25.9934 H   0  0  0  0  0  0  0  0  0  0  0  0
    6.5371    1.1400   24.7535 C   0  0  0  0  0  0  0  0  0  0  0  0
    5.9923    1.4140   23.8574 H   0  0  0  0  0  0  0  0  0  0  0  0
    8.6135   -1.7838   23.2976 C   0  0  0  0  0  0  0  0  0  0  0  0
    9.0539   -2.5180   24.1593 O   0  0  0  0  0  0  0  0  0  0  0  0
    8.9745   -2.0825   21.9721 N   0  0  0  0  0  0  0  0  0  0  0  0
    9.6296   -2.8551   21.9567 H   0  0  0  0  0  0  0  0  0  0  0  0
    8.4454   -1.4820   20.8580 C   0  0  0  0  0  0  0  0  0  0  0  0
    8.7862   -1.8325   19.8939 H   0  0  0  0  0  0  0  0  0  0  0  0
    5.4865    0.6831   20.0997 C   0  0  0  0  0  0  0  0  0  0  0  0
    5.0389    0.5983   21.0891 H   0  0  0  0  0  0  0  0  0  0  0  0
    4.8331    1.3182   19.0492 C   0  0  0  0  0  0  0  0  0  0  0  0
    3.8835    1.8143   19.2031 H   0  0  0  0  0  0  0  0  0  0  0  0
  1  2  1  0
  2  3  2  0
  3  4  1  0
  4  5  1  0
  4  6  2  0
  6  7  1  0
  7  8  1  0
  8  9  2  0
  9 10  1  0
 10 11  2  0
 11 12  1  0
 12 13  2  0
 13 14  1  0
 13 15  1  0
 15 16  1  0
 15 17  2  0
 17 18  1  0
 17 19  1  0
 19 20  1  0
 19 21  2  0
 21 22  1  0
 22 23  1  0
 22 24  2  0
 24 25  1  0
  9 26  1  0
 26 27  2  0
 26 28  1  0
 28 29  1  0
 28 30  1  0
 30 31  1  0
  6 32  1  0
 32 33  1  0
 32 34  2  0
 34 35  1  0
 34  2  1  0
 30  7  2  0
 24 10  1  0
 21 12  1  0
M  END
>  <cnnaffinity>  (1) 
-5.16654

>  <filename>  (1) 
O=c1[nH]cc(-c2cccnc2)nc1-c1ccc2ccccc2n1

$$$$
