
     RDKit          3D

 30 33  0  0  0  0  0  0  0  0999 V2000
    4.9231    1.8262   16.9417 H   0  0  0  0  0  0  0  0  0  0  0  0
    5.3718    1.3110   17.7894 C   0  0  0  0  0  0  0  0  0  0  0  0
    6.5348    0.6869   17.5494 N   0  0  0  0  0  0  0  0  0  0  0  0
    7.1417    0.0916   18.5846 C   0  0  0  0  0  0  0  0  0  0  0  0
    8.0857   -0.3930   18.3418 H   0  0  0  0  0  0  0  0  0  0  0  0
    6.6379    0.0704   19.9028 C   0  0  0  0  0  0  0  0  0  0  0  0
    7.3448   -0.6686   20.9612 C   0  0  0  0  0  0  0  0  0  0  0  0
    7.6966   -1.9539   20.9786 C   0  0  0  0  0  0  0  0  0  0  0  0
    7.4609   -2.7326   20.2851 H   0  0  0  0  0  0  0  0  0  0  0  0
    8.2885   -2.3156   22.1511 O   0  0  0  0  0  0  0  0  0  0  0  0
    8.2822   -1.2266   22.9939 C   0  0  0  0  0  0  0  0  0  0  0  0
    8.6861   -1.2363   24.1139 O   0  0  0  0  0  0  0  0  0  0  0  0
    7.7149   -0.1951   22.2483 N   0  0  0  0  0  0  0  0  0  0  0  0
    7.5044    1.0087   22.8558 C   0  0  0  0  0  0  0  0  0  0  0  0
    7.5185    1.2618   24.1176 N   0  0  0  0  0  0  0  0  0  0  0  0
    7.2728    2.6331   24.1668 C   0  0  0  0  0  0  0  0  0  0  0  0
    7.2082    3.5144   25.2549 C   0  0  0  0  0  0  0  0  0  0  0  0
    7.3733    3.1114   26.2522 H   0  0  0  0  0  0  0  0  0  0  0  0
    6.9477    4.8635   24.9862 C   0  0  0  0  0  0  0  0  0  0  0  0
    6.8989    5.5687   25.8136 H   0  0  0  0  0  0  0  0  0  0  0  0
    6.7510    5.3155   23.6609 C   0  0  0  0  0  0  0  0  0  0  0  0
    6.5406    6.3666   23.4820 H   0  0  0  0  0  0  0  0  0  0  0  0
    6.8230    4.4453   22.5625 C   0  0  0  0  0  0  0  0  0  0  0  0
    6.6602    4.7717   21.5355 H   0  0  0  0  0  0  0  0  0  0  0  0
    7.1080    3.1187   22.8658 C   0  0  0  0  0  0  0  0  0  0  0  0
    7.2758    2.0538   22.0221 O   0  0  0  0  0  0  0  0  0  0  0  0
    5.3883    0.6845   20.1076 C   0  0  0  0  0  0  0  0  0  0  0  0
    4.9208    0.6534   21.0902 H   0  0  0  0  0  0  0  0  0  0  0  0
    4.7532    1.3224   19.0418 C   0  0  0  0  0  0  0  0  0  0  0  0
    3.8138    1.8507   19.1737 H   0  0  0  0  0  0  0  0  0  0  0  0
  1  2  1  0
  2  3  2  0
  3  4  1  0
  4  5  1  0
  4  6  2  0
  6  7  1  0
  7  8  2  0
  8  9  1  0
  8 10  1  0
 10 11  1  0
 11 12  2  0
 11 13  1  0
 13 14  1  0
 14 15  2  0
 15 16  1  0
 16 17  2  0
 17 18  1  0
 17 19  1  0
 19 20  1  0
 19 21  2  0
 21 22  1  0
 21 23  1  0
 23 24  1  0
 23 25  2  0
 25 26  1  0
  6 27  1  0
 27 28  1  0
 27 29  2  0
 29 30  1  0
 29  2  1  0
 13  7  1  0
 26 14  1  0
 25 16  1  0
M  END
>  <cnnaffinity>  (1) 
-4.9915

>  <filename>  (1) 
O=c1occ(-c2cccnc2)n1-c1nc2ccccc2o1

$$$$
