
     RDKit          3D

 33 35  0  0  0  0  0  0  0  0999 V2000
    4.9187    1.8098   16.9683 H   0  0  0  0  0  0  0  0  0  0  0  0
    5.3830    1.3077   17.8154 C   0  0  0  0  0  0  0  0  0  0  0  0
    6.5455    0.6873   17.5594 N   0  0  0  0  0  0  0  0  0  0  0  0
    7.1537    0.0713   18.5802 C   0  0  0  0  0  0  0  0  0  0  0  0
    8.1012   -0.4179   18.3465 H   0  0  0  0  0  0  0  0  0  0  0  0
    6.6455    0.0125   19.8918 C   0  0  0  0  0  0  0  0  0  0  0  0
    7.3690   -0.7152   20.9715 C   0  0  0  0  0  0  0  0  0  0  0  0
    8.7772   -0.5685   21.1510 C   0  0  0  0  0  0  0  0  0  0  0  0
    9.3041    0.1016   20.4767 H   0  0  0  0  0  0  0  0  0  0  0  0
    9.4232   -1.2346   22.1518 C   0  0  0  0  0  0  0  0  0  0  0  0
   10.4854   -1.1588   22.3439 H   0  0  0  0  0  0  0  0  0  0  0  0
    8.7129   -2.1304   23.0462 C   0  0  0  0  0  0  0  0  0  0  0  0
    9.2524   -2.7684   23.9463 O   0  0  0  0  0  0  0  0  0  0  0  0
    7.3294   -2.2436   22.8211 N   0  0  0  0  0  0  0  0  0  0  0  0
    6.5438   -3.0704   23.7416 C   0  0  1  0  0  0  0  0  0  0  0  0
    5.5061   -2.9712   23.3971 H   0  0  0  0  0  0  0  0  0  0  0  0
    6.9654   -4.4555   23.6206 N   0  0  0  0  0  0  0  0  0  0  0  0
    7.9210   -4.3926   23.2946 H   0  0  0  0  0  0  0  0  0  0  0  0
    6.9173   -5.0716   24.9527 C   0  0  0  0  0  0  0  0  0  0  0  0
    5.9247   -5.5184   25.1248 H   0  0  0  0  0  0  0  0  0  0  0  0
    7.6383   -5.9007   25.0041 H   0  0  0  0  0  0  0  0  0  0  0  0
    7.1927   -3.9321   25.9611 C   0  0  0  0  0  0  0  0  0  0  0  0
    6.7263   -4.1050   26.9412 H   0  0  0  0  0  0  0  0  0  0  0  0
    8.2728   -3.8332   26.1129 H   0  0  0  0  0  0  0  0  0  0  0  0
    6.6500   -2.6714   25.2421 C   0  0  0  0  0  0  0  0  0  0  0  0
    5.6527   -2.3836   25.5973 H   0  0  0  0  0  0  0  0  0  0  0  0
    7.3049   -1.8034   25.3823 H   0  0  0  0  0  0  0  0  0  0  0  0
    6.7004   -1.5426   21.8239 C   0  0  0  0  0  0  0  0  0  0  0  0
    5.6272   -1.6890   21.7396 H   0  0  0  0  0  0  0  0  0  0  0  0
    5.4226    0.6565   20.1323 C   0  0  0  0  0  0  0  0  0  0  0  0
    5.0021    0.6477   21.1378 H   0  0  0  0  0  0  0  0  0  0  0  0
    4.7892    1.3231   19.0821 C   0  0  0  0  0  0  0  0  0  0  0  0
    3.8597    1.8569   19.2279 H   0  0  0  0  0  0  0  0  0  0  0  0
  1  2  1  0
  2  3  2  0
  3  4  1  0
  4  5  1  0
  4  6  2  0
  6  7  1  0
  7  8  1  0
  8  9  1  0
  8 10  2  0
 10 11  1  0
 10 12  1  0
 12 13  2  0
 12 14  1  0
 14 15  1  0
 15 16  1  6
 15 17  1  0
 17 18  1  0
 17 19  1  0
 19 20  1  0
 19 21  1  0
 19 22  1  0
 22 23  1  0
 22 24  1  0
 22 25  1  0
 25 26  1  0
 25 27  1  0
 14 28  1  0
 28 29  1  0
  6 30  1  0
 30 31  1  0
 30 32  2  0
 32 33  1  0
 32  2  1  0
 28  7  2  0
 25 15  1  0
M  END
>  <cnnaffinity>  (1) 
-5.00997

>  <filename>  (1) 
O=c1ccc(-c2cccnc2)cn1[C@@H]1CCCN1

$$$$
