
     RDKit          3D

 43 47  0  0  0  0  0  0  0  0999 V2000
    6.2598   -0.2815   26.1431 O   0  0  0  0  0  0  0  0  0  0  0  0
    5.7235   -1.2683   25.6753 C   0  0  0  0  0  0  0  0  0  0  0  0
    4.3243   -1.6578   26.1366 C   0  0  0  0  0  0  0  0  0  0  0  0
    3.6118   -2.5808   25.3194 O   0  0  0  0  0  0  0  0  0  0  0  0
    4.3587   -3.5244   24.6607 C   0  0  0  0  0  0  0  0  0  0  0  0
    3.7082   -4.6916   24.2772 C   0  0  0  0  0  0  0  0  0  0  0  0
    4.3867   -5.6798   23.5620 C   0  0  0  0  0  0  0  0  0  0  0  0
    5.7338   -5.4893   23.2298 C   0  0  0  0  0  0  0  0  0  0  0  0
    6.3947   -4.3226   23.6226 C   0  0  0  0  0  0  0  0  0  0  0  0
    5.7192   -3.3229   24.3440 C   0  0  0  0  0  0  0  0  0  0  0  0
    6.3462   -2.1242   24.7810 N   0  0  0  0  0  0  0  0  0  0  0  0
    7.6067   -1.7165   24.1793 C   0  0  0  0  0  0  0  0  0  0  0  0
    7.5405   -1.2978   22.7325 C   0  0  0  0  0  0  0  0  0  0  0  0
    6.5969   -0.6592   22.0705 N   0  0  0  0  0  0  0  0  0  0  0  0
    7.1022   -0.5744   20.8107 C   0  0  0  0  0  0  0  0  0  0  0  0
    6.4222    0.1085   19.7035 C   0  0  0  0  0  0  0  0  0  0  0  0
    5.2207    0.8172   19.8684 C   0  0  0  0  0  0  0  0  0  0  0  0
    4.7016    1.4923   18.7630 C   0  0  0  0  0  0  0  0  0  0  0  0
    5.3863    1.4264   17.5429 C   0  0  0  0  0  0  0  0  0  0  0  0
    6.5233    0.7349   17.3699 N   0  0  0  0  0  0  0  0  0  0  0  0
    7.0231    0.1012   18.4336 C   0  0  0  0  0  0  0  0  0  0  0  0
    7.9564   -0.4358   18.2728 H   0  0  0  0  0  0  0  0  0  0  0  0
    5.0069    1.9429   16.6625 H   0  0  0  0  0  0  0  0  0  0  0  0
    3.7897    2.0763   18.8351 H   0  0  0  0  0  0  0  0  0  0  0  0
    4.7270    0.8376   20.8436 H   0  0  0  0  0  0  0  0  0  0  0  0
    8.2936   -1.1277   20.6682 N   0  0  0  0  0  0  0  0  0  0  0  0
    8.5885   -1.5436   21.9162 N   0  0  0  0  0  0  0  0  0  0  0  0
    9.8045   -2.2719   22.1537 C   0  0  0  0  0  0  0  0  0  0  0  0
   11.1195   -1.5515   22.0902 C   0  0  0  0  0  0  0  0  0  0  0  0
   10.6126   -2.0872   23.4023 C   0  0  0  0  0  0  0  0  0  0  0  0
   10.2907   -1.3619   24.1466 H   0  0  0  0  0  0  0  0  0  0  0  0
   11.0813   -2.9770   23.8240 H   0  0  0  0  0  0  0  0  0  0  0  0
   11.0695   -0.4775   21.9304 H   0  0  0  0  0  0  0  0  0  0  0  0
   11.9789   -2.0386   21.6285 H   0  0  0  0  0  0  0  0  0  0  0  0
    9.7381   -3.2595   21.7333 H   0  0  0  0  0  0  0  0  0  0  0  0
    8.3059   -2.5443   24.2918 H   0  0  0  0  0  0  0  0  0  0  0  0
    8.0067   -0.8837   24.7624 H   0  0  0  0  0  0  0  0  0  0  0  0
    7.4456   -4.1984   23.3827 H   0  0  0  0  0  0  0  0  0  0  0  0
    6.2739   -6.2507   22.6734 H   0  0  0  0  0  0  0  0  0  0  0  0
    3.8743   -6.5955   23.2793 H   0  0  0  0  0  0  0  0  0  0  0  0
    2.6713   -4.7847   24.5791 H   0  0  0  0  0  0  0  0  0  0  0  0
    4.4263   -2.0468   27.1565 H   0  0  0  0  0  0  0  0  0  0  0  0
    3.7363   -0.7415   26.1720 H   0  0  0  0  0  0  0  0  0  0  0  0
  1  2  2  0
  2  3  1  0
  3  4  1  0
  4  5  1  0
  5  6  2  0
  6  7  1  0
  7  8  2  0
  8  9  1  0
  9 10  2  0
 10 11  1  0
 11 12  1  0
 12 13  1  0
 13 14  2  0
 14 15  1  0
 15 16  1  0
 16 17  2  0
 17 18  1  0
 18 19  2  0
 19 20  1  0
 20 21  2  0
 21 22  1  0
 19 23  1  0
 18 24  1  0
 17 25  1  0
 15 26  2  0
 26 27  1  0
 27 28  1  0
 28 29  1  0
 29 30  1  0
 30 31  1  0
 30 32  1  0
 29 33  1  0
 29 34  1  0
 28 35  1  0
 12 36  1  0
 12 37  1  0
  9 38  1  0
  8 39  1  0
  7 40  1  0
  6 41  1  0
  3 42  1  0
  3 43  1  0
 11  2  1  0
 27 13  1  0
 30 28  1  0
 10  5  1  0
 21 16  1  0
M  END
>  <cnnaffinity>  (1) 
-5.71683

>  <filename>  (1) 
O=C1COc2ccccc2N1Cc1nc(-c2cccnc2)nn1C1CC1

$$$$
