
     RDKit          3D

 33 35  0  0  0  0  0  0  0  0999 V2000
    5.0607    1.7309   16.9642 H   0  0  0  0  0  0  0  0  0  0  0  0
    5.4766    1.2311   17.8355 C   0  0  0  0  0  0  0  0  0  0  0  0
    6.6048    0.5336   17.6300 N   0  0  0  0  0  0  0  0  0  0  0  0
    7.1227   -0.1079   18.6816 C   0  0  0  0  0  0  0  0  0  0  0  0
    8.0360   -0.6712   18.4904 H   0  0  0  0  0  0  0  0  0  0  0  0
    6.5828   -0.0748   19.9835 C   0  0  0  0  0  0  0  0  0  0  0  0
    7.2927   -0.7978   21.0567 C   0  0  0  0  0  0  0  0  0  0  0  0
    7.7625   -0.2549   22.2426 C   0  0  0  0  0  0  0  0  0  0  0  0
    7.7432    1.2466   22.4794 C   0  0  1  0  0  0  0  0  0  0  0  0
    6.6967    1.5699   22.5829 H   0  0  0  0  0  0  0  0  0  0  0  0
    8.4779    1.7947   23.7146 C   0  0  0  0  0  0  0  0  0  0  0  0
    7.9791    1.5719   24.6645 H   0  0  0  0  0  0  0  0  0  0  0  0
    9.4901    1.3407   23.7595 H   0  0  0  0  0  0  0  0  0  0  0  0
    8.4815    3.2205   23.4195 N   0  0  0  0  0  0  0  0  0  0  0  0
    9.0266    3.7739   24.0712 H   0  0  0  0  0  0  0  0  0  0  0  0
    8.9853    3.3249   22.0517 C   0  0  0  0  0  0  0  0  0  0  0  0
   10.0889    3.3239   22.0054 H   0  0  0  0  0  0  0  0  0  0  0  0
    8.6283    4.2495   21.5904 H   0  0  0  0  0  0  0  0  0  0  0  0
    8.4114    2.0805   21.3511 C   0  0  0  0  0  0  0  0  0  0  0  0
    9.1994    1.4938   20.8674 H   0  0  0  0  0  0  0  0  0  0  0  0
    7.6822    2.3491   20.5861 H   0  0  0  0  0  0  0  0  0  0  0  0
    8.3378   -1.1590   23.2047 C   0  0  0  0  0  0  0  0  0  0  0  0
    8.6509   -0.7431   24.1644 H   0  0  0  0  0  0  0  0  0  0  0  0
    8.4975   -2.4868   22.9428 C   0  0  0  0  0  0  0  0  0  0  0  0
    8.9539   -3.1846   23.6331 H   0  0  0  0  0  0  0  0  0  0  0  0
    8.0982   -3.0488   21.6585 C   0  0  0  0  0  0  0  0  0  0  0  0
    8.2211   -4.2107   21.3068 O   0  0  0  0  0  0  0  0  0  0  0  0
    7.5385   -2.1298   20.7886 N   0  0  0  0  0  0  0  0  0  0  0  0
    7.3109   -2.5376   19.8956 H   0  0  0  0  0  0  0  0  0  0  0  0
    5.3991    0.6607   20.1757 C   0  0  0  0  0  0  0  0  0  0  0  0
    4.9281    0.7103   21.1614 H   0  0  0  0  0  0  0  0  0  0  0  0
    4.8361    1.3157   19.0763 C   0  0  0  0  0  0  0  0  0  0  0  0
    3.9212    1.8900   19.1653 H   0  0  0  0  0  0  0  0  0  0  0  0
  1  2  1  0
  2  3  2  0
  3  4  1  0
  4  5  1  0
  4  6  2  0
  6  7  1  0
  7  8  2  0
  8  9  1  0
  9 10  1  1
  9 11  1  0
 11 12  1  0
 11 13  1  0
 11 14  1  0
 14 15  1  0
 14 16  1  0
 16 17  1  0
 16 18  1  0
 16 19  1  0
 19 20  1  0
 19 21  1  0
  8 22  1  0
 22 23  1  0
 22 24  2  0
 24 25  1  0
 24 26  1  0
 26 27  2  0
 26 28  1  0
 28 29  1  0
  6 30  1  0
 30 31  1  0
 30 32  2  0
 32 33  1  0
 32  2  1  0
 28  7  1  0
 19  9  1  0
M  END
>  <cnnaffinity>  (1) 
-5.18343

>  <filename>  (1) 
O=c1ccc([C@@H]2CCNC2)c(-c2cccnc2)[nH]1

$$$$
