
     RDKit          3D

 32 34  0  0  0  0  0  0  0  0999 V2000
    4.9753    1.8197   16.9963 H   0  0  0  0  0  0  0  0  0  0  0  0
    5.4028    1.2855   17.8448 C   0  0  0  0  0  0  0  0  0  0  0  0
    6.5441    0.6252   17.6069 N   0  0  0  0  0  0  0  0  0  0  0  0
    7.1059   -0.0138   18.6364 C   0  0  0  0  0  0  0  0  0  0  0  0
    8.0608   -0.4966   18.4409 H   0  0  0  0  0  0  0  0  0  0  0  0
    6.5736   -0.0509   19.9395 C   0  0  0  0  0  0  0  0  0  0  0  0
    7.3189   -0.7536   21.0273 C   0  0  0  0  0  0  0  0  0  0  0  0
    6.6183   -1.5396   21.8021 N   0  0  0  0  0  0  0  0  0  0  0  0
    7.2515   -2.2606   22.7554 N   0  0  0  0  0  0  0  0  0  0  0  0
    6.3679   -3.1604   23.3302 N   0  0  0  0  0  0  0  0  0  0  0  0
    5.4942   -2.6250   23.3513 H   0  0  0  0  0  0  0  0  0  0  0  0
    6.7318   -3.7423   24.6348 C   0  0  0  0  0  0  0  0  0  0  0  0
    7.5218   -4.4837   24.4438 H   0  0  0  0  0  0  0  0  0  0  0  0
    7.1314   -2.9765   25.3252 H   0  0  0  0  0  0  0  0  0  0  0  0
    5.5541   -4.4213   25.2833 C   0  0  0  0  0  0  0  0  0  0  0  0
    5.0461   -5.9917   24.7751 S   0  0  0  0  0  0  0  0  0  0  0  0
    3.7987   -6.0372   25.9589 C   0  0  0  0  0  0  0  0  0  0  0  0
    3.1726   -6.9158   26.0429 H   0  0  0  0  0  0  0  0  0  0  0  0
    3.7656   -4.9002   26.7023 C   0  0  0  0  0  0  0  0  0  0  0  0
    3.0386   -4.7152   27.4868 H   0  0  0  0  0  0  0  0  0  0  0  0
    4.7818   -3.9742   26.3149 C   0  0  0  0  0  0  0  0  0  0  0  0
    4.9352   -3.0115   26.7901 H   0  0  0  0  0  0  0  0  0  0  0  0
    8.5840   -2.1503   23.0349 C   0  0  0  0  0  0  0  0  0  0  0  0
    8.9263   -2.7404   23.8818 H   0  0  0  0  0  0  0  0  0  0  0  0
    9.3879   -1.3557   22.3087 C   0  0  0  0  0  0  0  0  0  0  0  0
   10.4503   -1.2553   22.4748 H   0  0  0  0  0  0  0  0  0  0  0  0
    8.8212   -0.5838   21.2123 C   0  0  0  0  0  0  0  0  0  0  0  0
    9.5268    0.1339   20.5130 O   0  0  0  0  0  0  0  0  0  0  0  0
    5.3488    0.6011   20.1565 C   0  0  0  0  0  0  0  0  0  0  0  0
    4.8716    0.5724   21.1385 H   0  0  0  0  0  0  0  0  0  0  0  0
    4.7726    1.3011   19.0935 C   0  0  0  0  0  0  0  0  0  0  0  0
    3.8559    1.8642   19.2107 H   0  0  0  0  0  0  0  0  0  0  0  0
  1  2  1  0
  2  3  2  0
  3  4  1  0
  4  5  1  0
  4  6  2  0
  6  7  1  0
  7  8  2  0
  8  9  1  0
  9 10  1  0
 10 11  1  0
 10 12  1  0
 12 13  1  0
 12 14  1  0
 12 15  1  0
 15 16  1  0
 16 17  1  0
 17 18  1  0
 17 19  2  0
 19 20  1  0
 19 21  1  0
 21 22  1  0
  9 23  1  0
 23 24  1  0
 23 25  2  0
 25 26  1  0
 25 27  1  0
 27 28  2  0
  6 29  1  0
 29 30  1  0
 29 31  2  0
 31 32  1  0
 31  2  1  0
 27  7  1  0
 21 15  2  0
M  END
>  <cnnaffinity>  (1) 
-5.27955

>  <filename>  (1) 
O=c1ccn(NCc2cccs2)nc1-c1cccnc1

$$$$
