
     RDKit          3D

 43 46  0  0  0  0  0  0  0  0999 V2000
    5.0730    1.8974   16.9492 H   0  0  0  0  0  0  0  0  0  0  0  0
    5.5377    1.3355   17.7573 C   0  0  0  0  0  0  0  0  0  0  0  0
    6.7112    0.7399   17.4745 N   0  0  0  0  0  0  0  0  0  0  0  0
    7.3044    0.0508   18.4552 C   0  0  0  0  0  0  0  0  0  0  0  0
    8.2720   -0.3910   18.2334 H   0  0  0  0  0  0  0  0  0  0  0  0
    6.7376   -0.1251   19.7363 C   0  0  0  0  0  0  0  0  0  0  0  0
    7.3916   -0.8694   20.7465 N   0  0  0  0  0  0  0  0  0  0  0  0
    6.8355   -1.8053   21.6338 C   0  0  0  0  0  0  0  0  0  0  0  0
    5.6797   -2.2078   21.5709 O   0  0  0  0  0  0  0  0  0  0  0  0
    7.9811   -2.1314   22.5559 C   0  0  0  0  0  0  0  0  0  0  0  0
    7.9696   -2.9610   23.6869 N   0  0  0  0  0  0  0  0  0  0  0  0
    6.8798   -3.9246   23.8856 C   0  0  0  0  0  0  0  0  0  0  0  0
    6.2810   -3.9655   22.9730 H   0  0  0  0  0  0  0  0  0  0  0  0
    7.3247   -4.9159   24.0508 H   0  0  0  0  0  0  0  0  0  0  0  0
    5.9738   -3.5773   25.0898 C   0  0  0  0  0  0  0  0  0  0  0  0
    5.3558   -2.6989   24.8318 H   0  0  0  0  0  0  0  0  0  0  0  0
    5.2816   -4.4199   25.2515 H   0  0  0  0  0  0  0  0  0  0  0  0
    6.7446   -3.3342   26.3127 N   0  0  0  0  0  0  0  0  0  0  0  0
    6.0413   -2.8159   27.4317 C   0  0  0  0  0  0  0  0  0  0  0  0
    6.1305   -1.4656   27.8115 C   0  0  0  0  0  0  0  0  0  0  0  0
    6.7233   -0.7922   27.2029 H   0  0  0  0  0  0  0  0  0  0  0  0
    5.4936   -1.0094   28.9701 C   0  0  0  0  0  0  0  0  0  0  0  0
    5.6211    0.0237   29.2914 H   0  0  0  0  0  0  0  0  0  0  0  0
    4.7463   -1.8952   29.7503 C   0  0  0  0  0  0  0  0  0  0  0  0
    4.2731   -1.5477   30.6646 H   0  0  0  0  0  0  0  0  0  0  0  0
    4.6175   -3.2327   29.3642 C   0  0  0  0  0  0  0  0  0  0  0  0
    4.0529   -3.9276   29.9826 H   0  0  0  0  0  0  0  0  0  0  0  0
    5.2572   -3.6854   28.2065 C   0  0  0  0  0  0  0  0  0  0  0  0
    5.2068   -4.7232   27.9020 H   0  0  0  0  0  0  0  0  0  0  0  0
    8.1998   -3.2302   26.1773 C   0  0  0  0  0  0  0  0  0  0  0  0
    8.6178   -2.7411   27.0620 H   0  0  0  0  0  0  0  0  0  0  0  0
    8.6286   -4.2479   26.1519 H   0  0  0  0  0  0  0  0  0  0  0  0
    8.6423   -2.4708   24.9053 C   0  0  0  0  0  0  0  0  0  0  0  0
    9.7303   -2.5771   24.7926 H   0  0  0  0  0  0  0  0  0  0  0  0
    8.4347   -1.3977   25.0488 H   0  0  0  0  0  0  0  0  0  0  0  0
    9.0401   -1.4124   22.1134 C   0  0  0  0  0  0  0  0  0  0  0  0
   10.0427   -1.3897   22.5151 H   0  0  0  0  0  0  0  0  0  0  0  0
    8.7686   -0.6719   20.9526 N   0  0  0  0  0  0  0  0  0  0  0  0
    8.9912    0.3251   21.0403 H   0  0  0  0  0  0  0  0  0  0  0  0
    5.5164    0.4981   20.0186 C   0  0  0  0  0  0  0  0  0  0  0  0
    5.0803    0.3889   21.0103 H   0  0  0  0  0  0  0  0  0  0  0  0
    4.9161    1.2544   19.0090 C   0  0  0  0  0  0  0  0  0  0  0  0
    3.9838    1.7826   19.1880 H   0  0  0  0  0  0  0  0  0  0  0  0
  1  2  1  0
  2  3  2  0
  3  4  1  0
  4  5  1  0
  4  6  2  0
  6  7  1  0
  7  8  1  0
  8  9  2  0
  8 10  1  0
 10 11  1  0
 11 12  1  0
 12 13  1  0
 12 14  1  0
 12 15  1  0
 15 16  1  0
 15 17  1  0
 15 18  1  0
 18 19  1  0
 19 20  2  0
 20 21  1  0
 20 22  1  0
 22 23  1  0
 22 24  2  0
 24 25  1  0
 24 26  1  0
 26 27  1  0
 26 28  2  0
 28 29  1  0
 18 30  1  0
 30 31  1  0
 30 32  1  0
 30 33  1  0
 33 34  1  0
 33 35  1  0
 10 36  2  0
 36 37  1  0
 36 38  1  0
 38 39  1  0
  6 40  1  0
 40 41  1  0
 40 42  2  0
 42 43  1  0
 42  2  1  0
 38  7  1  0
 33 11  1  0
 28 19  1  0
M  END
>  <cnnaffinity>  (1) 
-5.29341

>  <filename>  (1) 
O=c1c(N2CCN(c3ccccc3)CC2)c[nH]n1-c1cccnc1

$$$$
