
     RDKit          3D

 31 33  0  0  0  0  0  0  0  0999 V2000
    9.7210    1.6162   21.7333 H   0  0  0  0  0  0  0  0  0  0  0  0
    9.4413    0.5821   21.9539 C   0  0  0  0  0  0  0  0  0  0  0  0
   10.4457   -0.2997   22.0803 C   0  0  0  0  0  0  0  0  0  0  0  0
   12.1490    0.2073   21.9594 S   0  0  0  0  0  0  0  0  0  0  0  0
   12.7307   -1.4757   22.1378 C   0  0  0  0  0  0  0  0  0  0  0  0
   13.8666   -1.8574   22.0876 O   0  0  0  0  0  0  0  0  0  0  0  0
   11.6542   -2.2861   22.3659 N   0  0  0  0  0  0  0  0  0  0  0  0
   11.8036   -3.2662   22.5069 H   0  0  0  0  0  0  0  0  0  0  0  0
   10.3866   -1.7756   22.3437 C   0  0  0  0  0  0  0  0  0  0  0  0
    9.4165   -2.4768   22.5203 O   0  0  0  0  0  0  0  0  0  0  0  0
    7.9672    0.2977   22.0751 C   0  0  2  0  0  0  0  0  0  0  0  0
    7.4728    1.2720   21.9407 H   0  0  0  0  0  0  0  0  0  0  0  0
    7.5267   -0.2594   23.4628 C   0  0  0  0  0  0  0  0  0  0  0  0
    8.3647   -0.6187   24.0752 H   0  0  0  0  0  0  0  0  0  0  0  0
    7.0156    0.5173   24.0488 H   0  0  0  0  0  0  0  0  0  0  0  0
    6.6303   -1.3287   23.1108 N   0  0  0  0  0  0  0  0  0  0  0  0
    6.0905   -1.8973   23.7367 H   0  0  0  0  0  0  0  0  0  0  0  0
    6.5163   -1.6665   21.8115 C   0  0  0  0  0  0  0  0  0  0  0  0
    5.8243   -2.5849   21.4119 O   0  0  0  0  0  0  0  0  0  0  0  0
    7.4047   -0.7035   21.0097 C   0  0  1  0  0  0  0  0  0  0  0  0
    8.2031   -1.3167   20.5788 H   0  0  0  0  0  0  0  0  0  0  0  0
    6.6641    0.0028   19.8873 C   0  0  0  0  0  0  0  0  0  0  0  0
    7.1737    0.0669   18.5779 C   0  0  0  0  0  0  0  0  0  0  0  0
    8.1235   -0.4147   18.3430 H   0  0  0  0  0  0  0  0  0  0  0  0
    6.5637    0.6867   17.5614 N   0  0  0  0  0  0  0  0  0  0  0  0
    5.3989    1.2968   17.8274 C   0  0  0  0  0  0  0  0  0  0  0  0
    4.9186    1.7946   16.9877 H   0  0  0  0  0  0  0  0  0  0  0  0
    4.8076    1.3090   19.0943 C   0  0  0  0  0  0  0  0  0  0  0  0
    3.8789    1.8405   19.2488 H   0  0  0  0  0  0  0  0  0  0  0  0
    5.4470    0.6477   20.1425 C   0  0  0  0  0  0  0  0  0  0  0  0
    5.0147    0.6298   21.1459 H   0  0  0  0  0  0  0  0  0  0  0  0
  1  2  1  0
  2  3  2  3
  3  4  1  0
  4  5  1  0
  5  6  2  0
  5  7  1  0
  7  8  1  0
  7  9  1  0
  9 10  2  0
  2 11  1  0
 11 12  1  6
 11 13  1  0
 13 14  1  0
 13 15  1  0
 13 16  1  0
 16 17  1  0
 16 18  1  0
 18 19  2  0
 18 20  1  0
 20 21  1  6
 20 22  1  0
 22 23  2  0
 23 24  1  0
 23 25  1  0
 25 26  2  0
 26 27  1  0
 26 28  1  0
 28 29  1  0
 28 30  2  0
 30 31  1  0
  9  3  1  0
 20 11  1  0
 30 22  1  0
M  END
>  <cnnaffinity>  (1) 
-5.69534

>  <filename>  (1) 
O=C1NC(=O)C(=C[C@@H]2CNC(=O)[C@H]2c2cccnc2)S1

$$$$
