
     RDKit          3D

 37 39  0  0  0  0  0  0  0  0999 V2000
    5.0498    1.8048   16.8934 H   0  0  0  0  0  0  0  0  0  0  0  0
    5.4774    1.2976   17.7548 C   0  0  0  0  0  0  0  0  0  0  0  0
    6.6367    0.6530   17.5471 N   0  0  0  0  0  0  0  0  0  0  0  0
    7.1864    0.0338   18.5925 C   0  0  0  0  0  0  0  0  0  0  0  0
    8.1363   -0.4665   18.4002 H   0  0  0  0  0  0  0  0  0  0  0  0
    6.6231    0.0007   19.8758 C   0  0  0  0  0  0  0  0  0  0  0  0
    7.3166   -0.7036   20.9481 C   0  0  0  0  0  0  0  0  0  0  0  0
    6.7450   -0.9402   22.0892 N   0  0  0  0  0  0  0  0  0  0  0  0
    7.6661   -1.6064   22.8754 N   0  0  0  0  0  0  0  0  0  0  0  0
    7.5433   -1.6808   24.3216 C   0  0  0  0  0  0  0  0  0  0  0  0
    8.0410   -2.6068   24.6319 H   0  0  0  0  0  0  0  0  0  0  0  0
    6.4667   -1.7546   24.5527 H   0  0  0  0  0  0  0  0  0  0  0  0
    8.2247   -0.5375   24.8842 N   0  0  0  0  0  0  0  0  0  0  0  0
    7.9255    0.2989   24.3963 H   0  0  0  0  0  0  0  0  0  0  0  0
    8.3880   -0.3394   26.3071 C   0  0  0  0  0  0  0  0  0  0  0  0
    8.9693   -1.2220   26.6774 H   0  0  0  0  0  0  0  0  0  0  0  0
    9.2590    0.9269   26.4364 C   0  0  0  0  0  0  0  0  0  0  0  0
   10.3439    0.6737   26.4526 H   0  0  0  0  0  0  0  0  0  0  0  0
    9.0910    1.6521   25.6172 H   0  0  0  0  0  0  0  0  0  0  0  0
    7.5388    0.8014   28.4193 C   0  0  0  0  0  0  0  0  0  0  0  0
    8.7500   -0.0549   28.9874 H   0  0  0  0  0  0  0  0  0  0  0  0
    8.4421    1.5132   28.0267 H   0  0  0  0  0  0  0  0  0  0  0  0
    7.3840    0.8967   28.1593 C   0  0  0  0  0  0  0  0  0  0  0  0
    7.4099    0.8111   29.9097 H   0  0  0  0  0  0  0  0  0  0  0  0
    6.6682    1.7972   27.8974 H   0  0  0  0  0  0  0  0  0  0  0  0
    7.1416   -0.0959   27.1928 C   0  0  0  0  0  0  0  0  0  0  0  0
    6.6232   -1.1105   27.3504 H   0  0  0  0  0  0  0  0  0  0  0  0
    6.4254    0.3490   26.4335 H   0  0  0  0  0  0  0  0  0  0  0  0
    8.9059   -1.7356   22.2955 C   0  0  0  0  0  0  0  0  0  0  0  0
    9.8841   -2.2451   22.7949 O   0  0  0  0  0  0  0  0  0  0  0  0
    8.7404   -1.1778   20.9035 C   0  0  0  0  0  0  0  0  0  0  0  0
    8.9272   -1.9835   20.1880 H   0  0  0  0  0  0  0  0  0  0  0  0
    9.4786   -0.3948   20.7023 H   0  0  0  0  0  0  0  0  0  0  0  0
    5.4014    0.6740   20.0788 C   0  0  0  0  0  0  0  0  0  0  0  0
    4.9355    0.6799   21.0666 H   0  0  0  0  0  0  0  0  0  0  0  0
    4.8292    1.3334   18.9955 C   0  0  0  0  0  0  0  0  0  0  0  0
    3.9018    1.8879   19.0979 H   0  0  0  0  0  0  0  0  0  0  0  0
  1  2  1  0
  2  3  2  0
  3  4  1  0
  4  5  1  0
  4  6  2  0
  6  7  1  0
  7  8  2  0
  8  9  1  0
  9 10  1  0
 10 11  1  0
 10 12  1  0
 10 13  1  0
 13 14  1  0
 13 15  1  0
 15 16  1  0
 15 17  1  0
 17 18  1  0
 17 19  1  0
 17 20  1  0
 20 21  1  0
 20 22  1  0
 20 23  1  0
 23 24  1  0
 23 25  1  0
 23 26  1  0
 26 27  1  0
 26 28  1  0
  9 29  1  0
 29 30  2  0
 29 31  1  0
 31 32  1  0
 31 33  1  0
  6 34  1  0
 34 35  1  0
 34 36  2  0
 36 37  1  0
 36  2  1  0
 31  7  1  0
 26 15  1  0
M  END
>  <cnnaffinity>  (1) 
-4.66391

>  <filename>  (1) 
O=C1CC(c2cccnc2)=NN1CNC1CCCC1

$$$$
