
     RDKit          3D

 40 43  0  0  0  0  0  0  0  0999 V2000
    4.9400    1.8037   16.9949 H   0  0  0  0  0  0  0  0  0  0  0  0
    5.4043    1.2973   17.8402 C   0  0  0  0  0  0  0  0  0  0  0  0
    6.5615    0.6684   17.5806 N   0  0  0  0  0  0  0  0  0  0  0  0
    7.1728    0.0431   18.5940 C   0  0  0  0  0  0  0  0  0  0  0  0
    8.1087   -0.4550   18.3494 H   0  0  0  0  0  0  0  0  0  0  0  0
    6.6655   -0.0136   19.9062 C   0  0  0  0  0  0  0  0  0  0  0  0
    7.3521   -0.7082   20.9549 N   0  0  0  0  0  0  0  0  0  0  0  0
    6.5793   -1.4383   21.8119 N   0  0  0  0  0  0  0  0  0  0  0  0
    7.1531   -2.0742   22.8065 C   0  0  0  0  0  0  0  0  0  0  0  0
    6.2345   -2.8370   23.7118 C   0  0  0  0  0  0  0  0  0  0  0  0
    6.4522   -2.8610   25.1019 C   0  0  0  0  0  0  0  0  0  0  0  0
    7.3268   -2.3498   25.4981 H   0  0  0  0  0  0  0  0  0  0  0  0
    5.6049   -3.5973   25.9312 C   0  0  0  0  0  0  0  0  0  0  0  0
    5.7898   -3.6209   27.0028 H   0  0  0  0  0  0  0  0  0  0  0  0
    4.5432   -4.3240   25.3822 C   0  0  0  0  0  0  0  0  0  0  0  0
    3.8999   -4.9106   26.0354 H   0  0  0  0  0  0  0  0  0  0  0  0
    4.2977   -4.3181   23.9932 C   0  0  0  0  0  0  0  0  0  0  0  0
    3.1427   -5.0927   23.4231 C   0  0  0  0  0  0  0  0  0  0  0  0
    1.8876   -5.0582   24.0621 C   0  0  0  0  0  0  0  0  0  0  0  0
    1.7906   -4.4772   24.9771 H   0  0  0  0  0  0  0  0  0  0  0  0
    0.7897   -5.7485   23.5390 C   0  0  0  0  0  0  0  0  0  0  0  0
   -0.1685   -5.7157   24.0561 H   0  0  0  0  0  0  0  0  0  0  0  0
    0.9466   -6.5183   22.3798 C   0  0  0  0  0  0  0  0  0  0  0  0
    0.1039   -7.0477   21.9443 H   0  0  0  0  0  0  0  0  0  0  0  0
    2.1970   -6.6148   21.7639 C   0  0  0  0  0  0  0  0  0  0  0  0
    2.3035   -7.2860   20.9127 H   0  0  0  0  0  0  0  0  0  0  0  0
    3.2787   -5.8726   22.2584 C   0  0  0  0  0  0  0  0  0  0  0  0
    4.2448   -5.8736   21.7579 H   0  0  0  0  0  0  0  0  0  0  0  0
    5.1528   -3.5566   23.1764 C   0  0  0  0  0  0  0  0  0  0  0  0
    4.9870   -3.5215   22.1034 H   0  0  0  0  0  0  0  0  0  0  0  0
    8.6489   -2.0830   23.0335 C   0  0  0  0  0  0  0  0  0  0  0  0
    9.2185   -2.7154   23.9165 O   0  0  0  0  0  0  0  0  0  0  0  0
    9.3795   -1.2595   22.0785 C   0  0  0  0  0  0  0  0  0  0  0  0
   10.4493   -1.2113   22.2020 H   0  0  0  0  0  0  0  0  0  0  0  0
    8.7175   -0.6141   21.1019 C   0  0  0  0  0  0  0  0  0  0  0  0
    9.2000    0.0382   20.3794 H   0  0  0  0  0  0  0  0  0  0  0  0
    5.4489    0.6330   20.1614 C   0  0  0  0  0  0  0  0  0  0  0  0
    5.0432    0.5749   21.1692 H   0  0  0  0  0  0  0  0  0  0  0  0
    4.8138    1.3087   19.1110 C   0  0  0  0  0  0  0  0  0  0  0  0
    3.8781    1.8424   19.2536 H   0  0  0  0  0  0  0  0  0  0  0  0
  1  2  1  0
  2  3  2  0
  3  4  1  0
  4  5  1  0
  4  6  2  0
  6  7  1  0
  7  8  1  0
  8  9  2  0
  9 10  1  0
 10 11  2  0
 11 12  1  0
 11 13  1  0
 13 14  1  0
 13 15  2  0
 15 16  1  0
 15 17  1  0
 17 18  1  0
 18 19  2  0
 19 20  1  0
 19 21  1  0
 21 22  1  0
 21 23  2  0
 23 24  1  0
 23 25  1  0
 25 26  1  0
 25 27  2  0
 27 28  1  0
 17 29  2  0
 29 30  1  0
  9 31  1  0
 31 32  2  0
 31 33  1  0
 33 34  1  0
 33 35  2  0
 35 36  1  0
  6 37  1  0
 37 38  1  0
 37 39  2  0
 39 40  1  0
 39  2  1  0
 35  7  1  0
 29 10  1  0
 27 18  1  0
M  END
>  <cnnaffinity>  (1) 
-5.70448

>  <filename>  (1) 
O=c1ccn(-c2cccnc2)nc1-c1cccc(-c2ccccc2)c1

$$$$
