
     RDKit          3D

 31 33  0  0  0  0  0  0  0  0999 V2000
   11.4070    3.0941   21.3220 H   0  0  0  0  0  0  0  0  0  0  0  0
   10.4572    2.6780   21.6587 C   0  0  0  0  0  0  0  0  0  0  0  0
   10.1577    1.4390   21.2672 N   0  0  0  0  0  0  0  0  0  0  0  0
    8.9745    0.9522   21.6813 C   0  0  0  0  0  0  0  0  0  0  0  0
    8.7061   -0.5023   21.2509 C   0  0  1  0  0  0  0  0  0  0  0  0
    9.3495   -0.6367   20.3806 H   0  0  0  0  0  0  0  0  0  0  0  0
    9.2369   -1.7304   22.5044 S   0  0  0  0  0  0  0  0  0  0  0  0
    7.5336   -2.1925   22.8757 C   0  0  0  0  0  0  0  0  0  0  0  0
    7.4402   -3.2600   23.0635 H   0  0  0  0  0  0  0  0  0  0  0  0
    7.1421   -1.6618   23.7464 H   0  0  0  0  0  0  0  0  0  0  0  0
    6.6778   -1.8189   21.6831 C   0  0  0  0  0  0  0  0  0  0  0  0
    5.5899   -2.2914   21.4568 O   0  0  0  0  0  0  0  0  0  0  0  0
    7.3233   -0.8558   20.8963 N   0  0  0  0  0  0  0  0  0  0  0  0
    6.6535   -0.1153   19.8558 C   0  0  0  0  0  0  0  0  0  0  0  0
    7.1795   -0.0086   18.5489 C   0  0  0  0  0  0  0  0  0  0  0  0
    8.1205   -0.4979   18.3061 H   0  0  0  0  0  0  0  0  0  0  0  0
    6.5893    0.6673   17.5550 N   0  0  0  0  0  0  0  0  0  0  0  0
    5.4402    1.3026   17.8331 C   0  0  0  0  0  0  0  0  0  0  0  0
    4.9783    1.8485   17.0110 H   0  0  0  0  0  0  0  0  0  0  0  0
    4.8536    1.2890   19.1032 C   0  0  0  0  0  0  0  0  0  0  0  0
    3.9389    1.8427   19.2718 H   0  0  0  0  0  0  0  0  0  0  0  0
    5.4681    0.5717   20.1375 C   0  0  0  0  0  0  0  0  0  0  0  0
    5.0725    0.5580   21.1539 H   0  0  0  0  0  0  0  0  0  0  0  0
    8.0820    1.5934   22.4227 N   0  0  0  0  0  0  0  0  0  0  0  0
    8.4064    2.8354   22.8386 C   0  0  0  0  0  0  0  0  0  0  0  0
    7.4332    3.6013   23.7810 C   0  0  0  0  0  0  0  0  0  0  0  0
    6.8460    4.6411   23.1538 F   0  0  0  0  0  0  0  0  0  0  0  0
    8.1154    4.1262   24.8244 F   0  0  0  0  0  0  0  0  0  0  0  0
    6.4660    2.8365   24.2918 F   0  0  0  0  0  0  0  0  0  0  0  0
    9.5983    3.4362   22.4489 C   0  0  0  0  0  0  0  0  0  0  0  0
    9.8402    4.4609   22.6990 H   0  0  0  0  0  0  0  0  0  0  0  0
  1  2  1  0
  2  3  2  0
  3  4  1  0
  4  5  1  0
  5  6  1  6
  5  7  1  0
  7  8  1  0
  8  9  1  0
  8 10  1  0
  8 11  1  0
 11 12  2  0
 11 13  1  0
 13 14  1  0
 14 15  2  0
 15 16  1  0
 15 17  1  0
 17 18  2  0
 18 19  1  0
 18 20  1  0
 20 21  1  0
 20 22  2  0
 22 23  1  0
  4 24  2  0
 24 25  1  0
 25 26  1  0
 26 27  1  0
 26 28  1  0
 26 29  1  0
 25 30  2  0
 30 31  1  0
 30  2  1  0
 13  5  1  0
 22 14  1  0
M  END
>  <cnnaffinity>  (1) 
-5.00281

>  <filename>  (1) 
O=C1CS[C@H](c2nccc(C(F)(F)F)n2)N1c1cccnc1

$$$$
