
     RDKit          3D

 40 43  0  0  0  0  0  0  0  0999 V2000
    4.9036    1.8199   16.9328 H   0  0  0  0  0  0  0  0  0  0  0  0
    5.3742    1.3355   17.7878 C   0  0  0  0  0  0  0  0  0  0  0  0
    6.5440    0.7185   17.5555 N   0  0  0  0  0  0  0  0  0  0  0  0
    7.1398    0.1230   18.5984 C   0  0  0  0  0  0  0  0  0  0  0  0
    8.0890   -0.3645   18.3728 H   0  0  0  0  0  0  0  0  0  0  0  0
    6.6330    0.1193   19.9194 C   0  0  0  0  0  0  0  0  0  0  0  0
    7.3470   -0.5714   21.0410 C   0  0  0  0  0  0  0  0  0  0  0  0
    7.5857    0.0310   22.3184 C   0  0  0  0  0  0  0  0  0  0  0  0
    7.1944    1.0333   22.5113 H   0  0  0  0  0  0  0  0  0  0  0  0
    8.2508   -0.6355   23.3285 C   0  0  0  0  0  0  0  0  0  0  0  0
    8.3095   -0.1248   24.7459 C   0  0  0  0  0  0  0  0  0  0  0  0
    9.2028   -0.5128   25.2485 H   0  0  0  0  0  0  0  0  0  0  0  0
    8.4065    0.9735   24.7622 H   0  0  0  0  0  0  0  0  0  0  0  0
    7.0633   -0.5513   25.5179 C   0  0  0  0  0  0  0  0  0  0  0  0
    7.0837   -1.7268   26.3327 C   0  0  0  0  0  0  0  0  0  0  0  0
    7.9952   -2.3205   26.3902 H   0  0  0  0  0  0  0  0  0  0  0  0
    5.9636   -2.1241   27.0257 C   0  0  0  0  0  0  0  0  0  0  0  0
    5.9860   -3.0132   27.6517 H   0  0  0  0  0  0  0  0  0  0  0  0
    4.7434   -1.3864   26.9325 C   0  0  0  0  0  0  0  0  0  0  0  0
    3.5642   -1.7583   27.6521 C   0  0  0  0  0  0  0  0  0  0  0  0
    3.5989   -2.6297   28.3040 H   0  0  0  0  0  0  0  0  0  0  0  0
    2.4080   -1.0223   27.5298 C   0  0  0  0  0  0  0  0  0  0  0  0
    1.5156   -1.3024   28.0842 H   0  0  0  0  0  0  0  0  0  0  0  0
    2.3666    0.1189   26.6766 C   0  0  0  0  0  0  0  0  0  0  0  0
    1.4446    0.6865   26.5946 H   0  0  0  0  0  0  0  0  0  0  0  0
    3.4811    0.5041   25.9705 C   0  0  0  0  0  0  0  0  0  0  0  0
    3.4561    1.3773   25.3201 H   0  0  0  0  0  0  0  0  0  0  0  0
    4.7010   -0.2298   26.0850 C   0  0  0  0  0  0  0  0  0  0  0  0
    5.8844    0.1522   25.3833 C   0  0  0  0  0  0  0  0  0  0  0  0
    5.8321    1.0119   24.7157 H   0  0  0  0  0  0  0  0  0  0  0  0
    8.7457   -2.0038   23.1036 C   0  0  0  0  0  0  0  0  0  0  0  0
    9.3367   -2.7353   23.8847 O   0  0  0  0  0  0  0  0  0  0  0  0
    8.4603   -2.5083   21.8389 N   0  0  0  0  0  0  0  0  0  0  0  0
    8.8752   -3.4226   21.7402 H   0  0  0  0  0  0  0  0  0  0  0  0
    7.7386   -1.8693   20.8661 C   0  0  0  0  0  0  0  0  0  0  0  0
    7.3814   -2.4433   20.0216 H   0  0  0  0  0  0  0  0  0  0  0  0
    5.4016    0.7570   20.1253 C   0  0  0  0  0  0  0  0  0  0  0  0
    4.9578    0.7517   21.1214 H   0  0  0  0  0  0  0  0  0  0  0  0
    4.7627    1.3679   19.0444 C   0  0  0  0  0  0  0  0  0  0  0  0
    3.8099    1.8670   19.1641 H   0  0  0  0  0  0  0  0  0  0  0  0
  1  2  1  0
  2  3  2  0
  3  4  1  0
  4  5  1  0
  4  6  2  0
  6  7  1  0
  7  8  1  0
  8  9  1  0
  8 10  2  0
 10 11  1  0
 11 12  1  0
 11 13  1  0
 11 14  1  0
 14 15  2  0
 15 16  1  0
 15 17  1  0
 17 18  1  0
 17 19  2  0
 19 20  1  0
 20 21  1  0
 20 22  2  0
 22 23  1  0
 22 24  1  0
 24 25  1  0
 24 26  2  0
 26 27  1  0
 26 28  1  0
 28 29  2  0
 29 30  1  0
 10 31  1  0
 31 32  2  0
 31 33  1  0
 33 34  1  0
 33 35  1  0
 35 36  1  0
  6 37  1  0
 37 38  1  0
 37 39  2  0
 39 40  1  0
 39  2  1  0
 35  7  2  0
 29 14  1  0
 28 19  1  0
M  END
>  <cnnaffinity>  (1) 
-5.14506

>  <filename>  (1) 
O=c1[nH]cc(-c2cccnc2)cc1Cc1ccc2ccccc2c1

$$$$
