
     RDKit          3D

 32 34  0  0  0  0  0  0  0  0999 V2000
    5.0266    1.9473   16.9817 H   0  0  0  0  0  0  0  0  0  0  0  0
    5.4766    1.3396   17.7646 C   0  0  0  0  0  0  0  0  0  0  0  0
    6.6283    0.7223   17.4444 N   0  0  0  0  0  0  0  0  0  0  0  0
    7.2458    0.0018   18.3872 C   0  0  0  0  0  0  0  0  0  0  0  0
    8.1972   -0.4558   18.0956 H   0  0  0  0  0  0  0  0  0  0  0  0
    6.7317   -0.1567   19.6937 C   0  0  0  0  0  0  0  0  0  0  0  0
    7.4333   -0.8858   20.6962 N   0  0  0  0  0  0  0  0  0  0  0  0
    8.7534   -0.5963   21.0640 C   0  0  0  0  0  0  0  0  0  0  0  0
    9.2645    0.2598   20.6583 H   0  0  0  0  0  0  0  0  0  0  0  0
    9.0833   -1.4579   22.0506 C   0  0  0  0  0  0  0  0  0  0  0  0
   10.1949   -1.7158   22.7478 O   0  0  0  0  0  0  0  0  0  0  0  0
   11.3931   -1.1103   22.2302 C   0  0  0  0  0  0  0  0  0  0  0  0
   11.4141   -1.1767   21.1342 H   0  0  0  0  0  0  0  0  0  0  0  0
   12.2075   -1.7262   22.6210 H   0  0  0  0  0  0  0  0  0  0  0  0
   11.5553    0.3294   22.6716 C   0  0  0  0  0  0  0  0  0  0  0  0
   11.7507    1.3873   21.7741 C   0  0  0  0  0  0  0  0  0  0  0  0
   11.8357    1.2149   20.7096 H   0  0  0  0  0  0  0  0  0  0  0  0
   11.8558    2.6942   22.2602 C   0  0  0  0  0  0  0  0  0  0  0  0
   11.9742    3.5237   21.5649 H   0  0  0  0  0  0  0  0  0  0  0  0
   11.8050    3.0055   23.5613 N   0  0  0  0  0  0  0  0  0  0  0  0
   11.6282    1.9912   24.4173 C   0  0  0  0  0  0  0  0  0  0  0  0
   11.5746    2.2577   25.4679 H   0  0  0  0  0  0  0  0  0  0  0  0
   11.5032    0.6570   24.0330 C   0  0  0  0  0  0  0  0  0  0  0  0
   11.3575   -0.1131   24.7837 H   0  0  0  0  0  0  0  0  0  0  0  0
    7.9818   -2.2222   22.3330 N   0  0  0  0  0  0  0  0  0  0  0  0
    7.9184   -3.0001   22.9605 H   0  0  0  0  0  0  0  0  0  0  0  0
    6.9300   -1.9216   21.5037 C   0  0  0  0  0  0  0  0  0  0  0  0
    5.8457   -2.4652   21.5121 O   0  0  0  0  0  0  0  0  0  0  0  0
    5.5145    0.4688   20.0063 C   0  0  0  0  0  0  0  0  0  0  0  0
    5.1093    0.3650   21.0107 H   0  0  0  0  0  0  0  0  0  0  0  0
    4.8867    1.2438   19.0275 C   0  0  0  0  0  0  0  0  0  0  0  0
    3.9709    1.7917   19.2352 H   0  0  0  0  0  0  0  0  0  0  0  0
  1  2  1  0
  2  3  2  0
  3  4  1  0
  4  5  1  0
  4  6  2  0
  6  7  1  0
  7  8  1  0
  8  9  1  0
  8 10  2  0
 10 11  1  0
 11 12  1  0
 12 13  1  0
 12 14  1  0
 12 15  1  0
 15 16  2  0
 16 17  1  0
 16 18  1  0
 18 19  1  0
 18 20  2  0
 20 21  1  0
 21 22  1  0
 21 23  2  0
 23 24  1  0
 10 25  1  0
 25 26  1  0
 25 27  1  0
 27 28  2  0
  6 29  1  0
 29 30  1  0
 29 31  2  0
 31 32  1  0
 31  2  1  0
 27  7  1  0
 23 15  1  0
M  END
>  <cnnaffinity>  (1) 
-4.92549

>  <filename>  (1) 
O=c1[nH]c(OCc2ccncc2)cn1-c1cccnc1

$$$$
