
     RDKit          3D

 45 48  0  0  0  0  0  0  0  0999 V2000
   10.2506    4.0132   24.5516 O   0  0  0  0  0  0  0  0  0  0  0  0
    9.1562    4.1269   24.0398 C   0  0  0  0  0  0  0  0  0  0  0  0
    8.2617    4.9335   24.6606 N   0  0  0  0  0  0  0  0  0  0  0  0
    7.0406    5.3528   24.1908 C   0  0  0  0  0  0  0  0  0  0  0  0
    6.4102    6.4837   24.6990 C   0  0  0  0  0  0  0  0  0  0  0  0
    5.1747    6.8757   24.1786 C   0  0  0  0  0  0  0  0  0  0  0  0
    4.5745    6.1297   23.1491 C   0  0  0  0  0  0  0  0  0  0  0  0
    5.2077    4.9931   22.6404 C   0  0  0  0  0  0  0  0  0  0  0  0
    6.4300    4.5995   23.1983 C   0  0  0  0  0  0  0  0  0  0  0  0
    7.2171    3.0533   22.9178 S   0  0  0  0  0  0  0  0  0  0  0  0
    7.0848    2.2368   24.1097 O   0  0  0  0  0  0  0  0  0  0  0  0
    6.8246    2.5694   21.6125 O   0  0  0  0  0  0  0  0  0  0  0  0
    8.8114    3.5488   22.8316 N   0  0  0  0  0  0  0  0  0  0  0  0
    9.7682    2.5952   22.2183 C   0  0  0  0  0  0  0  0  0  0  0  0
    9.8018    1.2476   22.9194 C   0  0  0  0  0  0  0  0  0  0  0  0
   10.4325    1.1237   24.1656 C   0  0  0  0  0  0  0  0  0  0  0  0
   10.3310   -0.0561   24.9016 C   0  0  0  0  0  0  0  0  0  0  0  0
   10.8752   -0.0385   26.5432 Cl  0  0  0  0  0  0  0  0  0  0  0  0
    9.7312   -1.1950   24.3660 C   0  0  0  0  0  0  0  0  0  0  0  0
    9.1508   -1.1019   23.1019 C   0  0  0  0  0  0  0  0  0  0  0  0
    9.1302    0.1142   22.4018 C   0  0  0  0  0  0  0  0  0  0  0  0
    8.4970    0.2465   21.2034 O   0  0  0  0  0  0  0  0  0  0  0  0
    7.4172   -0.6397   20.8805 C   0  0  0  0  0  0  0  0  0  0  0  0
    6.5963    0.0060   19.8015 C   0  0  0  0  0  0  0  0  0  0  0  0
    5.3743    0.6396   20.0429 C   0  0  0  0  0  0  0  0  0  0  0  0
    4.7615    1.3234   18.9905 C   0  0  0  0  0  0  0  0  0  0  0  0
    5.3759    1.3184   17.7348 C   0  0  0  0  0  0  0  0  0  0  0  0
    6.5243    0.6749   17.4787 N   0  0  0  0  0  0  0  0  0  0  0  0
    7.1149    0.0493   18.5021 C   0  0  0  0  0  0  0  0  0  0  0  0
    8.0603   -0.4447   18.2787 H   0  0  0  0  0  0  0  0  0  0  0  0
    4.9248    1.8416   16.8944 H   0  0  0  0  0  0  0  0  0  0  0  0
    3.8390    1.8718   19.1374 H   0  0  0  0  0  0  0  0  0  0  0  0
    4.9501    0.6633   21.0483 H   0  0  0  0  0  0  0  0  0  0  0  0
    6.8031   -0.8284   21.7714 H   0  0  0  0  0  0  0  0  0  0  0  0
    7.8333   -1.5903   20.5206 H   0  0  0  0  0  0  0  0  0  0  0  0
    8.7057   -1.9643   22.6238 H   0  0  0  0  0  0  0  0  0  0  0  0
    9.7148   -2.1243   24.9304 H   0  0  0  0  0  0  0  0  0  0  0  0
   10.9548    1.9681   24.6069 H   0  0  0  0  0  0  0  0  0  0  0  0
   10.7542    3.0769   22.2600 H   0  0  0  0  0  0  0  0  0  0  0  0
    9.5022    2.4847   21.1626 H   0  0  0  0  0  0  0  0  0  0  0  0
    4.7614    4.4356   21.8147 H   0  0  0  0  0  0  0  0  0  0  0  0
    3.6099    6.4282   22.7490 H   0  0  0  0  0  0  0  0  0  0  0  0
    4.6708    7.7501   24.5842 H   0  0  0  0  0  0  0  0  0  0  0  0
    6.8919    7.0367   25.4988 H   0  0  0  0  0  0  0  0  0  0  0  0
    8.7288    5.3828   25.4218 H   0  0  0  0  0  0  0  0  0  0  0  0
  1  2  2  0
  2  3  1  0
  3  4  1  0
  4  5  2  0
  5  6  1  0
  6  7  2  0
  7  8  1  0
  8  9  2  0
  9 10  1  0
 10 11  2  0
 10 12  2  0
 10 13  1  0
 13 14  1  0
 14 15  1  0
 15 16  2  0
 16 17  1  0
 17 18  1  0
 17 19  2  0
 19 20  1  0
 20 21  2  0
 21 22  1  0
 22 23  1  0
 23 24  1  0
 24 25  2  0
 25 26  1  0
 26 27  2  0
 27 28  1  0
 28 29  2  0
 29 30  1  0
 27 31  1  0
 26 32  1  0
 25 33  1  0
 23 34  1  0
 23 35  1  0
 20 36  1  0
 19 37  1  0
 16 38  1  0
 14 39  1  0
 14 40  1  0
  8 41  1  0
  7 42  1  0
  6 43  1  0
  5 44  1  0
  3 45  1  0
 13  2  1  0
 21 15  1  0
 29 24  1  0
  9  4  1  0
M  END
>  <cnnaffinity>  (1) 
-5.92819

>  <filename>  (1) 
O=C1Nc2ccccc2S(=O)(=O)N1Cc1cc(Cl)ccc1OCc1cccnc1

$$$$
