
     RDKit          3D

 35 37  0  0  0  0  0  0  0  0999 V2000
    5.1052    1.9751   16.8739 H   0  0  0  0  0  0  0  0  0  0  0  0
    5.4869    1.3390   17.6694 C   0  0  0  0  0  0  0  0  0  0  0  0
    6.6101    0.6585   17.3980 N   0  0  0  0  0  0  0  0  0  0  0  0
    7.1231   -0.0968   18.3808 C   0  0  0  0  0  0  0  0  0  0  0  0
    8.0442   -0.6283   18.1342 H   0  0  0  0  0  0  0  0  0  0  0  0
    6.5567   -0.2362   19.6606 C   0  0  0  0  0  0  0  0  0  0  0  0
    7.2424   -1.0095   20.7757 C   0  0  2  0  0  0  0  0  0  0  0  0
    8.0811   -1.5860   20.3551 H   0  0  0  0  0  0  0  0  0  0  0  0
    6.3231   -1.9984   21.5402 C   0  0  0  0  0  0  0  0  0  0  0  0
    6.4054   -3.0251   21.1668 H   0  0  0  0  0  0  0  0  0  0  0  0
    5.2649   -1.7079   21.4560 H   0  0  0  0  0  0  0  0  0  0  0  0
    6.8096   -1.9089   22.8998 N   0  0  0  0  0  0  0  0  0  0  0  0
    6.3361   -2.3019   23.7006 H   0  0  0  0  0  0  0  0  0  0  0  0
    7.4994   -0.7722   23.1882 C   0  0  0  0  0  0  0  0  0  0  0  0
    7.7393   -0.4176   24.3255 O   0  0  0  0  0  0  0  0  0  0  0  0
    7.7920   -0.0576   21.8718 C   0  0  1  0  0  0  0  0  0  0  0  0
    7.1545    0.8336   21.9227 H   0  0  0  0  0  0  0  0  0  0  0  0
    9.2358    0.4550   21.6505 C   0  0  0  0  0  0  0  0  0  0  0  0
    9.3494    0.7369   20.5958 H   0  0  0  0  0  0  0  0  0  0  0  0
    9.9541   -0.3539   21.8429 H   0  0  0  0  0  0  0  0  0  0  0  0
    9.5591    1.6307   22.5424 C   0  0  0  0  0  0  0  0  0  0  0  0
   10.0480    1.3884   23.8329 C   0  0  0  0  0  0  0  0  0  0  0  0
   10.2779    0.3698   24.1375 H   0  0  0  0  0  0  0  0  0  0  0  0
   10.1629    2.4178   24.7625 C   0  0  0  0  0  0  0  0  0  0  0  0
   10.4524    2.1995   25.7830 H   0  0  0  0  0  0  0  0  0  0  0  0
    9.8327    3.7194   24.3821 C   0  0  0  0  0  0  0  0  0  0  0  0
    9.9108    4.7190   25.2806 F   0  0  0  0  0  0  0  0  0  0  0  0
    9.4339    4.0166   23.0812 C   0  0  0  0  0  0  0  0  0  0  0  0
    9.2116    5.0434   22.7958 H   0  0  0  0  0  0  0  0  0  0  0  0
    9.3012    2.9628   22.1666 C   0  0  0  0  0  0  0  0  0  0  0  0
    8.9915    3.1896   21.1491 H   0  0  0  0  0  0  0  0  0  0  0  0
    5.3630    0.4676   19.9014 C   0  0  0  0  0  0  0  0  0  0  0  0
    4.8719    0.4027   20.8751 H   0  0  0  0  0  0  0  0  0  0  0  0
    4.8247    1.2756   18.8998 C   0  0  0  0  0  0  0  0  0  0  0  0
    3.9359    1.8779   19.0673 H   0  0  0  0  0  0  0  0  0  0  0  0
  1  2  1  0
  2  3  2  0
  3  4  1  0
  4  5  1  0
  4  6  2  0
  6  7  1  0
  7  8  1  6
  7  9  1  0
  9 10  1  0
  9 11  1  0
  9 12  1  0
 12 13  1  0
 12 14  1  0
 14 15  2  0
 14 16  1  0
 16 17  1  1
 16 18  1  0
 18 19  1  0
 18 20  1  0
 18 21  1  0
 21 22  2  0
 22 23  1  0
 22 24  1  0
 24 25  1  0
 24 26  2  0
 26 27  1  0
 26 28  1  0
 28 29  1  0
 28 30  2  0
 30 31  1  0
  6 32  1  0
 32 33  1  0
 32 34  2  0
 34 35  1  0
 34  2  1  0
 16  7  1  0
 30 21  1  0
M  END
>  <cnnaffinity>  (1) 
-5.08985

>  <filename>  (1) 
O=C1NC[C@@H](c2cccnc2)[C@@H]1Cc1ccc(F)cc1

$$$$
