
     RDKit          3D

 39 41  0  0  0  0  0  0  0  0999 V2000
    4.9300    1.7959   16.9810 H   0  0  0  0  0  0  0  0  0  0  0  0
    5.3967    1.2920   17.8254 C   0  0  0  0  0  0  0  0  0  0  0  0
    6.5598    0.6698   17.5719 N   0  0  0  0  0  0  0  0  0  0  0  0
    7.1570    0.0352   18.5850 C   0  0  0  0  0  0  0  0  0  0  0  0
    8.1185   -0.4295   18.3606 H   0  0  0  0  0  0  0  0  0  0  0  0
    6.6440   -0.0021   19.8936 C   0  0  0  0  0  0  0  0  0  0  0  0
    7.3718   -0.6713   20.9780 C   0  0  0  0  0  0  0  0  0  0  0  0
    7.7041   -0.0531   22.1788 C   0  0  0  0  0  0  0  0  0  0  0  0
    7.4373    1.2967   22.3916 N   0  0  0  0  0  0  0  0  0  0  0  0
    7.4250    1.8708   21.5602 H   0  0  0  0  0  0  0  0  0  0  0  0
    7.2756    1.9768   23.6531 C   0  0  0  0  0  0  0  0  0  0  0  0
    6.3335    2.5478   23.6283 H   0  0  0  0  0  0  0  0  0  0  0  0
    7.1697    1.2183   24.4422 H   0  0  0  0  0  0  0  0  0  0  0  0
    8.4327    2.9405   23.9789 C   0  0  0  0  0  0  0  0  0  0  0  0
    8.1738    3.4935   24.8919 H   0  0  0  0  0  0  0  0  0  0  0  0
    8.5125    3.6833   23.1731 H   0  0  0  0  0  0  0  0  0  0  0  0
    9.7479    2.2157   24.1612 C   0  0  0  0  0  0  0  0  0  0  0  0
   10.0808    1.6630   25.4067 C   0  0  0  0  0  0  0  0  0  0  0  0
    9.4410    1.8450   26.2697 H   0  0  0  0  0  0  0  0  0  0  0  0
   11.2205    0.8720   25.5509 C   0  0  0  0  0  0  0  0  0  0  0  0
   11.3882    0.3862   26.5077 H   0  0  0  0  0  0  0  0  0  0  0  0
   12.1031    0.6958   24.4762 C   0  0  0  0  0  0  0  0  0  0  0  0
   13.0306    0.1452   24.6118 H   0  0  0  0  0  0  0  0  0  0  0  0
   11.7785    1.2339   23.2247 C   0  0  0  0  0  0  0  0  0  0  0  0
   12.4253    1.0580   22.3658 H   0  0  0  0  0  0  0  0  0  0  0  0
   10.5979    1.9694   23.0690 C   0  0  0  0  0  0  0  0  0  0  0  0
   10.3094    2.3417   22.0884 H   0  0  0  0  0  0  0  0  0  0  0  0
    8.3690   -0.8581   23.1656 C   0  0  0  0  0  0  0  0  0  0  0  0
    8.6441   -0.3461   24.0908 H   0  0  0  0  0  0  0  0  0  0  0  0
    8.6469   -2.1831   22.9488 C   0  0  0  0  0  0  0  0  0  0  0  0
    9.1264   -2.8195   23.6774 H   0  0  0  0  0  0  0  0  0  0  0  0
    8.2883   -2.8329   21.6946 C   0  0  0  0  0  0  0  0  0  0  0  0
    8.4373   -4.0029   21.3846 O   0  0  0  0  0  0  0  0  0  0  0  0
    7.7147   -1.9801   20.7735 N   0  0  0  0  0  0  0  0  0  0  0  0
    7.4475   -2.4877   19.9434 H   0  0  0  0  0  0  0  0  0  0  0  0
    5.4266    0.6518   20.1414 C   0  0  0  0  0  0  0  0  0  0  0  0
    5.0106    0.6410   21.1511 H   0  0  0  0  0  0  0  0  0  0  0  0
    4.7953    1.3070   19.0868 C   0  0  0  0  0  0  0  0  0  0  0  0
    3.8697    1.8456   19.2371 H   0  0  0  0  0  0  0  0  0  0  0  0
  1  2  1  0
  2  3  2  0
  3  4  1  0
  4  5  1  0
  4  6  2  0
  6  7  1  0
  7  8  2  0
  8  9  1  0
  9 10  1  0
  9 11  1  0
 11 12  1  0
 11 13  1  0
 11 14  1  0
 14 15  1  0
 14 16  1  0
 14 17  1  0
 17 18  2  0
 18 19  1  0
 18 20  1  0
 20 21  1  0
 20 22  2  0
 22 23  1  0
 22 24  1  0
 24 25  1  0
 24 26  2  0
 26 27  1  0
  8 28  1  0
 28 29  1  0
 28 30  2  0
 30 31  1  0
 30 32  1  0
 32 33  2  0
 32 34  1  0
 34 35  1  0
  6 36  1  0
 36 37  1  0
 36 38  2  0
 38 39  1  0
 38  2  1  0
 34  7  1  0
 26 17  1  0
M  END
>  <cnnaffinity>  (1) 
-5.75149

>  <filename>  (1) 
O=c1ccc(NCCc2ccccc2)c(-c2cccnc2)[nH]1

$$$$
