
     RDKit          3D

 33 35  0  0  0  0  0  0  0  0999 V2000
    4.9212    1.8005   16.9796 H   0  0  0  0  0  0  0  0  0  0  0  0
    5.3846    1.2996   17.8279 C   0  0  0  0  0  0  0  0  0  0  0  0
    6.5424    0.6715   17.5699 N   0  0  0  0  0  0  0  0  0  0  0  0
    7.1487    0.0518   18.5855 C   0  0  0  0  0  0  0  0  0  0  0  0
    8.1111   -0.4108   18.3877 H   0  0  0  0  0  0  0  0  0  0  0  0
    6.6269   -0.0065   19.8925 C   0  0  0  0  0  0  0  0  0  0  0  0
    7.3547   -0.6860   20.9007 N   0  0  0  0  0  0  0  0  0  0  0  0
    8.7585   -0.6642   21.1334 C   0  0  0  0  0  0  0  0  0  0  0  0
    9.5771   -0.0560   20.4641 O   0  0  0  0  0  0  0  0  0  0  0  0
    8.9238   -1.5007   22.2974 C   0  0  0  0  0  0  0  0  0  0  0  0
    9.8844   -1.6758   22.7414 H   0  0  0  0  0  0  0  0  0  0  0  0
    7.7079   -1.9357   22.7187 C   0  0  0  0  0  0  0  0  0  0  0  0
    7.3636   -2.8106   23.8639 C   0  0  0  0  0  0  0  0  0  0  0  0
    8.3522   -3.6421   24.4063 C   0  0  0  0  0  0  0  0  0  0  0  0
    9.3418   -3.6407   23.9600 H   0  0  0  0  0  0  0  0  0  0  0  0
    8.0732   -4.4605   25.5041 C   0  0  0  0  0  0  0  0  0  0  0  0
    8.8576   -5.0910   25.9125 H   0  0  0  0  0  0  0  0  0  0  0  0
    6.7972   -4.4655   26.0779 C   0  0  0  0  0  0  0  0  0  0  0  0
    6.5422   -5.0898   26.9285 H   0  0  0  0  0  0  0  0  0  0  0  0
    5.8161   -3.6345   25.5340 C   0  0  0  0  0  0  0  0  0  0  0  0
    4.5764   -3.7033   26.1657 O   0  0  0  0  0  0  0  0  0  0  0  0
    3.5169   -2.9686   25.7677 C   0  0  0  0  0  0  0  0  0  0  0  0
    2.5171   -3.2901   26.5784 F   0  0  0  0  0  0  0  0  0  0  0  0
    3.7282   -1.6431   25.8432 F   0  0  0  0  0  0  0  0  0  0  0  0
    3.1451   -3.2173   24.5001 F   0  0  0  0  0  0  0  0  0  0  0  0
    6.0850   -2.8108   24.4454 C   0  0  0  0  0  0  0  0  0  0  0  0
    5.3101   -2.1598   24.0873 H   0  0  0  0  0  0  0  0  0  0  0  0
    6.7528   -1.4022   21.9133 N   0  0  0  0  0  0  0  0  0  0  0  0
    5.7707   -1.6174   21.9061 H   0  0  0  0  0  0  0  0  0  0  0  0
    5.4165    0.6500   20.1558 C   0  0  0  0  0  0  0  0  0  0  0  0
    5.0120    0.6472   21.1677 H   0  0  0  0  0  0  0  0  0  0  0  0
    4.7943    1.3172   19.0976 C   0  0  0  0  0  0  0  0  0  0  0  0
    3.8654    1.8527   19.2468 H   0  0  0  0  0  0  0  0  0  0  0  0
  1  2  1  0
  2  3  2  0
  3  4  1  0
  4  5  1  0
  4  6  2  0
  6  7  1  0
  7  8  1  0
  8  9  2  0
  8 10  1  0
 10 11  1  0
 10 12  2  0
 12 13  1  0
 13 14  2  0
 14 15  1  0
 14 16  1  0
 16 17  1  0
 16 18  2  0
 18 19  1  0
 18 20  1  0
 20 21  1  0
 21 22  1  0
 22 23  1  0
 22 24  1  0
 22 25  1  0
 20 26  2  0
 26 27  1  0
 12 28  1  0
 28 29  1  0
  6 30  1  0
 30 31  1  0
 30 32  2  0
 32 33  1  0
 32  2  1  0
 28  7  1  0
 26 13  1  0
M  END
>  <cnnaffinity>  (1) 
-5.40458

>  <filename>  (1) 
O=c1cc(-c2cccc(OC(F)(F)F)c2)[nH]n1-c1cccnc1

$$$$
