
     RDKit          3D

 30 32  0  0  0  0  0  0  0  0999 V2000
    4.9580    1.7720   16.9991 H   0  0  0  0  0  0  0  0  0  0  0  0
    5.4196    1.2811   17.8520 C   0  0  0  0  0  0  0  0  0  0  0  0
    6.5801    0.6541   17.6116 N   0  0  0  0  0  0  0  0  0  0  0  0
    7.1730    0.0448   18.6414 C   0  0  0  0  0  0  0  0  0  0  0  0
    8.1188   -0.4453   18.4061 H   0  0  0  0  0  0  0  0  0  0  0  0
    6.6375    0.0022   19.9332 C   0  0  0  0  0  0  0  0  0  0  0  0
    7.3380   -0.7336   21.0014 C   0  0  0  0  0  0  0  0  0  0  0  0
    6.5787   -1.3065   21.9008 N   0  0  0  0  0  0  0  0  0  0  0  0
    7.1758   -1.9725   22.9318 C   0  0  0  0  0  0  0  0  0  0  0  0
    6.6171   -2.5436   23.8418 O   0  0  0  0  0  0  0  0  0  0  0  0
    8.5696   -2.0090   22.9628 N   0  0  0  0  0  0  0  0  0  0  0  0
    8.8509   -2.4970   23.7931 H   0  0  0  0  0  0  0  0  0  0  0  0
    9.3841   -1.4249   22.0539 C   0  0  0  0  0  0  0  0  0  0  0  0
   10.8635   -1.4772   22.2705 C   0  0  0  0  0  0  0  0  0  0  0  0
   11.3381   -1.4240   21.2824 H   0  0  0  0  0  0  0  0  0  0  0  0
   11.1477   -2.4392   22.7190 H   0  0  0  0  0  0  0  0  0  0  0  0
   11.3667   -0.3122   23.1235 C   0  0  0  0  0  0  0  0  0  0  0  0
   10.9316   -0.2626   24.1258 H   0  0  0  0  0  0  0  0  0  0  0  0
   11.6622    1.0022   22.4474 C   0  0  0  0  0  0  0  0  0  0  0  0
   11.4254    1.9321   22.9617 H   0  0  0  0  0  0  0  0  0  0  0  0
   11.4905    1.0597   21.3700 H   0  0  0  0  0  0  0  0  0  0  0  0
   12.7893    0.1387   22.9615 C   0  0  0  0  0  0  0  0  0  0  0  0
   13.3411    0.4551   23.8451 H   0  0  0  0  0  0  0  0  0  0  0  0
   13.4079   -0.3991   22.2426 H   0  0  0  0  0  0  0  0  0  0  0  0
    8.7618   -0.7683   21.0282 C   0  0  0  0  0  0  0  0  0  0  0  0
    9.3458   -0.2304   20.2931 H   0  0  0  0  0  0  0  0  0  0  0  0
    5.4190    0.6565   20.1706 C   0  0  0  0  0  0  0  0  0  0  0  0
    4.9713    0.6360   21.1677 H   0  0  0  0  0  0  0  0  0  0  0  0
    4.8074    1.3141   19.1095 C   0  0  0  0  0  0  0  0  0  0  0  0
    3.8741    1.8481   19.2437 H   0  0  0  0  0  0  0  0  0  0  0  0
  1  2  1  0
  2  3  2  0
  3  4  1  0
  4  5  1  0
  4  6  2  0
  6  7  1  0
  7  8  2  0
  8  9  1  0
  9 10  2  0
  9 11  1  0
 11 12  1  0
 11 13  1  0
 13 14  1  0
 14 15  1  0
 14 16  1  0
 14 17  1  0
 17 18  1  0
 17 19  1  0
 19 20  1  0
 19 21  1  0
 19 22  1  0
 22 23  1  0
 22 24  1  0
 13 25  2  0
 25 26  1  0
  6 27  1  0
 27 28  1  0
 27 29  2  0
 29 30  1  0
 29  2  1  0
 25  7  1  0
 22 17  1  0
M  END
>  <cnnaffinity>  (1) 
-5.11121

>  <filename>  (1) 
O=c1nc(-c2cccnc2)cc(CC2CC2)[nH]1

$$$$
