
     RDKit          3D

 32 34  0  0  0  0  0  0  0  0999 V2000
    6.9446    2.9128   24.6575 H   0  0  0  0  0  0  0  0  0  0  0  0
    7.3984    2.6010   23.7261 C   0  0  0  0  0  0  0  0  0  0  0  0
    7.7368    3.2692   22.6256 C   0  0  0  0  0  0  0  0  0  0  0  0
    7.6625    4.3099   22.3206 H   0  0  0  0  0  0  0  0  0  0  0  0
    8.3182    2.2891   21.6827 C   0  0  0  0  0  0  0  0  0  0  0  0
    8.6611    2.4596   20.5467 O   0  0  0  0  0  0  0  0  0  0  0  0
    8.4134    1.0809   22.3414 N   0  0  0  0  0  0  0  0  0  0  0  0
    8.6323   -0.0898   21.5175 C   0  0  2  0  0  0  0  0  0  0  0  0
    9.2267    0.2816   20.6812 H   0  0  0  0  0  0  0  0  0  0  0  0
    7.4114   -0.6414   20.9636 N   0  0  0  0  0  0  0  0  0  0  0  0
    6.7241    0.0352   19.9077 C   0  0  0  0  0  0  0  0  0  0  0  0
    7.2195    0.1006   18.5765 C   0  0  0  0  0  0  0  0  0  0  0  0
    8.1703   -0.3800   18.3370 H   0  0  0  0  0  0  0  0  0  0  0  0
    6.5866    0.6998   17.5520 N   0  0  0  0  0  0  0  0  0  0  0  0
    5.4166    1.3040   17.8189 C   0  0  0  0  0  0  0  0  0  0  0  0
    4.9298    1.7982   16.9793 H   0  0  0  0  0  0  0  0  0  0  0  0
    4.8285    1.3030   19.0878 C   0  0  0  0  0  0  0  0  0  0  0  0
    3.8822    1.8088   19.2399 H   0  0  0  0  0  0  0  0  0  0  0  0
    5.4845    0.6548   20.1421 C   0  0  0  0  0  0  0  0  0  0  0  0
    5.0723    0.6379   21.1524 H   0  0  0  0  0  0  0  0  0  0  0  0
    6.6727   -1.5507   21.8447 C   0  0  0  0  0  0  0  0  0  0  0  0
    6.2214   -1.0300   22.6966 H   0  0  0  0  0  0  0  0  0  0  0  0
    5.8749   -2.0345   21.2702 H   0  0  0  0  0  0  0  0  0  0  0  0
    7.6203   -2.6160   22.4046 C   0  0  0  0  0  0  0  0  0  0  0  0
    7.9281   -3.3101   21.6072 H   0  0  0  0  0  0  0  0  0  0  0  0
    7.1092   -3.1887   23.1825 H   0  0  0  0  0  0  0  0  0  0  0  0
    8.7500   -2.0472   23.0377 O   0  0  0  0  0  0  0  0  0  0  0  0
    9.4770   -1.1835   22.1880 C   0  0  0  0  0  0  0  0  0  0  0  0
    9.9724   -1.7366   21.3731 H   0  0  0  0  0  0  0  0  0  0  0  0
   10.2416   -0.7055   22.8021 H   0  0  0  0  0  0  0  0  0  0  0  0
    7.7467    1.1478   23.5505 C   0  0  0  0  0  0  0  0  0  0  0  0
    7.5123    0.2418   24.3066 O   0  0  0  0  0  0  0  0  0  0  0  0
  1  2  1  0
  2  3  2  0
  3  4  1  0
  3  5  1  0
  5  6  2  0
  5  7  1  0
  7  8  1  0
  8  9  1  6
  8 10  1  0
 10 11  1  0
 11 12  2  0
 12 13  1  0
 12 14  1  0
 14 15  2  0
 15 16  1  0
 15 17  1  0
 17 18  1  0
 17 19  2  0
 19 20  1  0
 10 21  1  0
 21 22  1  0
 21 23  1  0
 21 24  1  0
 24 25  1  0
 24 26  1  0
 24 27  1  0
 27 28  1  0
 28 29  1  0
 28 30  1  0
  7 31  1  0
 31 32  2  0
 31  2  1  0
 28  8  1  0
 19 11  1  0
M  END
>  <cnnaffinity>  (1) 
-4.66909

>  <filename>  (1) 
O=C1C=CC(=O)N1[C@H]1COCCN1c1cccnc1

$$$$
