
     RDKit          3D

 51 57  0  0  0  0  0  0  0  0999 V2000
    8.9315    5.9591   27.7638 O   0  0  0  0  0  0  0  0  0  0  0  0
    8.9882    6.0829   26.5534 C   0  0  0  0  0  0  0  0  0  0  0  0
    9.0778    7.3717   26.0493 N   0  0  0  0  0  0  0  0  0  0  0  0
    9.1855    7.7183   24.7185 C   0  0  0  0  0  0  0  0  0  0  0  0
    9.2115    6.7476   23.7785 C   0  0  0  0  0  0  0  0  0  0  0  0
    9.0853    5.3508   24.1632 C   0  0  0  0  0  0  0  0  0  0  0  0
    9.0574    4.3133   23.2001 C   0  0  0  0  0  0  0  0  0  0  0  0
    9.0450    2.9883   23.6018 C   0  0  0  0  0  0  0  0  0  0  0  0
    9.0850    1.9262   22.6386 N   0  0  0  0  0  0  0  0  0  0  0  0
    7.9418    1.2389   22.3863 N   0  0  0  0  0  0  0  0  0  0  0  0
    8.2818    0.4376   21.4042 C   0  0  0  0  0  0  0  0  0  0  0  0
    7.2787   -0.4982   20.8000 C   0  0  0  0  0  0  0  0  0  0  0  0
    6.5420    0.0704   19.5959 C   0  0  0  0  0  0  0  0  0  0  0  0
    5.3827    0.8402   19.7551 C   0  0  0  0  0  0  0  0  0  0  0  0
    4.7856    1.4113   18.6305 C   0  0  0  0  0  0  0  0  0  0  0  0
    5.3734    1.2002   17.3807 C   0  0  0  0  0  0  0  0  0  0  0  0
    6.4765    0.4582   17.2027 N   0  0  0  0  0  0  0  0  0  0  0  0
    7.0332   -0.0880   18.2882 C   0  0  0  0  0  0  0  0  0  0  0  0
    7.9288   -0.6875   18.1119 H   0  0  0  0  0  0  0  0  0  0  0  0
    4.9514    1.6501   16.4840 H   0  0  0  0  0  0  0  0  0  0  0  0
    3.8978    2.0295   18.7079 H   0  0  0  0  0  0  0  0  0  0  0  0
    4.9601    0.9924   20.7510 H   0  0  0  0  0  0  0  0  0  0  0  0
    7.8133   -1.4133   20.5319 H   0  0  0  0  0  0  0  0  0  0  0  0
    6.5655   -0.7417   21.5954 H   0  0  0  0  0  0  0  0  0  0  0  0
    9.5755    0.5345   21.0103 N   0  0  0  0  0  0  0  0  0  0  0  0
   10.0721    1.4684   21.8131 C   0  0  0  0  0  0  0  0  0  0  0  0
   11.5115    1.7972   21.8216 C   0  0  0  0  0  0  0  0  0  0  0  0
   12.3992    1.6293   23.0704 C   0  0  0  0  0  0  0  0  0  0  0  0
   12.2353    0.8876   24.3390 C   0  0  0  0  0  0  0  0  0  0  0  0
   13.4303    0.6244   23.4195 C   0  0  0  0  0  0  0  0  0  0  0  0
   14.3985    1.0193   23.7102 H   0  0  0  0  0  0  0  0  0  0  0  0
   13.4591   -0.2910   22.8307 H   0  0  0  0  0  0  0  0  0  0  0  0
   12.4055    1.4542   25.2512 H   0  0  0  0  0  0  0  0  0  0  0  0
   11.4179    0.1702   24.3548 H   0  0  0  0  0  0  0  0  0  0  0  0
   12.2467    2.9690   22.4826 C   0  0  0  0  0  0  0  0  0  0  0  0
   13.3154    3.9370   22.1272 C   0  0  0  0  0  0  0  0  0  0  0  0
   12.0919    4.3823   22.9204 C   0  0  0  0  0  0  0  0  0  0  0  0
   12.1324    4.5252   23.9981 H   0  0  0  0  0  0  0  0  0  0  0  0
   11.3663    4.9941   22.3940 H   0  0  0  0  0  0  0  0  0  0  0  0
   14.2570    3.7749   22.6459 H   0  0  0  0  0  0  0  0  0  0  0  0
   13.4059    4.2465   21.0921 H   0  0  0  0  0  0  0  0  0  0  0  0
   11.9582    1.4775   20.8808 H   0  0  0  0  0  0  0  0  0  0  0  0
    8.8938    2.6579   24.9639 C   0  0  0  0  0  0  0  0  0  0  0  0
    8.8602    3.6588   25.9171 C   0  0  0  0  0  0  0  0  0  0  0  0
    8.9777    5.0080   25.5317 C   0  0  0  0  0  0  0  0  0  0  0  0
    8.7268    3.4131   26.9684 H   0  0  0  0  0  0  0  0  0  0  0  0
    8.7616    1.6161   25.2410 H   0  0  0  0  0  0  0  0  0  0  0  0
    9.0459    4.5751   22.1473 H   0  0  0  0  0  0  0  0  0  0  0  0
    9.3131    7.0060   22.7298 H   0  0  0  0  0  0  0  0  0  0  0  0
    9.2348    8.7809   24.4914 H   0  0  0  0  0  0  0  0  0  0  0  0
    9.0312    8.0198   26.8195 H   0  0  0  0  0  0  0  0  0  0  0  0
  1  2  2  0
  2  3  1  0
  3  4  1  0
  4  5  2  0
  5  6  1  0
  6  7  2  0
  7  8  1  0
  8  9  1  0
  9 10  1  0
 10 11  2  0
 11 12  1  0
 12 13  1  0
 13 14  2  0
 14 15  1  0
 15 16  2  0
 16 17  1  0
 17 18  2  0
 18 19  1  0
 16 20  1  0
 15 21  1  0
 14 22  1  0
 12 23  1  0
 12 24  1  0
 11 25  1  0
 25 26  2  0
 26 27  1  0
 27 28  1  0
 28 29  1  0
 29 30  1  0
 30 31  1  0
 30 32  1  0
 29 33  1  0
 29 34  1  0
 28 35  1  0
 35 36  1  0
 36 37  1  0
 37 38  1  0
 37 39  1  0
 36 40  1  0
 36 41  1  0
 27 42  1  0
  8 43  2  0
 43 44  1  0
 44 45  2  0
 44 46  1  0
 43 47  1  0
  7 48  1  0
  5 49  1  0
  4 50  1  0
  3 51  1  0
 45  2  1  0
 45  6  1  0
 26  9  1  0
 35 27  1  0
 18 13  1  0
 30 28  1  0
 37 35  1  0
M  END
>  <cnnaffinity>  (1) 
-6.03781

>  <filename>  (1) 
O=c1[nH]ccc2cc(-n3nc(Cc4cccnc4)nc3C3C4(CC4)C34CC4)ccc12

$$$$
