
     RDKit          3D

 34 36  0  0  0  0  0  0  0  0999 V2000
    8.8169   -1.2791   23.9196 O   0  0  0  0  0  0  0  0  0  0  0  0
    8.3650   -1.2716   22.8041 C   0  0  0  0  0  0  0  0  0  0  0  0
    8.4859   -2.2684   21.8816 O   0  0  0  0  0  0  0  0  0  0  0  0
    7.8713   -1.9033   20.6783 N   0  0  0  0  0  0  0  0  0  0  0  0
    7.3825   -0.7304   20.9006 C   0  0  0  0  0  0  0  0  0  0  0  0
    6.6501    0.0162   19.8958 C   0  0  0  0  0  0  0  0  0  0  0  0
    5.4381    0.6589   20.1608 C   0  0  0  0  0  0  0  0  0  0  0  0
    4.8002    1.3110   19.1096 C   0  0  0  0  0  0  0  0  0  0  0  0
    5.4044    1.2914   17.8460 C   0  0  0  0  0  0  0  0  0  0  0  0
    6.5723    0.6812   17.5829 N   0  0  0  0  0  0  0  0  0  0  0  0
    7.1739    0.0574   18.5975 C   0  0  0  0  0  0  0  0  0  0  0  0
    8.1212   -0.4343   18.3815 H   0  0  0  0  0  0  0  0  0  0  0  0
    4.9140    1.7738   17.0041 H   0  0  0  0  0  0  0  0  0  0  0  0
    3.8700    1.8459   19.2652 H   0  0  0  0  0  0  0  0  0  0  0  0
    4.9986    0.6315   21.1584 H   0  0  0  0  0  0  0  0  0  0  0  0
    7.6380   -0.2730   22.1711 N   0  0  0  0  0  0  0  0  0  0  0  0
    7.3666    1.0280   22.7876 C   0  0  0  0  0  0  0  0  0  0  0  0
    6.3020    0.9085   23.8658 C   0  0  0  0  0  0  0  0  0  0  0  0
    5.8541    2.5368   24.5366 S   0  0  0  0  0  0  0  0  0  0  0  0
    4.6016    1.9540   25.6515 C   0  0  0  0  0  0  0  0  0  0  0  0
    3.2758    1.8241   25.2102 C   0  0  0  0  0  0  0  0  0  0  0  0
    2.2977    1.3275   26.0757 C   0  0  0  0  0  0  0  0  0  0  0  0
    2.6400    0.9502   27.3788 C   0  0  0  0  0  0  0  0  0  0  0  0
    3.9645    1.0655   27.8153 C   0  0  0  0  0  0  0  0  0  0  0  0
    4.9472    1.5608   26.9536 C   0  0  0  0  0  0  0  0  0  0  0  0
    5.9794    1.6458   27.2861 H   0  0  0  0  0  0  0  0  0  0  0  0
    4.2345    0.7721   28.8262 H   0  0  0  0  0  0  0  0  0  0  0  0
    1.8777    0.5677   28.0525 H   0  0  0  0  0  0  0  0  0  0  0  0
    1.2706    1.2388   25.7335 H   0  0  0  0  0  0  0  0  0  0  0  0
    3.0161    2.1224   24.1986 H   0  0  0  0  0  0  0  0  0  0  0  0
    5.4041    0.4485   23.4599 H   0  0  0  0  0  0  0  0  0  0  0  0
    6.6644    0.2717   24.6755 H   0  0  0  0  0  0  0  0  0  0  0  0
    7.0551    1.7518   22.0281 H   0  0  0  0  0  0  0  0  0  0  0  0
    8.2860    1.4162   23.2349 H   0  0  0  0  0  0  0  0  0  0  0  0
  1  2  2  0
  2  3  1  0
  3  4  1  0
  4  5  2  0
  5  6  1  0
  6  7  2  0
  7  8  1  0
  8  9  2  0
  9 10  1  0
 10 11  2  0
 11 12  1  0
  9 13  1  0
  8 14  1  0
  7 15  1  0
  5 16  1  0
 16 17  1  0
 17 18  1  0
 18 19  1  0
 19 20  1  0
 20 21  2  0
 21 22  1  0
 22 23  2  0
 23 24  1  0
 24 25  2  0
 25 26  1  0
 24 27  1  0
 23 28  1  0
 22 29  1  0
 21 30  1  0
 18 31  1  0
 18 32  1  0
 17 33  1  0
 17 34  1  0
 16  2  1  0
 25 20  1  0
 11  6  1  0
M  END
>  <cnnaffinity>  (1) 
-4.86331

>  <filename>  (1) 
O=c1onc(-c2cccnc2)n1CCSc1ccccc1

$$$$
