
     RDKit          3D

 33 35  0  0  0  0  0  0  0  0999 V2000
    4.9642    1.8233   16.9451 H   0  0  0  0  0  0  0  0  0  0  0  0
    5.4012    1.2841   17.7804 C   0  0  0  0  0  0  0  0  0  0  0  0
    6.5526    0.6370   17.5323 N   0  0  0  0  0  0  0  0  0  0  0  0
    7.1364    0.0076   18.5583 C   0  0  0  0  0  0  0  0  0  0  0  0
    8.0820   -0.4951   18.3463 H   0  0  0  0  0  0  0  0  0  0  0  0
    6.6236    0.0043   19.8726 C   0  0  0  0  0  0  0  0  0  0  0  0
    7.3561   -0.6721   20.9642 C   0  0  0  0  0  0  0  0  0  0  0  0
    7.7306   -0.0540   22.1587 C   0  0  0  0  0  0  0  0  0  0  0  0
    7.4424    1.3036   22.3759 N   0  0  0  0  0  0  0  0  0  0  0  0
    7.5685    1.8447   21.5296 H   0  0  0  0  0  0  0  0  0  0  0  0
    7.8332    2.0461   23.5599 C   0  0  0  0  0  0  0  0  0  0  0  0
    7.4326    1.5469   24.4529 H   0  0  0  0  0  0  0  0  0  0  0  0
    7.2980    3.0016   23.4997 H   0  0  0  0  0  0  0  0  0  0  0  0
    9.3193    2.2702   23.7354 C   0  0  0  0  0  0  0  0  0  0  0  0
   10.2987    2.8941   22.4569 S   0  0  0  0  0  0  0  0  0  0  0  0
   11.7271    2.7695   23.4100 C   0  0  0  0  0  0  0  0  0  0  0  0
   12.6695    3.1225   23.0077 H   0  0  0  0  0  0  0  0  0  0  0  0
   11.4683    2.2348   24.6337 C   0  0  0  0  0  0  0  0  0  0  0  0
   12.2369    1.9774   25.3492 H   0  0  0  0  0  0  0  0  0  0  0  0
   10.0745    1.9870   24.8351 C   0  0  0  0  0  0  0  0  0  0  0  0
    9.6321    1.6281   25.7628 H   0  0  0  0  0  0  0  0  0  0  0  0
    8.4013   -0.8679   23.1450 C   0  0  0  0  0  0  0  0  0  0  0  0
    8.7352   -0.3955   24.0725 H   0  0  0  0  0  0  0  0  0  0  0  0
    8.6258   -2.1984   22.9358 C   0  0  0  0  0  0  0  0  0  0  0  0
    9.0715   -2.8495   23.6754 H   0  0  0  0  0  0  0  0  0  0  0  0
    8.2281   -2.8540   21.6984 C   0  0  0  0  0  0  0  0  0  0  0  0
    8.3078   -4.0434   21.4446 O   0  0  0  0  0  0  0  0  0  0  0  0
    7.7047   -1.9896   20.7451 N   0  0  0  0  0  0  0  0  0  0  0  0
    7.3533   -2.5104   19.9557 H   0  0  0  0  0  0  0  0  0  0  0  0
    5.4055    0.6747   20.1031 C   0  0  0  0  0  0  0  0  0  0  0  0
    4.9810    0.6898   21.1090 H   0  0  0  0  0  0  0  0  0  0  0  0
    4.7778    1.3118   19.0325 C   0  0  0  0  0  0  0  0  0  0  0  0
    3.8471    1.8548   19.1645 H   0  0  0  0  0  0  0  0  0  0  0  0
  1  2  1  0
  2  3  2  0
  3  4  1  0
  4  5  1  0
  4  6  2  0
  6  7  1  0
  7  8  2  0
  8  9  1  0
  9 10  1  0
  9 11  1  0
 11 12  1  0
 11 13  1  0
 11 14  1  0
 14 15  1  0
 15 16  1  0
 16 17  1  0
 16 18  2  0
 18 19  1  0
 18 20  1  0
 20 21  1  0
  8 22  1  0
 22 23  1  0
 22 24  2  0
 24 25  1  0
 24 26  1  0
 26 27  2  0
 26 28  1  0
 28 29  1  0
  6 30  1  0
 30 31  1  0
 30 32  2  0
 32 33  1  0
 32  2  1  0
 28  7  1  0
 20 14  2  0
M  END
>  <cnnaffinity>  (1) 
-5.76293

>  <filename>  (1) 
O=c1ccc(NCc2cccs2)c(-c2cccnc2)[nH]1

$$$$
