
     RDKit          3D

 32 34  0  0  0  0  0  0  0  0999 V2000
    4.9118    1.8823   16.8406 H   0  0  0  0  0  0  0  0  0  0  0  0
    5.3586    1.4047   17.7098 C   0  0  0  0  0  0  0  0  0  0  0  0
    6.5348    0.7914   17.5107 N   0  0  0  0  0  0  0  0  0  0  0  0
    7.1023    0.1776   18.5540 C   0  0  0  0  0  0  0  0  0  0  0  0
    8.0447   -0.3273   18.3388 H   0  0  0  0  0  0  0  0  0  0  0  0
    6.5466    0.1713   19.8440 C   0  0  0  0  0  0  0  0  0  0  0  0
    7.2242   -0.5734   20.9292 C   0  0  0  0  0  0  0  0  0  0  0  0
    7.7929   -1.6983   20.5896 N   0  0  0  0  0  0  0  0  0  0  0  0
    8.3161   -2.4768   21.5787 C   0  0  0  0  0  0  0  0  0  0  0  0
    8.6861   -3.6261   21.4691 O   0  0  0  0  0  0  0  0  0  0  0  0
    8.4484   -1.9193   22.8504 N   0  0  0  0  0  0  0  0  0  0  0  0
    8.9440   -2.5715   23.4321 H   0  0  0  0  0  0  0  0  0  0  0  0
    7.8520   -0.7639   23.2594 C   0  0  0  0  0  0  0  0  0  0  0  0
    7.8966   -0.3694   24.7334 C   0  0  0  0  0  0  0  0  0  0  0  0
    6.7182   -0.2294   25.3477 N   0  0  0  0  0  0  0  0  0  0  0  0
    6.6983   -0.0078   26.6668 C   0  0  0  0  0  0  0  0  0  0  0  0
    5.7073    0.0930   27.1015 H   0  0  0  0  0  0  0  0  0  0  0  0
    7.8519    0.0877   27.4525 C   0  0  0  0  0  0  0  0  0  0  0  0
    7.7759    0.2832   28.5187 H   0  0  0  0  0  0  0  0  0  0  0  0
    9.0877   -0.0219   26.8206 C   0  0  0  0  0  0  0  0  0  0  0  0
   10.0269    0.0481   27.3692 H   0  0  0  0  0  0  0  0  0  0  0  0
    9.1068   -0.2043   25.4386 C   0  0  0  0  0  0  0  0  0  0  0  0
   10.3862   -0.2596   24.6721 C   0  0  0  0  0  0  0  0  0  0  0  0
   11.4459    0.1959   25.3578 F   0  0  0  0  0  0  0  0  0  0  0  0
   10.3118    0.4416   23.5315 F   0  0  0  0  0  0  0  0  0  0  0  0
   10.6619   -1.5393   24.3268 F   0  0  0  0  0  0  0  0  0  0  0  0
    7.2153   -0.0632   22.2664 C   0  0  0  0  0  0  0  0  0  0  0  0
    6.7216    0.8717   22.4784 H   0  0  0  0  0  0  0  0  0  0  0  0
    5.3255    0.8347   20.0378 C   0  0  0  0  0  0  0  0  0  0  0  0
    4.8523    0.8591   21.0206 H   0  0  0  0  0  0  0  0  0  0  0  0
    4.7112    1.4454   18.9475 C   0  0  0  0  0  0  0  0  0  0  0  0
    3.7586    1.9569   19.0410 H   0  0  0  0  0  0  0  0  0  0  0  0
  1  2  1  0
  2  3  2  0
  3  4  1  0
  4  5  1  0
  4  6  2  0
  6  7  1  0
  7  8  2  0
  8  9  1  0
  9 10  2  0
  9 11  1  0
 11 12  1  0
 11 13  1  0
 13 14  1  0
 14 15  2  0
 15 16  1  0
 16 17  1  0
 16 18  2  0
 18 19  1  0
 18 20  1  0
 20 21  1  0
 20 22  2  0
 22 23  1  0
 23 24  1  0
 23 25  1  0
 23 26  1  0
 13 27  2  0
 27 28  1  0
  6 29  1  0
 29 30  1  0
 29 31  2  0
 31 32  1  0
 31  2  1  0
 27  7  1  0
 22 14  1  0
M  END
>  <cnnaffinity>  (1) 
-5.6276

>  <filename>  (1) 
O=c1nc(-c2cccnc2)cc(-c2ncccc2C(F)(F)F)[nH]1

$$$$
