
     RDKit          3D

 39 41  0  0  0  0  0  0  0  0999 V2000
    4.8860    1.8870   16.9407 H   0  0  0  0  0  0  0  0  0  0  0  0
    5.3547    1.3462   17.7595 C   0  0  0  0  0  0  0  0  0  0  0  0
    6.5069    0.7236   17.4658 N   0  0  0  0  0  0  0  0  0  0  0  0
    7.1308    0.0845   18.4624 C   0  0  0  0  0  0  0  0  0  0  0  0
    8.0859   -0.3825   18.2298 H   0  0  0  0  0  0  0  0  0  0  0  0
    6.6253   -0.0009   19.7780 C   0  0  0  0  0  0  0  0  0  0  0  0
    7.3538   -0.7049   20.8257 N   0  0  0  0  0  0  0  0  0  0  0  0
    8.6079   -0.2063   21.2824 C   0  0  0  0  0  0  0  0  0  0  0  0
    9.0913    0.7890   20.7839 O   0  0  0  0  0  0  0  0  0  0  0  0
    9.2578   -0.9443   22.3530 C   0  0  0  0  0  0  0  0  0  0  0  0
   10.1544   -0.4815   22.7338 H   0  0  0  0  0  0  0  0  0  0  0  0
    8.7481   -2.0730   22.8857 C   0  0  0  0  0  0  0  0  0  0  0  0
    9.3462   -2.8162   24.0819 C   0  0  0  0  0  0  0  0  0  0  0  0
   10.3729   -3.0892   23.8123 H   0  0  0  0  0  0  0  0  0  0  0  0
    8.8002   -3.7656   24.2244 H   0  0  0  0  0  0  0  0  0  0  0  0
    9.4493   -1.9915   25.2966 N   0  0  0  0  0  0  0  0  0  0  0  0
   10.1560   -2.3661   25.9199 H   0  0  0  0  0  0  0  0  0  0  0  0
    8.2426   -1.7685   26.0869 C   0  0  0  0  0  0  0  0  0  0  0  0
    7.7634   -2.7189   26.4115 H   0  0  0  0  0  0  0  0  0  0  0  0
    7.1696   -0.9147   25.3934 C   0  0  0  0  0  0  0  0  0  0  0  0
    7.6812   -0.1629   24.7818 H   0  0  0  0  0  0  0  0  0  0  0  0
    6.5310   -1.4943   24.7239 H   0  0  0  0  0  0  0  0  0  0  0  0
    6.3658   -0.2334   26.5294 C   0  0  0  0  0  0  0  0  0  0  0  0
    6.2533    0.8340   26.3168 H   0  0  0  0  0  0  0  0  0  0  0  0
    5.3574   -0.6550   26.6213 H   0  0  0  0  0  0  0  0  0  0  0  0
    7.1813   -0.4881   27.8166 C   0  0  0  0  0  0  0  0  0  0  0  0
    6.7184   -1.3308   28.3423 H   0  0  0  0  0  0  0  0  0  0  0  0
    7.2119    0.3596   28.5109 H   0  0  0  0  0  0  0  0  0  0  0  0
    8.5642   -0.9112   27.3103 C   0  0  0  0  0  0  0  0  0  0  0  0
    9.1364   -0.0373   26.9640 H   0  0  0  0  0  0  0  0  0  0  0  0
    9.1788   -1.4279   28.0539 H   0  0  0  0  0  0  0  0  0  0  0  0
    7.5849   -2.5387   22.2903 N   0  0  0  0  0  0  0  0  0  0  0  0
    6.9987   -3.2315   22.7225 H   0  0  0  0  0  0  0  0  0  0  0  0
    6.7825   -1.8259   21.4125 C   0  0  0  0  0  0  0  0  0  0  0  0
    5.6666   -2.2373   21.1887 O   0  0  0  0  0  0  0  0  0  0  0  0
    5.4135    0.6309   20.0642 C   0  0  0  0  0  0  0  0  0  0  0  0
    4.9944    0.5852   21.0691 H   0  0  0  0  0  0  0  0  0  0  0  0
    4.7753    1.3303   19.0311 C   0  0  0  0  0  0  0  0  0  0  0  0
    3.8556    1.8739   19.2007 H   0  0  0  0  0  0  0  0  0  0  0  0
  1  2  1  0
  2  3  2  0
  3  4  1  0
  4  5  1  0
  4  6  2  0
  6  7  1  0
  7  8  1  0
  8  9  2  0
  8 10  1  0
 10 11  1  0
 10 12  2  0
 12 13  1  0
 13 14  1  0
 13 15  1  0
 13 16  1  0
 16 17  1  0
 16 18  1  0
 18 19  1  0
 18 20  1  0
 20 21  1  0
 20 22  1  0
 20 23  1  0
 23 24  1  0
 23 25  1  0
 23 26  1  0
 26 27  1  0
 26 28  1  0
 26 29  1  0
 29 30  1  0
 29 31  1  0
 12 32  1  0
 32 33  1  0
 32 34  1  0
 34 35  2  0
  6 36  1  0
 36 37  1  0
 36 38  2  0
 38 39  1  0
 38  2  1  0
 34  7  1  0
 29 18  1  0
M  END
>  <cnnaffinity>  (1) 
-5.16615

>  <filename>  (1) 
O=c1cc(CNC2CCCC2)[nH]c(=O)n1-c1cccnc1

$$$$
