
     RDKit          3D

 44 47  0  0  0  0  0  0  0  0999 V2000
    4.8800    1.8000   16.9105 H   0  0  0  0  0  0  0  0  0  0  0  0
    5.3416    1.3644   17.7917 C   0  0  0  0  0  0  0  0  0  0  0  0
    6.5337    0.7839   17.5931 N   0  0  0  0  0  0  0  0  0  0  0  0
    7.1262    0.2315   18.6541 C   0  0  0  0  0  0  0  0  0  0  0  0
    8.0955   -0.2274   18.4623 H   0  0  0  0  0  0  0  0  0  0  0  0
    6.5892    0.2293   19.9514 C   0  0  0  0  0  0  0  0  0  0  0  0
    7.3360   -0.4938   20.9988 C   0  0  0  0  0  0  0  0  0  0  0  0
    7.0535   -0.0706   22.2694 O   0  0  0  0  0  0  0  0  0  0  0  0
    7.7112   -0.6528   23.3142 C   0  0  0  0  0  0  0  0  0  0  0  0
    7.5330    0.0291   24.4818 N   0  0  0  0  0  0  0  0  0  0  0  0
    6.1889    0.4310   24.9331 C   0  0  0  0  0  0  0  0  0  0  0  0
    5.7307   -0.3614   25.5468 H   0  0  0  0  0  0  0  0  0  0  0  0
    5.5246    0.6025   24.0825 H   0  0  0  0  0  0  0  0  0  0  0  0
    6.2998    1.6860   25.8088 C   0  0  0  0  0  0  0  0  0  0  0  0
    6.6855    2.5109   25.1888 H   0  0  0  0  0  0  0  0  0  0  0  0
    5.3044    1.9717   26.1660 H   0  0  0  0  0  0  0  0  0  0  0  0
    7.1716    1.4109   26.9494 N   0  0  0  0  0  0  0  0  0  0  0  0
    7.0347    2.0867   28.1695 C   0  0  0  0  0  0  0  0  0  0  0  0
    7.4271    1.4262   29.3456 C   0  0  0  0  0  0  0  0  0  0  0  0
    7.8912    0.4502   29.2515 H   0  0  0  0  0  0  0  0  0  0  0  0
    7.2037    2.0074   30.5918 C   0  0  0  0  0  0  0  0  0  0  0  0
    7.4868    1.4647   31.4901 H   0  0  0  0  0  0  0  0  0  0  0  0
    6.6291    3.2807   30.6799 C   0  0  0  0  0  0  0  0  0  0  0  0
    6.4412    3.7285   31.6518 H   0  0  0  0  0  0  0  0  0  0  0  0
    6.2923    3.9669   29.5085 C   0  0  0  0  0  0  0  0  0  0  0  0
    5.8615    4.9619   29.5606 H   0  0  0  0  0  0  0  0  0  0  0  0
    6.4903    3.3766   28.2585 C   0  0  0  0  0  0  0  0  0  0  0  0
    6.2460    3.8951   27.3371 H   0  0  0  0  0  0  0  0  0  0  0  0
    8.5042    0.9765   26.5478 C   0  0  0  0  0  0  0  0  0  0  0  0
    9.0623    1.8002   26.0738 H   0  0  0  0  0  0  0  0  0  0  0  0
    9.0622    0.6522   27.4264 H   0  0  0  0  0  0  0  0  0  0  0  0
    8.4439   -0.2249   25.6024 C   0  0  0  0  0  0  0  0  0  0  0  0
    9.4547   -0.4211   25.2260 H   0  0  0  0  0  0  0  0  0  0  0  0
    8.1254   -1.1033   26.1916 H   0  0  0  0  0  0  0  0  0  0  0  0
    8.4144   -1.8023   23.1971 C   0  0  0  0  0  0  0  0  0  0  0  0
    8.8526   -2.3124   24.0417 H   0  0  0  0  0  0  0  0  0  0  0  0
    8.5307   -2.4185   21.9036 C   0  0  0  0  0  0  0  0  0  0  0  0
    8.9025   -3.5715   21.7261 O   0  0  0  0  0  0  0  0  0  0  0  0
    8.1518   -1.5407   20.7948 C   0  0  0  0  0  0  0  0  0  0  0  0
    8.5559   -1.7965   19.8348 H   0  0  0  0  0  0  0  0  0  0  0  0
    5.3470    0.8674   20.1456 C   0  0  0  0  0  0  0  0  0  0  0  0
    4.8930    0.9222   21.1350 H   0  0  0  0  0  0  0  0  0  0  0  0
    4.7114    1.4278   19.0392 C   0  0  0  0  0  0  0  0  0  0  0  0
    3.7541    1.9314   19.1233 H   0  0  0  0  0  0  0  0  0  0  0  0
  1  2  1  0
  2  3  2  0
  3  4  1  0
  4  5  1  0
  4  6  2  0
  6  7  1  0
  7  8  1  0
  8  9  1  0
  9 10  1  0
 10 11  1  0
 11 12  1  0
 11 13  1  0
 11 14  1  0
 14 15  1  0
 14 16  1  0
 14 17  1  0
 17 18  1  0
 18 19  2  0
 19 20  1  0
 19 21  1  0
 21 22  1  0
 21 23  2  0
 23 24  1  0
 23 25  1  0
 25 26  1  0
 25 27  2  0
 27 28  1  0
 17 29  1  0
 29 30  1  0
 29 31  1  0
 29 32  1  0
 32 33  1  0
 32 34  1  0
  9 35  2  0
 35 36  1  0
 35 37  1  0
 37 38  2  0
 37 39  1  0
 39 40  1  0
  6 41  1  0
 41 42  1  0
 41 43  2  0
 43 44  1  0
 43  2  1  0
 39  7  2  0
 32 10  1  0
 27 18  1  0
M  END
>  <cnnaffinity>  (1) 
-5.20254

>  <filename>  (1) 
O=c1cc(-c2cccnc2)oc(N2CCN(c3ccccc3)CC2)c1

$$$$
