
     RDKit          3D

 35 37  0  0  0  0  0  0  0  0999 V2000
    8.0267    1.4556   22.7268 H   0  0  0  0  0  0  0  0  0  0  0  0
    8.9137    1.6922   22.1412 C   0  0  0  0  0  0  0  0  0  0  0  0
    9.3969    0.8058   21.2594 C   0  0  0  0  0  0  0  0  0  0  0  0
   10.2079    1.1060   20.5988 H   0  0  0  0  0  0  0  0  0  0  0  0
    8.9255   -0.6330   21.1315 C   0  0  2  0  0  0  0  0  0  0  0  0
    9.5018   -1.0986   20.3223 H   0  0  0  0  0  0  0  0  0  0  0  0
    7.4899   -0.7873   20.8343 N   0  0  0  0  0  0  0  0  0  0  0  0
    6.7917   -0.0855   19.8174 C   0  0  0  0  0  0  0  0  0  0  0  0
    7.2901    0.0553   18.5005 C   0  0  0  0  0  0  0  0  0  0  0  0
    8.2342   -0.4113   18.2148 H   0  0  0  0  0  0  0  0  0  0  0  0
    6.6420    0.7154   17.5323 N   0  0  0  0  0  0  0  0  0  0  0  0
    5.4712    1.2975   17.8359 C   0  0  0  0  0  0  0  0  0  0  0  0
    4.9819    1.8420   17.0296 H   0  0  0  0  0  0  0  0  0  0  0  0
    4.8943    1.2223   19.1081 C   0  0  0  0  0  0  0  0  0  0  0  0
    3.9518    1.7242   19.2990 H   0  0  0  0  0  0  0  0  0  0  0  0
    5.5512    0.5046   20.1105 C   0  0  0  0  0  0  0  0  0  0  0  0
    5.1212    0.3900   21.1059 H   0  0  0  0  0  0  0  0  0  0  0  0
    6.8613   -1.6327   21.7389 C   0  0  0  0  0  0  0  0  0  0  0  0
    5.7781   -2.1723   21.6541 O   0  0  0  0  0  0  0  0  0  0  0  0
    7.7340   -1.8143   22.7836 N   0  0  0  0  0  0  0  0  0  0  0  0
    7.4969   -2.6507   23.2884 H   0  0  0  0  0  0  0  0  0  0  0  0
    9.0987   -1.4618   22.4412 C   0  0  0  0  0  0  0  0  0  0  0  0
    9.7346   -2.3397   22.2664 H   0  0  0  0  0  0  0  0  0  0  0  0
    9.5768   -0.8831   23.2456 H   0  0  0  0  0  0  0  0  0  0  0  0
    9.4549    3.0367   22.4468 C   0  0  0  0  0  0  0  0  0  0  0  0
    8.5537    4.0564   22.8063 C   0  0  0  0  0  0  0  0  0  0  0  0
    7.4985    3.8023   22.9155 H   0  0  0  0  0  0  0  0  0  0  0  0
    8.9911    5.3671   23.0099 C   0  0  0  0  0  0  0  0  0  0  0  0
    8.2742    6.1547   23.2336 H   0  0  0  0  0  0  0  0  0  0  0  0
   10.3569    5.6697   22.8981 C   0  0  0  0  0  0  0  0  0  0  0  0
   10.7056    6.6905   23.0218 H   0  0  0  0  0  0  0  0  0  0  0  0
   11.2728    4.6528   22.6017 C   0  0  0  0  0  0  0  0  0  0  0  0
   12.3332    4.8747   22.5184 H   0  0  0  0  0  0  0  0  0  0  0  0
   10.8282    3.3419   22.3896 C   0  0  0  0  0  0  0  0  0  0  0  0
   11.5450    2.5476   22.1939 H   0  0  0  0  0  0  0  0  0  0  0  0
  1  2  1  0
  2  3  2  3
  3  4  1  0
  3  5  1  0
  5  6  1  6
  5  7  1  0
  7  8  1  0
  8  9  2  0
  9 10  1  0
  9 11  1  0
 11 12  2  0
 12 13  1  0
 12 14  1  0
 14 15  1  0
 14 16  2  0
 16 17  1  0
  7 18  1  0
 18 19  2  0
 18 20  1  0
 20 21  1  0
 20 22  1  0
 22 23  1  0
 22 24  1  0
  2 25  1  0
 25 26  2  0
 26 27  1  0
 26 28  1  0
 28 29  1  0
 28 30  2  0
 30 31  1  0
 30 32  1  0
 32 33  1  0
 32 34  2  0
 34 35  1  0
 22  5  1  0
 34 25  1  0
 16  8  1  0
M  END
>  <cnnaffinity>  (1) 
-5.30645

>  <filename>  (1) 
O=C1NC[C@H](C=Cc2ccccc2)N1c1cccnc1

$$$$
