
     RDKit          3D

 30 32  0  0  0  0  0  0  0  0999 V2000
   12.0641   -4.9132   25.1739 H   0  0  0  0  0  0  0  0  0  0  0  0
   11.0298   -4.6069   25.0251 C   0  0  0  0  0  0  0  0  0  0  0  0
   10.7589   -3.9488   23.8888 N   0  0  0  0  0  0  0  0  0  0  0  0
    9.4865   -3.6176   23.6869 C   0  0  0  0  0  0  0  0  0  0  0  0
    9.2789   -3.0876   22.4257 N   0  0  0  0  0  0  0  0  0  0  0  0
   10.1939   -3.1017   21.9981 H   0  0  0  0  0  0  0  0  0  0  0  0
    8.6140   -1.9046   22.2640 C   0  0  0  0  0  0  0  0  0  0  0  0
    8.1669   -0.9939   23.1340 C   0  0  0  0  0  0  0  0  0  0  0  0
    8.3567   -0.9178   24.1863 H   0  0  0  0  0  0  0  0  0  0  0  0
    7.3214   -0.0782   22.4026 C   0  0  0  0  0  0  0  0  0  0  0  0
    6.7023    0.8922   22.7966 O   0  0  0  0  0  0  0  0  0  0  0  0
    7.3365   -0.5686   21.0601 N   0  0  0  0  0  0  0  0  0  0  0  0
    6.7145   -0.0081   19.9239 C   0  0  0  0  0  0  0  0  0  0  0  0
    7.2466   -0.0702   18.6126 C   0  0  0  0  0  0  0  0  0  0  0  0
    8.1772   -0.5966   18.4169 H   0  0  0  0  0  0  0  0  0  0  0  0
    6.6688    0.5128   17.5541 N   0  0  0  0  0  0  0  0  0  0  0  0
    5.5181    1.1797   17.7557 C   0  0  0  0  0  0  0  0  0  0  0  0
    5.0784    1.6648   16.8875 H   0  0  0  0  0  0  0  0  0  0  0  0
    4.8930    1.2669   19.0042 C   0  0  0  0  0  0  0  0  0  0  0  0
    3.9684    1.8259   19.1186 H   0  0  0  0  0  0  0  0  0  0  0  0
    5.4968    0.6661   20.1071 C   0  0  0  0  0  0  0  0  0  0  0  0
    5.0794    0.7207   21.1090 H   0  0  0  0  0  0  0  0  0  0  0  0
    8.2566   -1.6380   20.9531 N   0  0  0  0  0  0  0  0  0  0  0  0
    7.8385   -2.4837   20.5705 H   0  0  0  0  0  0  0  0  0  0  0  0
    8.4371   -3.8813   24.5730 C   0  0  0  0  0  0  0  0  0  0  0  0
    7.4499   -3.5415   24.2823 H   0  0  0  0  0  0  0  0  0  0  0  0
    8.7340   -4.5713   25.7499 C   0  0  0  0  0  0  0  0  0  0  0  0
    7.9389   -4.8458   26.4471 H   0  0  0  0  0  0  0  0  0  0  0  0
   10.0696   -4.9380   25.9852 C   0  0  0  0  0  0  0  0  0  0  0  0
   10.3681   -5.4666   26.8859 H   0  0  0  0  0  0  0  0  0  0  0  0
  1  2  1  0
  2  3  2  0
  3  4  1  0
  4  5  1  0
  5  6  1  0
  5  7  1  0
  7  8  2  0
  8  9  1  0
  8 10  1  0
 10 11  2  0
 10 12  1  0
 12 13  1  0
 13 14  2  0
 14 15  1  0
 14 16  1  0
 16 17  2  0
 17 18  1  0
 17 19  1  0
 19 20  1  0
 19 21  2  0
 21 22  1  0
 12 23  1  0
 23 24  1  0
  4 25  2  0
 25 26  1  0
 25 27  1  0
 27 28  1  0
 27 29  2  0
 29 30  1  0
 29  2  1  0
 23  7  1  0
 21 13  1  0
M  END
>  <cnnaffinity>  (1) 
-5.20385

>  <filename>  (1) 
O=c1cc(Nc2ccccn2)[nH]n1-c1cccnc1

$$$$
