
     RDKit          3D

 31 33  0  0  0  0  0  0  0  0999 V2000
    4.9476    2.0187   16.8392 H   0  0  0  0  0  0  0  0  0  0  0  0
    5.4696    1.4696   17.6193 C   0  0  0  0  0  0  0  0  0  0  0  0
    6.6567    0.9443   17.2802 N   0  0  0  0  0  0  0  0  0  0  0  0
    7.3173    0.2371   18.2055 C   0  0  0  0  0  0  0  0  0  0  0  0
    8.2950   -0.1402   17.9101 H   0  0  0  0  0  0  0  0  0  0  0  0
    6.8075   -0.0244   19.4979 C   0  0  0  0  0  0  0  0  0  0  0  0
    7.4691   -0.8895   20.4147 N   0  0  0  0  0  0  0  0  0  0  0  0
    6.8061   -1.8365   21.2002 C   0  0  0  0  0  0  0  0  0  0  0  0
    5.7062   -2.2904   21.0645 O   0  0  0  0  0  0  0  0  0  0  0  0
    7.6749   -2.1598   22.2314 N   0  0  0  0  0  0  0  0  0  0  0  0
    7.3107   -2.9845   23.3133 C   0  0  0  0  0  0  0  0  0  0  0  0
    6.5837   -3.9234   23.1410 O   0  0  0  0  0  0  0  0  0  0  0  0
    7.9349   -2.6221   24.6631 C   0  0  0  0  0  0  0  0  0  0  0  0
    8.0974   -1.2941   25.1063 C   0  0  0  0  0  0  0  0  0  0  0  0
    7.7311   -0.4391   24.5428 H   0  0  0  0  0  0  0  0  0  0  0  0
    8.7640   -1.0523   26.3141 C   0  0  0  0  0  0  0  0  0  0  0  0
    8.9543   -0.0297   26.6322 H   0  0  0  0  0  0  0  0  0  0  0  0
    9.2112   -2.0201   27.1232 N   0  0  0  0  0  0  0  0  0  0  0  0
    9.0093   -3.2841   26.7340 C   0  0  0  0  0  0  0  0  0  0  0  0
    9.3646   -4.0643   27.4056 H   0  0  0  0  0  0  0  0  0  0  0  0
    8.3699   -3.6365   25.5410 C   0  0  0  0  0  0  0  0  0  0  0  0
    8.2289   -4.6883   25.3127 H   0  0  0  0  0  0  0  0  0  0  0  0
    8.9248   -1.6205   22.0480 C   0  0  0  0  0  0  0  0  0  0  0  0
    9.8773   -1.8651   22.7360 O   0  0  0  0  0  0  0  0  0  0  0  0
    8.8340   -0.6812   20.8758 C   0  0  0  0  0  0  0  0  0  0  0  0
    9.6059   -0.9297   20.1433 H   0  0  0  0  0  0  0  0  0  0  0  0
    9.0122    0.3389   21.2304 H   0  0  0  0  0  0  0  0  0  0  0  0
    5.6004    0.5929   19.8611 C   0  0  0  0  0  0  0  0  0  0  0  0
    5.2294    0.4818   20.8804 H   0  0  0  0  0  0  0  0  0  0  0  0
    4.9182    1.3418   18.8981 C   0  0  0  0  0  0  0  0  0  0  0  0
    3.9698    1.8132   19.1197 H   0  0  0  0  0  0  0  0  0  0  0  0
  1  2  1  0
  2  3  2  0
  3  4  1  0
  4  5  1  0
  4  6  2  0
  6  7  1  0
  7  8  1  0
  8  9  2  0
  8 10  1  0
 10 11  1  0
 11 12  2  0
 11 13  1  0
 13 14  2  0
 14 15  1  0
 14 16  1  0
 16 17  1  0
 16 18  2  0
 18 19  1  0
 19 20  1  0
 19 21  2  0
 21 22  1  0
 10 23  1  0
 23 24  2  0
 23 25  1  0
 25 26  1  0
 25 27  1  0
  6 28  1  0
 28 29  1  0
 28 30  2  0
 30 31  1  0
 30  2  1  0
 25  7  1  0
 21 13  1  0
M  END
>  <cnnaffinity>  (1) 
-5.52702

>  <filename>  (1) 
O=C1CN(c2cccnc2)C(=O)N1C(=O)c1ccncc1

$$$$
