
     RDKit          3D

 30 32  0  0  0  0  0  0  0  0999 V2000
    6.4038    0.1165   24.8997 O   0  0  0  0  0  0  0  0  0  0  0  0
    6.6385    1.0506   24.1516 C   0  0  0  0  0  0  0  0  0  0  0  0
    6.3151    2.3312   24.6037 N   0  0  0  0  0  0  0  0  0  0  0  0
    6.4855    3.5157   24.0211 N   0  0  0  0  0  0  0  0  0  0  0  0
    7.0287    3.5252   22.8317 C   0  0  0  0  0  0  0  0  0  0  0  0
    7.2401    4.9087   22.2072 C   0  0  0  0  0  0  0  0  0  0  0  0
    6.4849    5.0639   21.1014 F   0  0  0  0  0  0  0  0  0  0  0  0
    6.9632    5.9160   23.0413 F   0  0  0  0  0  0  0  0  0  0  0  0
    8.5122    5.0757   21.7998 F   0  0  0  0  0  0  0  0  0  0  0  0
    7.4293    2.3079   22.1717 C   0  0  0  0  0  0  0  0  0  0  0  0
    7.2199    1.0762   22.7915 C   0  0  0  0  0  0  0  0  0  0  0  0
    7.5869   -0.2300   22.2286 C   0  0  0  0  0  0  0  0  0  0  0  0
    8.2141   -1.2947   22.8494 C   0  0  0  0  0  0  0  0  0  0  0  0
    8.4088   -2.2493   21.8405 C   0  0  0  0  0  0  0  0  0  0  0  0
    7.9253   -1.8427   20.6769 N   0  0  0  0  0  0  0  0  0  0  0  0
    7.4030   -0.6268   20.9185 N   0  0  0  0  0  0  0  0  0  0  0  0
    6.6681    0.0138   19.9030 C   0  0  0  0  0  0  0  0  0  0  0  0
    5.4440    0.6441   20.1534 C   0  0  0  0  0  0  0  0  0  0  0  0
    4.8259    1.2970   19.0898 C   0  0  0  0  0  0  0  0  0  0  0  0
    5.4387    1.2859   17.8326 C   0  0  0  0  0  0  0  0  0  0  0  0
    6.5899    0.6370   17.5830 N   0  0  0  0  0  0  0  0  0  0  0  0
    7.1809    0.0041   18.5942 C   0  0  0  0  0  0  0  0  0  0  0  0
    8.1089   -0.5256   18.3851 H   0  0  0  0  0  0  0  0  0  0  0  0
    4.9902    1.8171   16.9971 H   0  0  0  0  0  0  0  0  0  0  0  0
    3.8915    1.8279   19.2309 H   0  0  0  0  0  0  0  0  0  0  0  0
    5.0107    0.6384   21.1552 H   0  0  0  0  0  0  0  0  0  0  0  0
    8.8635   -3.2310   21.9035 H   0  0  0  0  0  0  0  0  0  0  0  0
    8.4670   -1.3607   23.8973 H   0  0  0  0  0  0  0  0  0  0  0  0
    7.8642    2.3331   21.1786 H   0  0  0  0  0  0  0  0  0  0  0  0
    5.9290    2.3149   25.5393 H   0  0  0  0  0  0  0  0  0  0  0  0
  1  2  2  0
  2  3  1  0
  3  4  1  0
  4  5  2  0
  5  6  1  0
  6  7  1  0
  6  8  1  0
  6  9  1  0
  5 10  1  0
 10 11  2  0
 11 12  1  0
 12 13  2  0
 13 14  1  0
 14 15  2  0
 15 16  1  0
 16 17  1  0
 17 18  2  0
 18 19  1  0
 19 20  2  0
 20 21  1  0
 21 22  2  0
 22 23  1  0
 20 24  1  0
 19 25  1  0
 18 26  1  0
 14 27  1  0
 13 28  1  0
 10 29  1  0
  3 30  1  0
 11  2  1  0
 16 12  1  0
 22 17  1  0
M  END
>  <cnnaffinity>  (1) 
-5.34536

>  <filename>  (1) 
O=c1[nH]nc(C(F)(F)F)cc1-c1ccnn1-c1cccnc1

$$$$
