
     RDKit          3D

 46 50  0  0  0  0  0  0  0  0999 V2000
    6.2543   -0.1111   26.3198 O   0  0  0  0  0  0  0  0  0  0  0  0
    5.7208   -1.1015   25.8611 C   0  0  0  0  0  0  0  0  0  0  0  0
    4.3081   -1.4611   26.3203 C   0  0  0  0  0  0  0  0  0  0  0  0
    3.5866   -2.4070   25.5358 O   0  0  0  0  0  0  0  0  0  0  0  0
    4.3270   -3.3650   24.8979 C   0  0  0  0  0  0  0  0  0  0  0  0
    3.6787   -4.5430   24.5365 C   0  0  0  0  0  0  0  0  0  0  0  0
    4.3543   -5.5393   23.8291 C   0  0  0  0  0  0  0  0  0  0  0  0
    5.6882   -5.3261   23.4714 C   0  0  0  0  0  0  0  0  0  0  0  0
    6.5364   -6.5461   22.5690 Cl  0  0  0  0  0  0  0  0  0  0  0  0
    6.3526   -4.1517   23.8160 C   0  0  0  0  0  0  0  0  0  0  0  0
    5.6851   -3.1623   24.5568 C   0  0  0  0  0  0  0  0  0  0  0  0
    6.3352   -1.9718   24.9650 N   0  0  0  0  0  0  0  0  0  0  0  0
    7.5851   -1.5627   24.3021 C   0  0  0  0  0  0  0  0  0  0  0  0
    7.4736   -1.3674   22.8073 C   0  0  0  0  0  0  0  0  0  0  0  0
    6.5924   -0.6036   22.1838 N   0  0  0  0  0  0  0  0  0  0  0  0
    6.9570   -0.7055   20.8843 C   0  0  0  0  0  0  0  0  0  0  0  0
    6.3726    0.0441   19.7825 C   0  0  0  0  0  0  0  0  0  0  0  0
    5.2239    0.8354   19.9036 C   0  0  0  0  0  0  0  0  0  0  0  0
    4.7939    1.5184   18.7655 C   0  0  0  0  0  0  0  0  0  0  0  0
    5.5113    1.3736   17.5715 C   0  0  0  0  0  0  0  0  0  0  0  0
    6.6121    0.6177   17.4528 N   0  0  0  0  0  0  0  0  0  0  0  0
    7.0346   -0.0170   18.5472 C   0  0  0  0  0  0  0  0  0  0  0  0
    7.9509   -0.5984   18.4603 H   0  0  0  0  0  0  0  0  0  0  0  0
    5.2146    1.8990   16.6676 H   0  0  0  0  0  0  0  0  0  0  0  0
    3.9401    2.1859   18.7851 H   0  0  0  0  0  0  0  0  0  0  0  0
    4.7039    0.9139   20.8626 H   0  0  0  0  0  0  0  0  0  0  0  0
    7.9982   -1.4904   20.6750 N   0  0  0  0  0  0  0  0  0  0  0  0
    8.3144   -1.9427   21.9061 N   0  0  0  0  0  0  0  0  0  0  0  0
    9.6669   -2.4590   22.0878 C   0  0  0  0  0  0  0  0  0  0  0  0
   10.6098   -1.3772   22.5552 C   0  0  0  0  0  0  0  0  0  0  0  0
   11.8816   -1.3005   22.1766 C   0  0  0  0  0  0  0  0  0  0  0  0
   12.8031   -0.1788   22.5881 C   0  0  0  0  0  0  0  0  0  0  0  0
   12.7299    0.0000   23.6846 H   0  0  0  0  0  0  0  0  0  0  0  0
   12.4395    0.7740   22.1406 H   0  0  0  0  0  0  0  0  0  0  0  0
   12.2479   -2.0533   21.4781 H   0  0  0  0  0  0  0  0  0  0  0  0
   13.8567   -0.4021   22.2732 H   0  0  0  0  0  0  0  0  0  0  0  0
   10.1952   -0.6079   23.2115 H   0  0  0  0  0  0  0  0  0  0  0  0
    9.6484   -3.3138   22.7717 H   0  0  0  0  0  0  0  0  0  0  0  0
    9.9590   -2.8346   21.1018 H   0  0  0  0  0  0  0  0  0  0  0  0
    7.8660   -0.6005   24.7355 H   0  0  0  0  0  0  0  0  0  0  0  0
    8.3902   -2.2656   24.5563 H   0  0  0  0  0  0  0  0  0  0  0  0
    7.3732   -3.9960   23.4880 H   0  0  0  0  0  0  0  0  0  0  0  0
    3.8589   -6.4617   23.5445 H   0  0  0  0  0  0  0  0  0  0  0  0
    2.6382   -4.6476   24.8254 H   0  0  0  0  0  0  0  0  0  0  0  0
    3.7367   -0.5319   26.3044 H   0  0  0  0  0  0  0  0  0  0  0  0
    4.3915   -1.8086   27.3573 H   0  0  0  0  0  0  0  0  0  0  0  0
  1  2  2  0
  2  3  1  0
  3  4  1  0
  4  5  1  0
  5  6  2  0
  6  7  1  0
  7  8  2  0
  8  9  1  0
  8 10  1  0
 10 11  2  0
 11 12  1  0
 12 13  1  0
 13 14  1  0
 14 15  2  0
 15 16  1  0
 16 17  1  0
 17 18  2  0
 18 19  1  0
 19 20  2  0
 20 21  1  0
 21 22  2  0
 22 23  1  0
 20 24  1  0
 19 25  1  0
 18 26  1  0
 16 27  2  0
 27 28  1  0
 28 29  1  0
 29 30  1  0
 30 31  1  0
 31 32  1  0
 32 33  1  0
 32 34  1  0
 31 35  1  0
 31 36  1  0
 30 37  1  0
 29 38  1  0
 29 39  1  0
 13 40  1  0
 13 41  1  0
 10 42  1  0
  7 43  1  0
  6 44  1  0
  3 45  1  0
  3 46  1  0
 12  2  1  0
 28 14  1  0
 32 30  1  0
 11  5  1  0
 22 17  1  0
M  END
>  <cnnaffinity>  (1) 
-6.41612

>  <filename>  (1) 
O=C1COc2ccc(Cl)cc2N1Cc1nc(-c2cccnc2)nn1CC1CC1

$$$$
