
     RDKit          3D

 28 30  0  0  0  0  0  0  0  0999 V2000
    4.9679    1.7854   16.9603 H   0  0  0  0  0  0  0  0  0  0  0  0
    5.4229    1.3058   17.8315 C   0  0  0  0  0  0  0  0  0  0  0  0
    6.5868    0.6711   17.6286 N   0  0  0  0  0  0  0  0  0  0  0  0
    7.1551    0.0739   18.6840 C   0  0  0  0  0  0  0  0  0  0  0  0
    8.1024   -0.4231   18.4771 H   0  0  0  0  0  0  0  0  0  0  0  0
    6.6319    0.0756   19.9936 C   0  0  0  0  0  0  0  0  0  0  0  0
    7.3704   -0.6244   21.0597 C   0  0  0  0  0  0  0  0  0  0  0  0
    8.0116   -1.8013   21.0331 C   0  0  0  0  0  0  0  0  0  0  0  0
    8.0713   -2.6027   20.3310 H   0  0  0  0  0  0  0  0  0  0  0  0
    8.5446   -2.0995   22.2550 O   0  0  0  0  0  0  0  0  0  0  0  0
    8.2137   -1.1145   23.1382 C   0  0  0  0  0  0  0  0  0  0  0  0
    8.5033   -1.1271   24.3052 O   0  0  0  0  0  0  0  0  0  0  0  0
    7.4997   -0.1803   22.3972 N   0  0  0  0  0  0  0  0  0  0  0  0
    7.0664    1.0382   22.9681 C   0  0  0  0  0  0  0  0  0  0  0  0
    6.1312    0.9840   24.0089 C   0  0  0  0  0  0  0  0  0  0  0  0
    5.8207    0.0054   24.3685 H   0  0  0  0  0  0  0  0  0  0  0  0
    5.6486    2.1636   24.5640 C   0  0  0  0  0  0  0  0  0  0  0  0
    4.9053    2.1171   25.3499 H   0  0  0  0  0  0  0  0  0  0  0  0
    6.1122    3.3974   24.1074 C   0  0  0  0  0  0  0  0  0  0  0  0
    5.7322    4.3221   24.5259 H   0  0  0  0  0  0  0  0  0  0  0  0
    7.0623    3.4510   23.0854 C   0  0  0  0  0  0  0  0  0  0  0  0
    7.5944    5.0009   22.5423 Cl  0  0  0  0  0  0  0  0  0  0  0  0
    7.5498    2.2754   22.4990 C   0  0  0  0  0  0  0  0  0  0  0  0
    8.7204    2.3401   21.2298 Cl  0  0  0  0  0  0  0  0  0  0  0  0
    5.4042    0.7431   20.1817 C   0  0  0  0  0  0  0  0  0  0  0  0
    4.9444    0.7851   21.1713 H   0  0  0  0  0  0  0  0  0  0  0  0
    4.7948    1.3544   19.0813 C   0  0  0  0  0  0  0  0  0  0  0  0
    3.8424    1.8634   19.1659 H   0  0  0  0  0  0  0  0  0  0  0  0
  1  2  1  0
  2  3  2  0
  3  4  1  0
  4  5  1  0
  4  6  2  0
  6  7  1  0
  7  8  2  0
  8  9  1  0
  8 10  1  0
 10 11  1  0
 11 12  2  0
 11 13  1  0
 13 14  1  0
 14 15  2  0
 15 16  1  0
 15 17  1  0
 17 18  1  0
 17 19  2  0
 19 20  1  0
 19 21  1  0
 21 22  1  0
 21 23  2  0
 23 24  1  0
  6 25  1  0
 25 26  1  0
 25 27  2  0
 27 28  1  0
 27  2  1  0
 13  7  1  0
 23 14  1  0
M  END
>  <cnnaffinity>  (1) 
-5.01618

>  <filename>  (1) 
O=c1occ(-c2cccnc2)n1-c1cccc(Cl)c1Cl

$$$$
