
     RDKit          3D

 33 35  0  0  0  0  0  0  0  0999 V2000
    4.9195    1.9476   16.8530 H   0  0  0  0  0  0  0  0  0  0  0  0
    5.3798    1.4097   17.6794 C   0  0  0  0  0  0  0  0  0  0  0  0
    6.5305    0.7770   17.3961 N   0  0  0  0  0  0  0  0  0  0  0  0
    7.1449    0.1247   18.3926 C   0  0  0  0  0  0  0  0  0  0  0  0
    8.0854   -0.3691   18.1520 H   0  0  0  0  0  0  0  0  0  0  0  0
    6.6297    0.0472   19.7055 C   0  0  0  0  0  0  0  0  0  0  0  0
    7.2930   -0.6823   20.7828 N   0  0  0  0  0  0  0  0  0  0  0  0
    6.6398   -1.7921   21.3851 C   0  0  0  0  0  0  0  0  0  0  0  0
    5.5984   -2.2272   20.9422 O   0  0  0  0  0  0  0  0  0  0  0  0
    7.2999   -2.4028   22.5272 C   0  0  0  0  0  0  0  0  0  0  0  0
    6.7668   -3.2519   22.9213 H   0  0  0  0  0  0  0  0  0  0  0  0
    8.4829   -1.9781   23.0066 C   0  0  0  0  0  0  0  0  0  0  0  0
    9.2487   -2.6819   24.1120 C   0  0  0  0  0  0  0  0  0  0  0  0
   10.4365   -3.1840   23.7427 N   0  0  0  0  0  0  0  0  0  0  0  0
   11.0199   -4.0741   24.5417 C   0  0  0  0  0  0  0  0  0  0  0  0
   11.9325   -4.5064   24.1580 H   0  0  0  0  0  0  0  0  0  0  0  0
   10.4997   -4.4683   25.7763 C   0  0  0  0  0  0  0  0  0  0  0  0
   11.0100   -5.2236   26.3605 H   0  0  0  0  0  0  0  0  0  0  0  0
    9.3434   -3.8523   26.2335 C   0  0  0  0  0  0  0  0  0  0  0  0
    8.9162   -4.0994   27.2069 H   0  0  0  0  0  0  0  0  0  0  0  0
    8.7343   -2.9048   25.4054 C   0  0  0  0  0  0  0  0  0  0  0  0
    7.5020   -2.1866   25.8632 C   0  0  0  0  0  0  0  0  0  0  0  0
    7.4547   -0.9166   25.4381 F   0  0  0  0  0  0  0  0  0  0  0  0
    7.3885   -2.1648   27.2027 F   0  0  0  0  0  0  0  0  0  0  0  0
    6.3995   -2.8064   25.3865 F   0  0  0  0  0  0  0  0  0  0  0  0
    9.0361   -0.8806   22.3601 N   0  0  0  0  0  0  0  0  0  0  0  0
    9.9648   -0.5208   22.5147 H   0  0  0  0  0  0  0  0  0  0  0  0
    8.5293   -0.2441   21.2479 C   0  0  0  0  0  0  0  0  0  0  0  0
    9.1825    0.6408   20.7360 O   0  0  0  0  0  0  0  0  0  0  0  0
    5.4173    0.6859   19.9735 C   0  0  0  0  0  0  0  0  0  0  0  0
    4.9846    0.6143   20.9699 H   0  0  0  0  0  0  0  0  0  0  0  0
    4.7864    1.3947   18.9440 C   0  0  0  0  0  0  0  0  0  0  0  0
    3.8557    1.9270   19.1091 H   0  0  0  0  0  0  0  0  0  0  0  0
  1  2  1  0
  2  3  2  0
  3  4  1  0
  4  5  1  0
  4  6  2  0
  6  7  1  0
  7  8  1  0
  8  9  2  0
  8 10  1  0
 10 11  1  0
 10 12  2  0
 12 13  1  0
 13 14  2  0
 14 15  1  0
 15 16  1  0
 15 17  2  0
 17 18  1  0
 17 19  1  0
 19 20  1  0
 19 21  2  0
 21 22  1  0
 22 23  1  0
 22 24  1  0
 22 25  1  0
 12 26  1  0
 26 27  1  0
 26 28  1  0
 28 29  2  0
  6 30  1  0
 30 31  1  0
 30 32  2  0
 32 33  1  0
 32  2  1  0
 28  7  1  0
 21 13  1  0
M  END
>  <cnnaffinity>  (1) 
-5.76076

>  <filename>  (1) 
O=c1cc(-c2ncccc2C(F)(F)F)[nH]c(=O)n1-c1cccnc1

$$$$
