
     RDKit          3D

 34 37  0  0  0  0  0  0  0  0999 V2000
    4.8719    1.8484   16.8985 H   0  0  0  0  0  0  0  0  0  0  0  0
    5.3781    1.3530   17.7228 C   0  0  0  0  0  0  0  0  0  0  0  0
    6.5310    0.7336   17.4210 N   0  0  0  0  0  0  0  0  0  0  0  0
    7.1803    0.1040   18.4079 C   0  0  0  0  0  0  0  0  0  0  0  0
    8.1190   -0.3845   18.1536 H   0  0  0  0  0  0  0  0  0  0  0  0
    6.7031    0.0414   19.7330 C   0  0  0  0  0  0  0  0  0  0  0  0
    7.3434   -0.7319   20.7387 N   0  0  0  0  0  0  0  0  0  0  0  0
    6.6524   -1.5436   21.6289 C   0  0  0  0  0  0  0  0  0  0  0  0
    5.5782   -1.6318   21.5937 H   0  0  0  0  0  0  0  0  0  0  0  0
    7.5304   -2.0468   22.5187 C   0  0  0  0  0  0  0  0  0  0  0  0
    7.3260   -2.8656   23.7019 C   0  0  0  0  0  0  0  0  0  0  0  0
    6.4351   -3.9292   23.7314 C   0  0  0  0  0  0  0  0  0  0  0  0
    5.8184   -4.1122   22.8586 H   0  0  0  0  0  0  0  0  0  0  0  0
    6.3560   -4.8006   24.8443 C   0  0  0  0  0  0  0  0  0  0  0  0
    5.6609   -5.6383   24.8070 H   0  0  0  0  0  0  0  0  0  0  0  0
    7.1646   -4.6014   25.9436 C   0  0  0  0  0  0  0  0  0  0  0  0
    7.1367   -5.3032   26.7791 H   0  0  0  0  0  0  0  0  0  0  0  0
    8.0154   -3.4518   25.9968 C   0  0  0  0  0  0  0  0  0  0  0  0
    8.7746   -3.0877   27.1443 C   0  0  0  0  0  0  0  0  0  0  0  0
    8.8095   -3.8118   27.9555 H   0  0  0  0  0  0  0  0  0  0  0  0
    9.3818   -1.8527   27.1957 C   0  0  0  0  0  0  0  0  0  0  0  0
    9.9196   -1.4788   28.0609 H   0  0  0  0  0  0  0  0  0  0  0  0
    9.3541   -1.0200   26.0492 C   0  0  0  0  0  0  0  0  0  0  0  0
    9.8588   -0.0547   26.0876 H   0  0  0  0  0  0  0  0  0  0  0  0
    8.8069   -1.3846   24.9155 N   0  0  0  0  0  0  0  0  0  0  0  0
    8.0755   -2.5482   24.8849 C   0  0  0  0  0  0  0  0  0  0  0  0
    8.7891   -1.5682   22.1589 N   0  0  0  0  0  0  0  0  0  0  0  0
    9.5340   -1.4172   22.8234 H   0  0  0  0  0  0  0  0  0  0  0  0
    8.7046   -0.7027   21.0997 C   0  0  0  0  0  0  0  0  0  0  0  0
    9.6126   -0.0557   20.6251 O   0  0  0  0  0  0  0  0  0  0  0  0
    5.5148    0.7169   20.0397 C   0  0  0  0  0  0  0  0  0  0  0  0
    5.1507    0.7265   21.0685 H   0  0  0  0  0  0  0  0  0  0  0  0
    4.8343    1.3731   19.0118 C   0  0  0  0  0  0  0  0  0  0  0  0
    3.8945    1.8816   19.1966 H   0  0  0  0  0  0  0  0  0  0  0  0
  1  2  1  0
  2  3  2  0
  3  4  1  0
  4  5  1  0
  4  6  2  0
  6  7  1  0
  7  8  1  0
  8  9  1  0
  8 10  2  0
 10 11  1  0
 11 12  2  0
 12 13  1  0
 12 14  1  0
 14 15  1  0
 14 16  2  0
 16 17  1  0
 16 18  1  0
 18 19  2  0
 19 20  1  0
 19 21  1  0
 21 22  1  0
 21 23  2  0
 23 24  1  0
 23 25  1  0
 25 26  2  0
 10 27  1  0
 27 28  1  0
 27 29  1  0
 29 30  2  0
  6 31  1  0
 31 32  1  0
 31 33  2  0
 33 34  1  0
 33  2  1  0
 29  7  1  0
 26 11  1  0
 26 18  1  0
M  END
>  <cnnaffinity>  (1) 
-5.66241

>  <filename>  (1) 
O=c1[nH]c(-c2cccc3cccnc23)cn1-c1cccnc1

$$$$
