
     RDKit          3D

 29 31  0  0  0  0  0  0  0  0999 V2000
    4.9330    1.8055   16.9842 H   0  0  0  0  0  0  0  0  0  0  0  0
    5.3971    1.2985   17.8226 C   0  0  0  0  0  0  0  0  0  0  0  0
    6.5579    0.6783   17.5525 N   0  0  0  0  0  0  0  0  0  0  0  0
    7.1677    0.0624   18.5697 C   0  0  0  0  0  0  0  0  0  0  0  0
    8.1154   -0.4237   18.3456 H   0  0  0  0  0  0  0  0  0  0  0  0
    6.6560    0.0178   19.8865 C   0  0  0  0  0  0  0  0  0  0  0  0
    7.3577   -0.6726   20.9339 C   0  0  0  0  0  0  0  0  0  0  0  0
    7.9321   -1.2799   21.8026 C   0  0  0  0  0  0  0  0  0  0  0  0
    8.6177   -1.9458   22.7613 N   0  0  0  0  0  0  0  0  0  0  0  0
    9.3114   -1.3699   23.8638 C   0  0  0  0  0  0  0  0  0  0  0  0
    9.6538    0.0632   23.9845 C   0  0  0  0  0  0  0  0  0  0  0  0
    9.7318    0.6546   25.2621 C   0  0  0  0  0  0  0  0  0  0  0  0
    9.5370    0.0722   26.1618 H   0  0  0  0  0  0  0  0  0  0  0  0
   10.0283    1.9389   25.4847 N   0  0  0  0  0  0  0  0  0  0  0  0
   10.2820    2.7240   24.4326 C   0  0  0  0  0  0  0  0  0  0  0  0
   10.5037    3.7689   24.6633 H   0  0  0  0  0  0  0  0  0  0  0  0
   10.2677    2.2512   23.1187 C   0  0  0  0  0  0  0  0  0  0  0  0
   10.4852    2.9442   22.3122 H   0  0  0  0  0  0  0  0  0  0  0  0
    9.9530    0.9078   22.8905 C   0  0  0  0  0  0  0  0  0  0  0  0
    9.9376    0.4966   21.8837 H   0  0  0  0  0  0  0  0  0  0  0  0
    9.5658   -2.4077   24.6682 C   0  0  0  0  0  0  0  0  0  0  0  0
    9.9772   -2.4971   25.6546 H   0  0  0  0  0  0  0  0  0  0  0  0
    9.1384   -3.5871   24.1262 O   0  0  0  0  0  0  0  0  0  0  0  0
    8.4988   -3.3300   22.9504 C   0  0  0  0  0  0  0  0  0  0  0  0
    7.9624   -4.1644   22.2805 O   0  0  0  0  0  0  0  0  0  0  0  0
    5.4305    0.6648   20.1414 C   0  0  0  0  0  0  0  0  0  0  0  0
    5.0087    0.6485   21.1489 H   0  0  0  0  0  0  0  0  0  0  0  0
    4.7930    1.3174   19.0855 C   0  0  0  0  0  0  0  0  0  0  0  0
    3.8574    1.8496   19.2325 H   0  0  0  0  0  0  0  0  0  0  0  0
  1  2  1  0
  2  3  2  0
  3  4  1  0
  4  5  1  0
  4  6  2  0
  6  7  1  0
  7  8  3  0
  8  9  1  0
  9 10  1  0
 10 11  1  0
 11 12  2  0
 12 13  1  0
 12 14  1  0
 14 15  2  0
 15 16  1  0
 15 17  1  0
 17 18  1  0
 17 19  2  0
 19 20  1  0
 10 21  2  0
 21 22  1  0
 21 23  1  0
 23 24  1  0
 24 25  2  0
  6 26  1  0
 26 27  1  0
 26 28  2  0
 28 29  1  0
 28  2  1  0
 24  9  1  0
 19 11  1  0
M  END
>  <cnnaffinity>  (1) 
-5.54923

>  <filename>  (1) 
O=c1occ(-c2cccnc2)n1C#Cc1cccnc1

$$$$
