
     RDKit          3D

 28 30  0  0  0  0  0  0  0  0999 V2000
    7.2645    1.7827   21.9227 H   0  0  0  0  0  0  0  0  0  0  0  0
    7.1779    0.9493   22.6253 C   0  0  0  0  0  0  0  0  0  0  0  0
    7.6296   -0.3287   22.2016 C   0  0  0  0  0  0  0  0  0  0  0  0
    7.3600   -0.8200   20.9259 C   0  0  0  0  0  0  0  0  0  0  0  0
    6.6752    0.0567   19.8861 C   0  0  0  0  0  0  0  0  0  0  0  0
    7.1493    0.1286   18.5438 C   0  0  0  0  0  0  0  0  0  0  0  0
    8.0696   -0.3872   18.2796 H   0  0  0  0  0  0  0  0  0  0  0  0
    6.5419    0.7861   17.5529 N   0  0  0  0  0  0  0  0  0  0  0  0
    5.3971    1.4232   17.8438 C   0  0  0  0  0  0  0  0  0  0  0  0
    4.9181    1.9413   17.0145 H   0  0  0  0  0  0  0  0  0  0  0  0
    4.8311    1.4370   19.1217 C   0  0  0  0  0  0  0  0  0  0  0  0
    3.8971    1.9671   19.2878 H   0  0  0  0  0  0  0  0  0  0  0  0
    5.4923    0.7754   20.1620 C   0  0  0  0  0  0  0  0  0  0  0  0
    5.0873    0.8114   21.1758 H   0  0  0  0  0  0  0  0  0  0  0  0
    7.7812   -2.3498   20.8689 C   0  0  0  0  0  0  0  0  0  0  0  0
    7.7084   -2.2036   20.6723 O   0  0  0  0  0  0  0  0  0  0  0  0
    9.0487   -2.2492   22.7977 O   0  0  0  0  0  0  0  0  0  0  0  0
    8.5205   -1.1623   23.2486 C   0  0  0  0  0  0  0  0  0  0  0  0
    9.2678   -0.3943   23.5737 H   0  0  0  0  0  0  0  0  0  0  0  0
    7.8613   -1.2951   24.1298 H   0  0  0  0  0  0  0  0  0  0  0  0
    6.6399    1.2165   23.8596 C   0  0  0  0  0  0  0  0  0  0  0  0
    6.4729    2.8572   24.4491 S   0  0  0  0  0  0  0  0  0  0  0  0
    5.4437    2.3647   25.7805 C   0  0  0  0  0  0  0  0  0  0  0  0
    4.7355    3.3543   26.8596 S   0  0  0  0  0  0  0  0  0  0  0  0
    5.3189    1.0163   25.7411 N   0  0  0  0  0  0  0  0  0  0  0  0
    4.8089    0.4817   26.4213 H   0  0  0  0  0  0  0  0  0  0  0  0
    5.9598    0.2875   24.7684 C   0  0  0  0  0  0  0  0  0  0  0  0
    5.9057   -0.9219   24.7865 O   0  0  0  0  0  0  0  0  0  0  0  0
  1  2  1  0
  2  3  1  0
  3  4  2  0
  4  5  1  0
  5  6  2  0
  6  7  1  0
  6  8  1  0
  8  9  2  0
  9 10  1  0
  9 11  1  0
 11 12  1  0
 11 13  2  0
 13 14  1  0
  4 15  1  0
 15 16  2  0
 15 17  1  0
 17 18  1  0
 18 19  1  0
 18 20  1  0
  2 21  2  3
 21 22  1  0
 22 23  1  0
 23 24  2  0
 23 25  1  0
 25 26  1  0
 25 27  1  0
 27 28  2  0
 18  3  1  0
 27 21  1  0
 13  5  1  0
M  END
>  <cnnaffinity>  (1) 
-4.07492

>  <filename>  (1) 
O=C1NC(=S)SC1=CC1=C(c2cccnc2)C(=O)OC1

$$$$
