
     RDKit          3D

 32 34  0  0  0  0  0  0  0  0999 V2000
    5.5967    1.8865   16.9672 H   0  0  0  0  0  0  0  0  0  0  0  0
    5.9398    1.2824   17.8054 C   0  0  0  0  0  0  0  0  0  0  0  0
    7.1293    0.6740   17.6525 N   0  0  0  0  0  0  0  0  0  0  0  0
    7.5879   -0.0691   18.6671 C   0  0  0  0  0  0  0  0  0  0  0  0
    8.5645   -0.5328   18.5483 H   0  0  0  0  0  0  0  0  0  0  0  0
    6.8554   -0.2857   19.8506 C   0  0  0  0  0  0  0  0  0  0  0  0
    7.3456   -1.1581   20.8573 N   0  0  0  0  0  0  0  0  0  0  0  0
    8.6914   -1.2550   21.1227 N   0  0  0  0  0  0  0  0  0  0  0  0
    8.8185   -2.0045   22.1790 C   0  0  0  0  0  0  0  0  0  0  0  0
   10.1358   -2.2958   22.8232 C   0  0  0  0  0  0  0  0  0  0  0  0
    9.9452   -2.8171   23.7702 H   0  0  0  0  0  0  0  0  0  0  0  0
   10.7076   -2.9982   22.2136 H   0  0  0  0  0  0  0  0  0  0  0  0
   10.9434   -1.0387   23.0974 C   0  0  0  0  0  0  0  0  0  0  0  0
   10.5391   -0.2027   24.1510 C   0  0  0  0  0  0  0  0  0  0  0  0
    9.6784   -0.4883   24.7536 H   0  0  0  0  0  0  0  0  0  0  0  0
   11.2051    0.9911   24.4354 C   0  0  0  0  0  0  0  0  0  0  0  0
   10.8716    1.6120   25.2587 H   0  0  0  0  0  0  0  0  0  0  0  0
   12.2926    1.3884   23.6498 C   0  0  0  0  0  0  0  0  0  0  0  0
   12.8248    2.3226   23.8315 H   0  0  0  0  0  0  0  0  0  0  0  0
   12.7088    0.5800   22.5946 C   0  0  0  0  0  0  0  0  0  0  0  0
   13.5525    0.8761   21.9801 H   0  0  0  0  0  0  0  0  0  0  0  0
   12.0499   -0.6269   22.3356 C   0  0  0  0  0  0  0  0  0  0  0  0
   12.6495   -1.6001   21.0149 Cl  0  0  0  0  0  0  0  0  0  0  0  0
    7.5077   -2.4697   22.7296 C   0  0  0  0  0  0  0  0  0  0  0  0
    7.2685   -1.9631   23.6770 H   0  0  0  0  0  0  0  0  0  0  0  0
    7.4204   -3.5481   22.8830 H   0  0  0  0  0  0  0  0  0  0  0  0
    6.5617   -1.9813   21.6649 C   0  0  0  0  0  0  0  0  0  0  0  0
    5.3966   -2.2609   21.5089 O   0  0  0  0  0  0  0  0  0  0  0  0
    5.6210    0.3616   20.0101 C   0  0  0  0  0  0  0  0  0  0  0  0
    5.0382    0.2193   20.9205 H   0  0  0  0  0  0  0  0  0  0  0  0
    5.1652    1.1707   18.9654 C   0  0  0  0  0  0  0  0  0  0  0  0
    4.2228    1.7049   19.0366 H   0  0  0  0  0  0  0  0  0  0  0  0
  1  2  1  0
  2  3  2  0
  3  4  1  0
  4  5  1  0
  4  6  2  0
  6  7  1  0
  7  8  1  0
  8  9  2  0
  9 10  1  0
 10 11  1  0
 10 12  1  0
 10 13  1  0
 13 14  2  0
 14 15  1  0
 14 16  1  0
 16 17  1  0
 16 18  2  0
 18 19  1  0
 18 20  1  0
 20 21  1  0
 20 22  2  0
 22 23  1  0
  9 24  1  0
 24 25  1  0
 24 26  1  0
 24 27  1  0
 27 28  2  0
  6 29  1  0
 29 30  1  0
 29 31  2  0
 31 32  1  0
 31  2  1  0
 27  7  1  0
 22 13  1  0
M  END
>  <cnnaffinity>  (1) 
-5.44353

>  <filename>  (1) 
O=C1CC(Cc2ccccc2Cl)=NN1c1cccnc1

$$$$
