
     RDKit          3D

 32 34  0  0  0  0  0  0  0  0999 V2000
    8.8179    3.1517   21.5567 H   0  0  0  0  0  0  0  0  0  0  0  0
    8.8946    3.8028   22.2599 O   0  0  0  0  0  0  0  0  0  0  0  0
    8.4178    3.2379   23.3921 C   0  0  0  0  0  0  0  0  0  0  0  0
    8.4610    4.0710   24.5074 C   0  0  0  0  0  0  0  0  0  0  0  0
    8.8537    5.0669   24.3763 H   0  0  0  0  0  0  0  0  0  0  0  0
    7.9998    3.6091   25.7300 C   0  0  0  0  0  0  0  0  0  0  0  0
    8.0533    4.6676   27.0944 Cl  0  0  0  0  0  0  0  0  0  0  0  0
    7.4970    2.3201   25.8668 C   0  0  0  0  0  0  0  0  0  0  0  0
    7.1416    1.9976   26.8447 H   0  0  0  0  0  0  0  0  0  0  0  0
    7.4532    1.4745   24.7470 C   0  0  0  0  0  0  0  0  0  0  0  0
    7.0559    0.4758   24.8789 H   0  0  0  0  0  0  0  0  0  0  0  0
    7.9022    1.8998   23.4849 C   0  0  0  0  0  0  0  0  0  0  0  0
    7.8880    1.1301   22.3155 O   0  0  0  0  0  0  0  0  0  0  0  0
    7.4348   -0.2527   22.3152 C   0  0  1  0  0  0  0  0  0  0  0  0
    6.4663   -0.2291   22.8145 H   0  0  0  0  0  0  0  0  0  0  0  0
    7.3396   -0.6729   20.9221 N   0  0  0  0  0  0  0  0  0  0  0  0
    6.6544    0.0755   19.8445 C   0  0  0  0  0  0  0  0  0  0  0  0
    7.1593    0.1275   18.5236 C   0  0  0  0  0  0  0  0  0  0  0  0
    8.0935   -0.3525   18.2681 H   0  0  0  0  0  0  0  0  0  0  0  0
    6.5212    0.7341   17.5181 N   0  0  0  0  0  0  0  0  0  0  0  0
    5.3532    1.3309   17.8048 C   0  0  0  0  0  0  0  0  0  0  0  0
    4.8737    1.8178   16.9598 H   0  0  0  0  0  0  0  0  0  0  0  0
    4.7776    1.3387   19.0845 C   0  0  0  0  0  0  0  0  0  0  0  0
    3.8353    1.8640   19.2415 H   0  0  0  0  0  0  0  0  0  0  0  0
    5.4400    0.6942   20.1486 C   0  0  0  0  0  0  0  0  0  0  0  0
    5.0197    0.6378   21.1647 H   0  0  0  0  0  0  0  0  0  0  0  0
    8.1775   -1.8736   20.7268 C   0  0  0  0  0  0  0  0  0  0  0  0
    8.1771   -1.8731   20.7266 O   0  0  0  0  0  0  0  0  0  0  0  0
    8.9332   -2.3013   22.2808 O   0  0  0  0  0  0  0  0  0  0  0  0
    8.4823   -1.2385   23.1398 C   0  0  0  0  0  0  0  0  0  0  0  0
    9.3068   -0.5975   23.4918 H   0  0  0  0  0  0  0  0  0  0  0  0
    7.9651   -1.6340   24.0182 H   0  0  0  0  0  0  0  0  0  0  0  0
  1  2  1  0
  2  3  1  0
  3  4  2  0
  4  5  1  0
  4  6  1  0
  6  7  1  0
  6  8  2  0
  8  9  1  0
  8 10  1  0
 10 11  1  0
 10 12  2  0
 12 13  1  0
 13 14  1  0
 14 15  1  1
 14 16  1  0
 16 17  1  0
 17 18  2  0
 18 19  1  0
 18 20  1  0
 20 21  2  0
 21 22  1  0
 21 23  1  0
 23 24  1  0
 23 25  2  0
 25 26  1  0
 16 27  1  0
 27 28  2  0
 27 29  1  0
 29 30  1  0
 30 31  1  0
 30 32  1  0
 12  3  1  0
 30 14  1  0
 25 17  1  0
M  END
>  <cnnaffinity>  (1) 
-4.54371

>  <filename>  (1) 
O=C1OC[C@@H](Oc2ccc(Cl)cc2O)N1c1cccnc1

$$$$
