
     RDKit          3D

 26 27  0  0  0  0  0  0  0  0999 V2000
    4.9193    1.8335   16.9760 H   0  0  0  0  0  0  0  0  0  0  0  0
    5.3940    1.3158   17.8097 C   0  0  0  0  0  0  0  0  0  0  0  0
    6.5606    0.7109   17.5464 N   0  0  0  0  0  0  0  0  0  0  0  0
    7.1602    0.0723   18.5590 C   0  0  0  0  0  0  0  0  0  0  0  0
    8.1217   -0.3826   18.3302 H   0  0  0  0  0  0  0  0  0  0  0  0
    6.6368   -0.0479   19.8699 C   0  0  0  0  0  0  0  0  0  0  0  0
    7.3638   -0.8094   20.9251 C   0  0  0  0  0  0  0  0  0  0  0  0
    6.8889   -1.7103   21.8172 C   0  0  0  0  0  0  0  0  0  0  0  0
    5.6719   -2.2740   21.8001 O   0  0  0  0  0  0  0  0  0  0  0  0
    5.2784   -3.2374   22.7917 C   0  0  0  0  0  0  0  0  0  0  0  0
    5.8655   -3.1552   23.7141 H   0  0  0  0  0  0  0  0  0  0  0  0
    4.2487   -3.0141   23.0694 H   0  0  0  0  0  0  0  0  0  0  0  0
    5.3048   -4.6633   22.2530 C   0  0  0  0  0  0  0  0  0  0  0  0
    6.3206   -5.0498   22.1022 H   0  0  0  0  0  0  0  0  0  0  0  0
    4.7430   -4.7218   21.3166 H   0  0  0  0  0  0  0  0  0  0  0  0
    4.6749   -5.4663   23.1939 F   0  0  0  0  0  0  0  0  0  0  0  0
    7.9602   -2.0823   22.8066 C   0  0  0  0  0  0  0  0  0  0  0  0
    7.7326   -1.7333   23.8258 H   0  0  0  0  0  0  0  0  0  0  0  0
    8.1289   -3.1673   22.8638 H   0  0  0  0  0  0  0  0  0  0  0  0
    9.1211   -1.4408   22.3227 O   0  0  0  0  0  0  0  0  0  0  0  0
    8.8220   -0.6984   21.2124 C   0  0  0  0  0  0  0  0  0  0  0  0
    9.6750   -0.0834   20.6328 O   0  0  0  0  0  0  0  0  0  0  0  0
    5.4129    0.6083   20.1153 C   0  0  0  0  0  0  0  0  0  0  0  0
    4.9664    0.6089   21.1099 H   0  0  0  0  0  0  0  0  0  0  0  0
    4.7939    1.3017   19.0701 C   0  0  0  0  0  0  0  0  0  0  0  0
    3.8677    1.8464   19.2139 H   0  0  0  0  0  0  0  0  0  0  0  0
  1  2  1  0
  2  3  2  0
  3  4  1  0
  4  5  1  0
  4  6  2  0
  6  7  1  0
  7  8  2  0
  8  9  1  0
  9 10  1  0
 10 11  1  0
 10 12  1  0
 10 13  1  0
 13 14  1  0
 13 15  1  0
 13 16  1  0
  8 17  1  0
 17 18  1  0
 17 19  1  0
 17 20  1  0
 20 21  1  0
 21 22  2  0
  6 23  1  0
 23 24  1  0
 23 25  2  0
 25 26  1  0
 25  2  1  0
 21  7  1  0
M  END
>  <cnnaffinity>  (1) 
-3.76391

>  <filename>  (1) 
O=C1OCC(OCCF)=C1c1cccnc1

$$$$
