
     RDKit          3D

 34 36  0  0  0  0  0  0  0  0999 V2000
    4.9335    1.7852   17.0106 H   0  0  0  0  0  0  0  0  0  0  0  0
    5.4043    1.2818   17.8492 C   0  0  0  0  0  0  0  0  0  0  0  0
    6.5607    0.6563   17.5801 N   0  0  0  0  0  0  0  0  0  0  0  0
    7.1833    0.0439   18.5923 C   0  0  0  0  0  0  0  0  0  0  0  0
    8.1370   -0.4304   18.3738 H   0  0  0  0  0  0  0  0  0  0  0  0
    6.6780    0.0054   19.9081 C   0  0  0  0  0  0  0  0  0  0  0  0
    7.3793   -0.6578   20.9527 N   0  0  0  0  0  0  0  0  0  0  0  0
    6.6790   -1.1974   22.0067 N   0  0  0  0  0  0  0  0  0  0  0  0
    7.5287   -1.7539   22.8123 C   0  0  0  0  0  0  0  0  0  0  0  0
    7.0975   -2.4514   24.0966 C   0  0  0  0  0  0  0  0  0  0  0  0
    8.0096   -2.8316   24.5821 H   0  0  0  0  0  0  0  0  0  0  0  0
    6.6610   -1.7127   24.7788 H   0  0  0  0  0  0  0  0  0  0  0  0
    6.1350   -3.5489   24.0066 N   0  0  0  0  0  0  0  0  0  0  0  0
    5.1540   -3.3086   24.0600 H   0  0  0  0  0  0  0  0  0  0  0  0
    6.3755   -4.6587   23.2174 C   0  0  0  0  0  0  0  0  0  0  0  0
    7.6807   -5.0838   22.9156 C   0  0  0  0  0  0  0  0  0  0  0  0
    8.5204   -4.4758   23.2349 H   0  0  0  0  0  0  0  0  0  0  0  0
    7.8881   -6.3164   22.3012 C   0  0  0  0  0  0  0  0  0  0  0  0
    8.9162   -6.6259   22.1160 H   0  0  0  0  0  0  0  0  0  0  0  0
    6.8017   -7.1261   21.9559 C   0  0  0  0  0  0  0  0  0  0  0  0
    6.9763   -8.1396   21.6049 H   0  0  0  0  0  0  0  0  0  0  0  0
    5.4999   -6.6407   22.1349 C   0  0  0  0  0  0  0  0  0  0  0  0
    4.6248   -7.1768   21.7825 H   0  0  0  0  0  0  0  0  0  0  0  0
    5.2851   -5.4254   22.7756 C   0  0  0  0  0  0  0  0  0  0  0  0
    4.2784   -5.0882   22.9995 H   0  0  0  0  0  0  0  0  0  0  0  0
    8.9546   -1.5836   22.3646 C   0  0  0  0  0  0  0  0  0  0  0  0
    9.5878   -1.0136   23.0559 H   0  0  0  0  0  0  0  0  0  0  0  0
    9.4640   -2.5342   22.1557 H   0  0  0  0  0  0  0  0  0  0  0  0
    8.7624   -0.8040   21.0824 C   0  0  0  0  0  0  0  0  0  0  0  0
    9.6186   -0.3895   20.3369 O   0  0  0  0  0  0  0  0  0  0  0  0
    5.4552    0.6402   20.1721 C   0  0  0  0  0  0  0  0  0  0  0  0
    5.0407    0.5980   21.1787 H   0  0  0  0  0  0  0  0  0  0  0  0
    4.8169    1.3010   19.1205 C   0  0  0  0  0  0  0  0  0  0  0  0
    3.8837    1.8335   19.2709 H   0  0  0  0  0  0  0  0  0  0  0  0
  1  2  1  0
  2  3  2  0
  3  4  1  0
  4  5  1  0
  4  6  2  0
  6  7  1  0
  7  8  1  0
  8  9  2  0
  9 10  1  0
 10 11  1  0
 10 12  1  0
 10 13  1  0
 13 14  1  0
 13 15  1  0
 15 16  2  0
 16 17  1  0
 16 18  1  0
 18 19  1  0
 18 20  2  0
 20 21  1  0
 20 22  1  0
 22 23  1  0
 22 24  2  0
 24 25  1  0
  9 26  1  0
 26 27  1  0
 26 28  1  0
 26 29  1  0
 29 30  2  0
  6 31  1  0
 31 32  1  0
 31 33  2  0
 33 34  1  0
 33  2  1  0
 29  7  1  0
 24 15  1  0
M  END
>  <cnnaffinity>  (1) 
-5.19252

>  <filename>  (1) 
O=C1CC(CNc2ccccc2)=NN1c1cccnc1

$$$$
