
     RDKit          3D

 31 33  0  0  0  0  0  0  0  0999 V2000
    3.4558   -4.1199   22.3332 H   0  0  0  0  0  0  0  0  0  0  0  0
    4.4759   -3.8218   22.5818 C   0  0  0  0  0  0  0  0  0  0  0  0
    5.1921   -3.2567   21.6064 N   0  0  0  0  0  0  0  0  0  0  0  0
    6.4503   -2.9385   21.9299 C   0  0  0  0  0  0  0  0  0  0  0  0
    7.2924   -2.2879   20.8651 C   0  0  2  0  0  0  0  0  0  0  0  0
    6.8310   -2.5664   19.9135 H   0  0  0  0  0  0  0  0  0  0  0  0
    8.6677   -2.7189   20.9188 O   0  0  0  0  0  0  0  0  0  0  0  0
    9.5028   -1.6435   21.0245 C   0  0  0  0  0  0  0  0  0  0  0  0
   10.6913   -1.6866   21.1485 O   0  0  0  0  0  0  0  0  0  0  0  0
    8.7483   -0.5251   20.9845 N   0  0  0  0  0  0  0  0  0  0  0  0
    9.2454    0.3281   21.1363 H   0  0  0  0  0  0  0  0  0  0  0  0
    7.3405   -0.7331   21.0217 C   0  0  1  0  0  0  0  0  0  0  0  0
    6.9152   -0.4057   21.9897 H   0  0  0  0  0  0  0  0  0  0  0  0
    6.6294    0.0191   19.9197 C   0  0  0  0  0  0  0  0  0  0  0  0
    7.1556    0.0681   18.6158 C   0  0  0  0  0  0  0  0  0  0  0  0
    8.1068   -0.4078   18.3843 H   0  0  0  0  0  0  0  0  0  0  0  0
    6.5545    0.6790   17.5886 N   0  0  0  0  0  0  0  0  0  0  0  0
    5.3908    1.2998   17.8299 C   0  0  0  0  0  0  0  0  0  0  0  0
    4.9324    1.7970   16.9763 H   0  0  0  0  0  0  0  0  0  0  0  0
    4.7829    1.3262   19.0899 C   0  0  0  0  0  0  0  0  0  0  0  0
    3.8475    1.8588   19.2247 H   0  0  0  0  0  0  0  0  0  0  0  0
    5.4138    0.6716   20.1526 C   0  0  0  0  0  0  0  0  0  0  0  0
    4.9780    0.6553   21.1529 H   0  0  0  0  0  0  0  0  0  0  0  0
    7.0317   -3.1134   23.1106 N   0  0  0  0  0  0  0  0  0  0  0  0
    6.3245   -3.7019   24.0710 C   0  0  0  0  0  0  0  0  0  0  0  0
    7.0137   -3.9795   25.4365 C   0  0  0  0  0  0  0  0  0  0  0  0
    6.9211   -5.2872   25.7572 F   0  0  0  0  0  0  0  0  0  0  0  0
    6.3932   -3.2963   26.4194 F   0  0  0  0  0  0  0  0  0  0  0  0
    8.3061   -3.6538   25.4775 F   0  0  0  0  0  0  0  0  0  0  0  0
    4.9920   -4.0588   23.8491 C   0  0  0  0  0  0  0  0  0  0  0  0
    4.3902   -4.4951   24.6269 H   0  0  0  0  0  0  0  0  0  0  0  0
  1  2  1  0
  2  3  2  0
  3  4  1  0
  4  5  1  0
  5  6  1  6
  5  7  1  0
  7  8  1  0
  8  9  2  0
  8 10  1  0
 10 11  1  0
 10 12  1  0
 12 13  1  1
 12 14  1  0
 14 15  2  0
 15 16  1  0
 15 17  1  0
 17 18  2  0
 18 19  1  0
 18 20  1  0
 20 21  1  0
 20 22  2  0
 22 23  1  0
  4 24  2  0
 24 25  1  0
 25 26  1  0
 26 27  1  0
 26 28  1  0
 26 29  1  0
 25 30  2  0
 30 31  1  0
 30  2  1  0
 12  5  1  0
 22 14  1  0
M  END
>  <cnnaffinity>  (1) 
-5.22835

>  <filename>  (1) 
O=C1N[C@@H](c2cccnc2)[C@H](c2nccc(C(F)(F)F)n2)O1

$$$$
