
     RDKit          3D

 30 32  0  0  0  0  0  0  0  0999 V2000
    5.5581   -2.2308   21.0374 O   0  0  0  0  0  0  0  0  0  0  0  0
    6.6417   -1.7503   21.3473 C   0  0  0  0  0  0  0  0  0  0  0  0
    7.4077   -2.2679   22.4616 C   0  0  0  0  0  0  0  0  0  0  0  0
    6.9036   -2.9732   23.5326 C   0  0  0  0  0  0  0  0  0  0  0  0
    7.7755   -3.4426   24.5980 C   0  0  0  0  0  0  0  0  0  0  0  0
    9.1025   -3.7659   24.2855 C   0  0  0  0  0  0  0  0  0  0  0  0
    9.9723   -4.2428   25.2618 C   0  0  0  0  0  0  0  0  0  0  0  0
    9.5186   -4.3829   26.5761 C   0  0  0  0  0  0  0  0  0  0  0  0
   10.6571   -5.1203   27.9077 Br  0  0  0  0  0  0  0  0  0  0  0  0
    8.2049   -4.0227   26.9114 C   0  0  0  0  0  0  0  0  0  0  0  0
    7.3208   -3.5781   25.9194 C   0  0  0  0  0  0  0  0  0  0  0  0
    6.2948   -3.3301   26.1830 H   0  0  0  0  0  0  0  0  0  0  0  0
    7.8851   -4.1161   27.9455 H   0  0  0  0  0  0  0  0  0  0  0  0
   10.9921   -4.5175   24.9914 H   0  0  0  0  0  0  0  0  0  0  0  0
    9.4482   -3.6694   23.2614 H   0  0  0  0  0  0  0  0  0  0  0  0
    5.8412   -3.1958   23.6097 H   0  0  0  0  0  0  0  0  0  0  0  0
    9.0722   -1.7166   22.3532 S   0  0  0  0  0  0  0  0  0  0  0  0
    8.6267   -0.6260   21.0606 C   0  0  0  0  0  0  0  0  0  0  0  0
    9.5920    0.6719   20.6650 S   0  0  0  0  0  0  0  0  0  0  0  0
    7.3421   -0.8389   20.5687 N   0  0  0  0  0  0  0  0  0  0  0  0
    6.7420   -0.0230   19.5910 C   0  0  0  0  0  0  0  0  0  0  0  0
    5.4608    0.4639   19.8382 C   0  0  0  0  0  0  0  0  0  0  0  0
    4.8594    1.2462   18.8547 C   0  0  0  0  0  0  0  0  0  0  0  0
    5.5252    1.4976   17.6482 C   0  0  0  0  0  0  0  0  0  0  0  0
    6.7633    1.0401   17.4000 N   0  0  0  0  0  0  0  0  0  0  0  0
    7.3689    0.3277   18.3722 C   0  0  0  0  0  0  0  0  0  0  0  0
    8.3803   -0.0247   18.1937 H   0  0  0  0  0  0  0  0  0  0  0  0
    5.0127    2.0770   16.8877 H   0  0  0  0  0  0  0  0  0  0  0  0
    3.8741    1.6616   19.0059 H   0  0  0  0  0  0  0  0  0  0  0  0
    4.9734    0.2493   20.7880 H   0  0  0  0  0  0  0  0  0  0  0  0
  1  2  2  0
  2  3  1  0
  3  4  2  3
  4  5  1  0
  5  6  2  0
  6  7  1  0
  7  8  2  0
  8  9  1  0
  8 10  1  0
 10 11  2  0
 11 12  1  0
 10 13  1  0
  7 14  1  0
  6 15  1  0
  4 16  1  0
  3 17  1  0
 17 18  1  0
 18 19  2  0
 18 20  1  0
 20 21  1  0
 21 22  2  0
 22 23  1  0
 23 24  2  0
 24 25  1  0
 25 26  2  0
 26 27  1  0
 24 28  1  0
 23 29  1  0
 22 30  1  0
 20  2  1  0
 26 21  1  0
 11  5  1  0
M  END
>  <cnnaffinity>  (1) 
-5.10253

>  <filename>  (1) 
O=C1C(=Cc2ccc(Br)cc2)SC(=S)N1c1cccnc1

$$$$
