
     RDKit          3D

 36 38  0  0  0  0  0  0  0  0999 V2000
    4.9626    1.8185   16.9584 H   0  0  0  0  0  0  0  0  0  0  0  0
    5.4148    1.3055   17.8026 C   0  0  0  0  0  0  0  0  0  0  0  0
    6.5666    0.6645   17.5501 N   0  0  0  0  0  0  0  0  0  0  0  0
    7.1516    0.0383   18.5783 C   0  0  0  0  0  0  0  0  0  0  0  0
    8.0855   -0.4778   18.3536 H   0  0  0  0  0  0  0  0  0  0  0  0
    6.6388   -0.0029   19.8912 C   0  0  0  0  0  0  0  0  0  0  0  0
    7.3881   -0.7013   20.9744 C   0  0  0  0  0  0  0  0  0  0  0  0
    8.7973   -0.5296   21.1077 C   0  0  0  0  0  0  0  0  0  0  0  0
    9.3109    0.1060   20.3902 H   0  0  0  0  0  0  0  0  0  0  0  0
    9.4889   -1.1103   22.1240 C   0  0  0  0  0  0  0  0  0  0  0  0
   10.5546   -0.9962   22.2670 H   0  0  0  0  0  0  0  0  0  0  0  0
    8.8621   -1.9360   23.1333 C   0  0  0  0  0  0  0  0  0  0  0  0
    9.4528   -2.3882   24.0879 O   0  0  0  0  0  0  0  0  0  0  0  0
    7.4394   -2.2148   22.8411 N   0  0  0  0  0  0  0  0  0  0  0  0
    6.6533   -3.1213   23.6401 N   0  0  0  0  0  0  0  0  0  0  0  0
    5.6555   -3.1273   23.4243 H   0  0  0  0  0  0  0  0  0  0  0  0
    6.7685   -4.8600   23.7427 S   0  0  0  0  0  0  0  0  0  0  0  0
    7.4519   -5.4243   22.5993 O   0  0  0  0  0  0  0  0  0  0  0  0
    5.3771   -5.1522   24.0328 O   0  0  0  0  0  0  0  0  0  0  0  0
    7.8261   -4.9716   25.1703 C   0  0  0  0  0  0  0  0  0  0  0  0
    7.5749   -4.1259   26.2622 C   0  0  0  0  0  0  0  0  0  0  0  0
    6.7462   -3.4187   26.2729 H   0  0  0  0  0  0  0  0  0  0  0  0
    8.4494   -4.1408   27.3449 C   0  0  0  0  0  0  0  0  0  0  0  0
    8.2712   -3.4666   28.1621 H   0  0  0  0  0  0  0  0  0  0  0  0
    9.5534   -4.9936   27.3736 C   0  0  0  0  0  0  0  0  0  0  0  0
   10.2348   -4.9981   28.2192 H   0  0  0  0  0  0  0  0  0  0  0  0
    9.7741   -5.8552   26.2981 C   0  0  0  0  0  0  0  0  0  0  0  0
   10.6018   -6.5588   26.3139 H   0  0  0  0  0  0  0  0  0  0  0  0
    8.9309   -5.8385   25.1854 C   0  0  0  0  0  0  0  0  0  0  0  0
    9.1771   -6.4900   24.3488 H   0  0  0  0  0  0  0  0  0  0  0  0
    6.7640   -1.5346   21.8595 C   0  0  0  0  0  0  0  0  0  0  0  0
    5.6963   -1.7379   21.8172 H   0  0  0  0  0  0  0  0  0  0  0  0
    5.4173    0.6541   20.1186 C   0  0  0  0  0  0  0  0  0  0  0  0
    4.9778    0.6628   21.1167 H   0  0  0  0  0  0  0  0  0  0  0  0
    4.8021    1.3241   19.0594 C   0  0  0  0  0  0  0  0  0  0  0  0
    3.8718    1.8631   19.1940 H   0  0  0  0  0  0  0  0  0  0  0  0
  1  2  1  0
  2  3  2  0
  3  4  1  0
  4  5  1  0
  4  6  2  0
  6  7  1  0
  7  8  1  0
  8  9  1  0
  8 10  2  0
 10 11  1  0
 10 12  1  0
 12 13  2  0
 12 14  1  0
 14 15  1  0
 15 16  1  0
 15 17  1  0
 17 18  2  0
 17 19  2  0
 17 20  1  0
 20 21  2  0
 21 22  1  0
 21 23  1  0
 23 24  1  0
 23 25  2  0
 25 26  1  0
 25 27  1  0
 27 28  1  0
 27 29  2  0
 29 30  1  0
 14 31  1  0
 31 32  1  0
  6 33  1  0
 33 34  1  0
 33 35  2  0
 35 36  1  0
 35  2  1  0
 31  7  2  0
 29 20  1  0
M  END
>  <cnnaffinity>  (1) 
-5.50024

>  <filename>  (1) 
O=c1ccc(-c2cccnc2)cn1NS(=O)(=O)c1ccccc1

$$$$
