
     RDKit          3D

 32 34  0  0  0  0  0  0  0  0999 V2000
    3.8479   -5.1091   23.0306 H   0  0  0  0  0  0  0  0  0  0  0  0
    4.8149   -4.8203   23.4502 C   0  0  0  0  0  0  0  0  0  0  0  0
    5.4632   -3.8545   22.8152 N   0  0  0  0  0  0  0  0  0  0  0  0
    6.6595   -3.4799   23.3033 C   0  0  0  0  0  0  0  0  0  0  0  0
    7.3199   -2.4277   22.5875 C   0  0  0  0  0  0  0  0  0  0  0  0
    6.7111   -1.7513   21.5810 C   0  0  0  0  0  0  0  0  0  0  0  0
    5.6897   -1.9500   21.2607 H   0  0  0  0  0  0  0  0  0  0  0  0
    7.3634   -0.7543   20.8867 N   0  0  0  0  0  0  0  0  0  0  0  0
    6.6695   -0.0651   19.8220 C   0  0  0  0  0  0  0  0  0  0  0  0
    7.1743   -0.0263   18.5086 C   0  0  0  0  0  0  0  0  0  0  0  0
    8.1120   -0.5294   18.2752 H   0  0  0  0  0  0  0  0  0  0  0  0
    6.5641    0.6235   17.5102 N   0  0  0  0  0  0  0  0  0  0  0  0
    5.4321    1.2894   17.7907 C   0  0  0  0  0  0  0  0  0  0  0  0
    4.9827    1.8336   16.9637 H   0  0  0  0  0  0  0  0  0  0  0  0
    4.8464    1.3078   19.0607 C   0  0  0  0  0  0  0  0  0  0  0  0
    3.9370    1.8745   19.2294 H   0  0  0  0  0  0  0  0  0  0  0  0
    5.4716    0.6023   20.0931 C   0  0  0  0  0  0  0  0  0  0  0  0
    5.0686    0.5797   21.1059 H   0  0  0  0  0  0  0  0  0  0  0  0
    8.6723   -0.3582   21.2541 C   0  0  0  0  0  0  0  0  0  0  0  0
    9.3376    0.4612   20.6637 O   0  0  0  0  0  0  0  0  0  0  0  0
    9.1595   -0.9765   22.3526 N   0  0  0  0  0  0  0  0  0  0  0  0
   10.1301   -0.8111   22.5196 H   0  0  0  0  0  0  0  0  0  0  0  0
    8.6782   -2.1111   22.9718 C   0  0  0  0  0  0  0  0  0  0  0  0
    9.4437   -2.6778   23.7104 O   0  0  0  0  0  0  0  0  0  0  0  0
    7.2418   -4.0230   24.3788 N   0  0  0  0  0  0  0  0  0  0  0  0
    6.6085   -5.0198   24.9857 C   0  0  0  0  0  0  0  0  0  0  0  0
    7.3209   -5.7114   26.1944 C   0  0  0  0  0  0  0  0  0  0  0  0
    7.4004   -4.8986   27.2589 F   0  0  0  0  0  0  0  0  0  0  0  0
    8.5596   -6.1265   25.8957 F   0  0  0  0  0  0  0  0  0  0  0  0
    6.6404   -6.8003   26.5974 F   0  0  0  0  0  0  0  0  0  0  0  0
    5.3396   -5.4413   24.5792 C   0  0  0  0  0  0  0  0  0  0  0  0
    4.7978   -6.1975   25.1255 H   0  0  0  0  0  0  0  0  0  0  0  0
  1  2  1  0
  2  3  2  0
  3  4  1  0
  4  5  1  0
  5  6  2  0
  6  7  1  0
  6  8  1  0
  8  9  1  0
  9 10  2  0
 10 11  1  0
 10 12  1  0
 12 13  2  0
 13 14  1  0
 13 15  1  0
 15 16  1  0
 15 17  2  0
 17 18  1  0
  8 19  1  0
 19 20  2  0
 19 21  1  0
 21 22  1  0
 21 23  1  0
 23 24  2  0
  4 25  2  0
 25 26  1  0
 26 27  1  0
 27 28  1  0
 27 29  1  0
 27 30  1  0
 26 31  2  0
 31 32  1  0
 31  2  1  0
 23  5  1  0
 17  9  1  0
M  END
>  <cnnaffinity>  (1) 
-5.53936

>  <filename>  (1) 
O=c1[nH]c(=O)n(-c2cccnc2)cc1-c1nccc(C(F)(F)F)n1

$$$$
