
     RDKit          3D

 40 42  0  0  0  0  0  0  0  0999 V2000
    4.9166    1.7806   16.9993 H   0  0  0  0  0  0  0  0  0  0  0  0
    5.4031    1.2944   17.8401 C   0  0  0  0  0  0  0  0  0  0  0  0
    6.5627    0.6737   17.5778 N   0  0  0  0  0  0  0  0  0  0  0  0
    7.1676    0.0563   18.5995 C   0  0  0  0  0  0  0  0  0  0  0  0
    8.1162   -0.4313   18.3740 H   0  0  0  0  0  0  0  0  0  0  0  0
    6.6486    0.0018   19.9033 C   0  0  0  0  0  0  0  0  0  0  0  0
    7.3779   -0.7190   20.9483 C   0  0  0  0  0  0  0  0  0  0  0  0
    8.6270   -0.3616   21.4222 C   0  0  0  0  0  0  0  0  0  0  0  0
    9.3457    0.9023   21.0194 C   0  0  0  0  0  0  0  0  0  0  0  0
   10.4229    0.6910   21.0061 H   0  0  0  0  0  0  0  0  0  0  0  0
    9.0632    1.1531   19.9962 H   0  0  0  0  0  0  0  0  0  0  0  0
    9.0985    2.1281   21.9286 C   0  0  0  0  0  0  0  0  0  0  0  0
    9.6849    2.9523   21.4950 H   0  0  0  0  0  0  0  0  0  0  0  0
    7.6265    2.5799   21.9388 C   0  0  0  0  0  0  0  0  0  0  0  0
    7.2678    2.7374   20.9175 H   0  0  0  0  0  0  0  0  0  0  0  0
    6.9996    1.7740   22.3430 H   0  0  0  0  0  0  0  0  0  0  0  0
    7.4275    3.8470   22.7791 C   0  0  0  0  0  0  0  0  0  0  0  0
    6.3671    4.1260   22.7984 H   0  0  0  0  0  0  0  0  0  0  0  0
    7.9598    4.6822   22.3006 H   0  0  0  0  0  0  0  0  0  0  0  0
    7.9590    3.6646   24.2078 C   0  0  0  0  0  0  0  0  0  0  0  0
    7.3427    2.9134   24.7220 H   0  0  0  0  0  0  0  0  0  0  0  0
    7.8540    4.5960   24.7767 H   0  0  0  0  0  0  0  0  0  0  0  0
    9.4209    3.1976   24.2140 C   0  0  0  0  0  0  0  0  0  0  0  0
    9.7578    3.0175   25.2413 H   0  0  0  0  0  0  0  0  0  0  0  0
   10.0571    3.9964   23.8075 H   0  0  0  0  0  0  0  0  0  0  0  0
    9.6096    1.9322   23.3702 C   0  0  0  0  0  0  0  0  0  0  0  0
    9.0564    1.1110   23.8492 H   0  0  0  0  0  0  0  0  0  0  0  0
   10.6683    1.6379   23.3609 H   0  0  0  0  0  0  0  0  0  0  0  0
    9.2195   -1.2057   22.4143 C   0  0  0  0  0  0  0  0  0  0  0  0
   10.2067   -0.9278   22.7978 H   0  0  0  0  0  0  0  0  0  0  0  0
    8.5769   -2.3046   22.8960 C   0  0  0  0  0  0  0  0  0  0  0  0
    8.9966   -2.9559   23.6425 H   0  0  0  0  0  0  0  0  0  0  0  0
    7.2540   -2.6786   22.4273 C   0  0  0  0  0  0  0  0  0  0  0  0
    6.6046   -3.6464   22.7862 O   0  0  0  0  0  0  0  0  0  0  0  0
    6.7404   -1.8229   21.4694 N   0  0  0  0  0  0  0  0  0  0  0  0
    5.8340   -2.1011   21.1386 H   0  0  0  0  0  0  0  0  0  0  0  0
    5.4252    0.6418   20.1573 C   0  0  0  0  0  0  0  0  0  0  0  0
    5.0008    0.6276   21.1675 H   0  0  0  0  0  0  0  0  0  0  0  0
    4.8041    1.3130   19.1068 C   0  0  0  0  0  0  0  0  0  0  0  0
    3.8719    1.8455   19.2593 H   0  0  0  0  0  0  0  0  0  0  0  0
  1  2  1  0
  2  3  2  0
  3  4  1  0
  4  5  1  0
  4  6  2  0
  6  7  1  0
  7  8  2  0
  8  9  1  0
  9 10  1  0
  9 11  1  0
  9 12  1  0
 12 13  1  0
 12 14  1  0
 14 15  1  0
 14 16  1  0
 14 17  1  0
 17 18  1  0
 17 19  1  0
 17 20  1  0
 20 21  1  0
 20 22  1  0
 20 23  1  0
 23 24  1  0
 23 25  1  0
 23 26  1  0
 26 27  1  0
 26 28  1  0
  8 29  1  0
 29 30  1  0
 29 31  2  0
 31 32  1  0
 31 33  1  0
 33 34  2  0
 33 35  1  0
 35 36  1  0
  6 37  1  0
 37 38  1  0
 37 39  2  0
 39 40  1  0
 39  2  1  0
 35  7  1  0
 26 12  1  0
M  END
>  <cnnaffinity>  (1) 
-5.52363

>  <filename>  (1) 
O=c1ccc(CC2CCCCC2)c(-c2cccnc2)[nH]1

$$$$
