
     RDKit          3D

 34 36  0  0  0  0  0  0  0  0999 V2000
    5.0263    1.7771   16.9943 H   0  0  0  0  0  0  0  0  0  0  0  0
    5.4610    1.2595   17.8470 C   0  0  0  0  0  0  0  0  0  0  0  0
    6.6179    0.6205   17.6189 N   0  0  0  0  0  0  0  0  0  0  0  0
    7.1899   -0.0087   18.6534 C   0  0  0  0  0  0  0  0  0  0  0  0
    8.1468   -0.4900   18.4516 H   0  0  0  0  0  0  0  0  0  0  0  0
    6.6326   -0.0570   19.9424 C   0  0  0  0  0  0  0  0  0  0  0  0
    7.3478   -0.7718   21.0603 C   0  0  2  0  0  0  0  0  0  0  0  0
    6.9827   -0.3808   22.0180 H   0  0  0  0  0  0  0  0  0  0  0  0
    8.7484   -0.4862   21.0026 O   0  0  0  0  0  0  0  0  0  0  0  0
    9.4973   -1.5999   21.1668 C   0  0  0  0  0  0  0  0  0  0  0  0
   10.6923   -1.6318   21.2256 O   0  0  0  0  0  0  0  0  0  0  0  0
    8.6515   -2.6905   21.2655 N   0  0  0  0  0  0  0  0  0  0  0  0
    9.0928   -3.5015   20.8623 H   0  0  0  0  0  0  0  0  0  0  0  0
    7.2517   -2.3265   21.0221 C   0  0  1  0  0  0  0  0  0  0  0  0
    6.8794   -2.6632   20.0486 H   0  0  0  0  0  0  0  0  0  0  0  0
    6.1625   -2.8277   22.0183 C   0  0  0  0  0  0  0  0  0  0  0  0
    5.0319   -3.0223   21.6206 O   0  0  0  0  0  0  0  0  0  0  0  0
    6.6098   -2.9987   23.2921 N   0  0  0  0  0  0  0  0  0  0  0  0
    7.6034   -2.8566   23.3861 H   0  0  0  0  0  0  0  0  0  0  0  0
    5.9041   -3.2928   24.4698 C   0  0  0  0  0  0  0  0  0  0  0  0
    4.5111   -3.2108   24.5705 C   0  0  0  0  0  0  0  0  0  0  0  0
    3.9285   -2.9910   23.6893 H   0  0  0  0  0  0  0  0  0  0  0  0
    3.8961   -3.3922   25.8156 C   0  0  0  0  0  0  0  0  0  0  0  0
    2.8218   -3.2742   25.9112 H   0  0  0  0  0  0  0  0  0  0  0  0
    4.6653   -3.7056   26.9371 C   0  0  0  0  0  0  0  0  0  0  0  0
    3.9001   -3.8744   28.4914 Cl  0  0  0  0  0  0  0  0  0  0  0  0
    6.0524   -3.8500   26.8321 C   0  0  0  0  0  0  0  0  0  0  0  0
    6.6281   -4.1151   27.7132 H   0  0  0  0  0  0  0  0  0  0  0  0
    6.6645   -3.6318   25.5953 C   0  0  0  0  0  0  0  0  0  0  0  0
    7.7446   -3.7039   25.5158 H   0  0  0  0  0  0  0  0  0  0  0  0
    5.4124    0.5979   20.1542 C   0  0  0  0  0  0  0  0  0  0  0  0
    4.9537    0.5987   21.1449 H   0  0  0  0  0  0  0  0  0  0  0  0
    4.8174    1.2713   19.0872 C   0  0  0  0  0  0  0  0  0  0  0  0
    3.8920    1.8218   19.2071 H   0  0  0  0  0  0  0  0  0  0  0  0
  1  2  1  0
  2  3  2  0
  3  4  1  0
  4  5  1  0
  4  6  2  0
  6  7  1  0
  7  8  1  1
  7  9  1  0
  9 10  1  0
 10 11  2  0
 10 12  1  0
 12 13  1  0
 12 14  1  0
 14 15  1  6
 14 16  1  0
 16 17  2  0
 16 18  1  0
 18 19  1  0
 18 20  1  0
 20 21  2  0
 21 22  1  0
 21 23  1  0
 23 24  1  0
 23 25  2  0
 25 26  1  0
 25 27  1  0
 27 28  1  0
 27 29  2  0
 29 30  1  0
  6 31  1  0
 31 32  1  0
 31 33  2  0
 33 34  1  0
 33  2  1  0
 14  7  1  0
 29 20  1  0
M  END
>  <cnnaffinity>  (1) 
-5.25512

>  <filename>  (1) 
O=C1N[C@@H](C(=O)Nc2ccc(Cl)cc2)[C@H](c2cccnc2)O1

$$$$
