
     RDKit          3D

 32 34  0  0  0  0  0  0  0  0999 V2000
    4.9033    1.8327   17.0173 H   0  0  0  0  0  0  0  0  0  0  0  0
    5.4041    1.2977   17.8179 C   0  0  0  0  0  0  0  0  0  0  0  0
    6.5677    0.6723   17.5604 N   0  0  0  0  0  0  0  0  0  0  0  0
    7.1814    0.0421   18.5801 C   0  0  0  0  0  0  0  0  0  0  0  0
    8.1335   -0.4426   18.3866 H   0  0  0  0  0  0  0  0  0  0  0  0
    6.6620   -0.0093   19.8856 C   0  0  0  0  0  0  0  0  0  0  0  0
    7.4252   -0.7077   20.9913 C   0  0  2  0  0  0  0  0  0  0  0  0
    8.3352   -1.1582   20.5743 H   0  0  0  0  0  0  0  0  0  0  0  0
    6.6087   -1.8285   21.6704 C   0  0  0  0  0  0  0  0  0  0  0  0
    5.5908   -1.8632   21.2731 H   0  0  0  0  0  0  0  0  0  0  0  0
    7.0779   -2.8017   21.4984 H   0  0  0  0  0  0  0  0  0  0  0  0
    6.5860   -1.5155   23.0932 N   0  0  0  0  0  0  0  0  0  0  0  0
    5.7545   -1.7102   23.6417 H   0  0  0  0  0  0  0  0  0  0  0  0
    7.0999   -0.2721   23.3184 C   0  0  0  0  0  0  0  0  0  0  0  0
    6.9281    0.2511   24.4060 O   0  0  0  0  0  0  0  0  0  0  0  0
    7.8001    0.3003   22.1005 C   0  0  1  0  0  0  0  0  0  0  0  0
    7.4419    1.3073   21.8796 H   0  0  0  0  0  0  0  0  0  0  0  0
    9.2844    0.2991   22.3119 C   0  0  0  0  0  0  0  0  0  0  0  0
    9.9026   -0.8947   22.6804 C   0  0  0  0  0  0  0  0  0  0  0  0
    9.2925   -1.7740   22.8605 H   0  0  0  0  0  0  0  0  0  0  0  0
   11.2912   -0.9706   22.7679 C   0  0  0  0  0  0  0  0  0  0  0  0
   11.7589   -1.9341   22.9292 H   0  0  0  0  0  0  0  0  0  0  0  0
   12.0734    0.1822   22.6434 C   0  0  0  0  0  0  0  0  0  0  0  0
   13.9648    0.1313   22.9543 Br  0  0  0  0  0  0  0  0  0  0  0  0
   11.4536    1.3882   22.2993 C   0  0  0  0  0  0  0  0  0  0  0  0
   12.0553    2.2874   22.1933 H   0  0  0  0  0  0  0  0  0  0  0  0
   10.0665    1.4367   22.0945 C   0  0  0  0  0  0  0  0  0  0  0  0
    9.5886    2.3643   21.8042 H   0  0  0  0  0  0  0  0  0  0  0  0
    5.4489    0.6355   20.1419 C   0  0  0  0  0  0  0  0  0  0  0  0
    5.0217    0.6416   21.1426 H   0  0  0  0  0  0  0  0  0  0  0  0
    4.8180    1.2940   19.0868 C   0  0  0  0  0  0  0  0  0  0  0  0
    3.8851    1.8245   19.2369 H   0  0  0  0  0  0  0  0  0  0  0  0
  1  2  1  0
  2  3  2  0
  3  4  1  0
  4  5  1  0
  4  6  2  0
  6  7  1  0
  7  8  1  6
  7  9  1  0
  9 10  1  0
  9 11  1  0
  9 12  1  0
 12 13  1  0
 12 14  1  0
 14 15  2  0
 14 16  1  0
 16 17  1  6
 16 18  1  0
 18 19  2  0
 19 20  1  0
 19 21  1  0
 21 22  1  0
 21 23  2  0
 23 24  1  0
 23 25  1  0
 25 26  1  0
 25 27  2  0
 27 28  1  0
  6 29  1  0
 29 30  1  0
 29 31  2  0
 31 32  1  0
 31  2  1  0
 16  7  1  0
 27 18  1  0
M  END
>  <cnnaffinity>  (1) 
-5.13549

>  <filename>  (1) 
O=C1NC[C@@H](c2cccnc2)[C@@H]1c1ccc(Br)cc1

$$$$
