
     RDKit          3D

 30 32  0  0  0  0  0  0  0  0999 V2000
    4.9832    1.8003   16.9586 H   0  0  0  0  0  0  0  0  0  0  0  0
    5.4357    1.2931   17.8078 C   0  0  0  0  0  0  0  0  0  0  0  0
    6.6017    0.6629   17.5735 N   0  0  0  0  0  0  0  0  0  0  0  0
    7.1938    0.0479   18.6032 C   0  0  0  0  0  0  0  0  0  0  0  0
    8.1539   -0.4348   18.4239 H   0  0  0  0  0  0  0  0  0  0  0  0
    6.6402   -0.0122   19.8919 C   0  0  0  0  0  0  0  0  0  0  0  0
    7.3390   -0.7168   20.9228 N   0  0  0  0  0  0  0  0  0  0  0  0
    8.7033   -0.5810   20.9223 N   0  0  0  0  0  0  0  0  0  0  0  0
    9.3875   -1.1337   21.8874 C   0  0  0  0  0  0  0  0  0  0  0  0
   10.8634   -0.8850   21.9185 C   0  0  0  0  0  0  0  0  0  0  0  0
   11.7288   -1.9916   21.9202 C   0  0  0  0  0  0  0  0  0  0  0  0
   11.2859   -2.9791   21.9618 H   0  0  0  0  0  0  0  0  0  0  0  0
   13.1073   -1.8209   21.9812 C   0  0  0  0  0  0  0  0  0  0  0  0
   13.7693   -2.6745   21.8808 H   0  0  0  0  0  0  0  0  0  0  0  0
   13.6394   -0.5619   22.2440 C   0  0  0  0  0  0  0  0  0  0  0  0
   14.7023   -0.4492   22.4199 H   0  0  0  0  0  0  0  0  0  0  0  0
   12.7960    0.5534   22.3121 C   0  0  0  0  0  0  0  0  0  0  0  0
   13.5014    2.0797   22.7291 Cl  0  0  0  0  0  0  0  0  0  0  0  0
   11.4155    0.4061   22.0547 C   0  0  0  0  0  0  0  0  0  0  0  0
   10.3918    1.7926   21.9526 Cl  0  0  0  0  0  0  0  0  0  0  0  0
    8.7760   -2.0354   22.9380 C   0  0  0  0  0  0  0  0  0  0  0  0
    9.4118   -2.6356   23.7992 O   0  0  0  0  0  0  0  0  0  0  0  0
    7.3232   -2.1423   22.8334 C   0  0  0  0  0  0  0  0  0  0  0  0
    6.8185   -2.7448   23.5756 H   0  0  0  0  0  0  0  0  0  0  0  0
    6.6757   -1.4872   21.8532 C   0  0  0  0  0  0  0  0  0  0  0  0
    5.6011   -1.5539   21.7065 H   0  0  0  0  0  0  0  0  0  0  0  0
    5.4240    0.6497   20.1303 C   0  0  0  0  0  0  0  0  0  0  0  0
    5.0018    0.6671   21.1344 H   0  0  0  0  0  0  0  0  0  0  0  0
    4.8181    1.3179   19.0617 C   0  0  0  0  0  0  0  0  0  0  0  0
    3.8872    1.8601   19.1949 H   0  0  0  0  0  0  0  0  0  0  0  0
  1  2  1  0
  2  3  2  0
  3  4  1  0
  4  5  1  0
  4  6  2  0
  6  7  1  0
  7  8  1  0
  8  9  2  0
  9 10  1  0
 10 11  2  0
 11 12  1  0
 11 13  1  0
 13 14  1  0
 13 15  2  0
 15 16  1  0
 15 17  1  0
 17 18  1  0
 17 19  2  0
 19 20  1  0
  9 21  1  0
 21 22  2  0
 21 23  1  0
 23 24  1  0
 23 25  2  0
 25 26  1  0
  6 27  1  0
 27 28  1  0
 27 29  2  0
 29 30  1  0
 29  2  1  0
 25  7  1  0
 19 10  1  0
M  END
>  <cnnaffinity>  (1) 
-5.87907

>  <filename>  (1) 
O=c1ccn(-c2cccnc2)nc1-c1cccc(Cl)c1Cl

$$$$
