
     RDKit          3D

 31 33  0  0  0  0  0  0  0  0999 V2000
    7.0381   -0.7052   22.0247 H   0  0  0  0  0  0  0  0  0  0  0  0
    7.4748   -0.7040   21.0203 C   0  0  0  0  0  0  0  0  0  0  0  0
    8.5476   -1.3189   20.6980 N   0  0  0  0  0  0  0  0  0  0  0  0
    9.1842   -2.1588   21.6553 C   0  0  0  0  0  0  0  0  0  0  0  0
   10.0183   -2.6547   21.1543 H   0  0  0  0  0  0  0  0  0  0  0  0
    8.5185   -2.9128   22.0991 H   0  0  0  0  0  0  0  0  0  0  0  0
    9.7613   -1.3489   22.7203 N   0  0  0  0  0  0  0  0  0  0  0  0
    8.9290   -0.8626   23.7267 C   0  0  0  0  0  0  0  0  0  0  0  0
    7.8976   -1.3973   24.0663 O   0  0  0  0  0  0  0  0  0  0  0  0
    9.5107    0.4301   24.1875 C   0  0  0  0  0  0  0  0  0  0  0  0
    9.0859    1.3372   25.1615 C   0  0  0  0  0  0  0  0  0  0  0  0
    8.2734    1.1198   25.8459 H   0  0  0  0  0  0  0  0  0  0  0  0
    9.7353    2.5666   25.2419 C   0  0  0  0  0  0  0  0  0  0  0  0
    9.3967    3.2818   25.9875 H   0  0  0  0  0  0  0  0  0  0  0  0
   10.8107    2.8730   24.3854 C   0  0  0  0  0  0  0  0  0  0  0  0
   11.3177    3.8307   24.4637 H   0  0  0  0  0  0  0  0  0  0  0  0
   11.2663    1.9398   23.4521 C   0  0  0  0  0  0  0  0  0  0  0  0
   12.1258    2.1598   22.8294 H   0  0  0  0  0  0  0  0  0  0  0  0
   10.5707    0.7343   23.3327 C   0  0  0  0  0  0  0  0  0  0  0  0
   10.6485   -0.3482   22.3041 C   0  0  0  0  0  0  0  0  0  0  0  0
   11.2918   -0.3896   21.2841 O   0  0  0  0  0  0  0  0  0  0  0  0
    6.7410    0.0143   19.9807 C   0  0  0  0  0  0  0  0  0  0  0  0
    7.2649    0.0401   18.6745 C   0  0  0  0  0  0  0  0  0  0  0  0
    8.2099   -0.4532   18.4602 H   0  0  0  0  0  0  0  0  0  0  0  0
    6.6604    0.6387   17.6494 N   0  0  0  0  0  0  0  0  0  0  0  0
    5.4907    1.2505   17.8846 C   0  0  0  0  0  0  0  0  0  0  0  0
    5.0252    1.7339   17.0249 H   0  0  0  0  0  0  0  0  0  0  0  0
    4.8763    1.2792   19.1415 C   0  0  0  0  0  0  0  0  0  0  0  0
    3.9281    1.7978   19.2510 H   0  0  0  0  0  0  0  0  0  0  0  0
    5.5105    0.6503   20.2137 C   0  0  0  0  0  0  0  0  0  0  0  0
    5.0482    0.6586   21.2037 H   0  0  0  0  0  0  0  0  0  0  0  0
  1  2  1  0
  2  3  2  3
  3  4  1  0
  4  5  1  0
  4  6  1  0
  4  7  1  0
  7  8  1  0
  8  9  2  0
  8 10  1  0
 10 11  2  0
 11 12  1  0
 11 13  1  0
 13 14  1  0
 13 15  2  0
 15 16  1  0
 15 17  1  0
 17 18  1  0
 17 19  2  0
 19 20  1  0
 20 21  2  0
  2 22  1  0
 22 23  2  0
 23 24  1  0
 23 25  1  0
 25 26  2  0
 26 27  1  0
 26 28  1  0
 28 29  1  0
 28 30  2  0
 30 31  1  0
 20  7  1  0
 30 22  1  0
 19 10  1  0
M  END
>  <cnnaffinity>  (1) 
-4.81682

>  <filename>  (1) 
O=C1c2ccccc2C(=O)N1CN=Cc1cccnc1

$$$$
