
     RDKit          3D

 30 32  0  0  0  0  0  0  0  0999 V2000
    7.7439   -3.4437   21.5006 H   0  0  0  0  0  0  0  0  0  0  0  0
    8.6609   -3.2387   22.0430 C   0  0  0  0  0  0  0  0  0  0  0  0
    9.0270   -4.0990   22.9982 C   0  0  0  0  0  0  0  0  0  0  0  0
   10.2530   -3.8812   24.2472 S   0  0  0  0  0  0  0  0  0  0  0  0
    9.8830   -5.4057   25.0145 C   0  0  0  0  0  0  0  0  0  0  0  0
   10.4526   -5.8605   26.4616 S   0  0  0  0  0  0  0  0  0  0  0  0
    9.0101   -6.0960   24.2265 N   0  0  0  0  0  0  0  0  0  0  0  0
    8.5533   -6.9198   24.5706 H   0  0  0  0  0  0  0  0  0  0  0  0
    8.3654   -5.4249   23.2010 C   0  0  0  0  0  0  0  0  0  0  0  0
    7.4183   -5.8968   22.6233 O   0  0  0  0  0  0  0  0  0  0  0  0
    9.3025   -1.9596   21.6673 C   0  0  0  0  0  0  0  0  0  0  0  0
    8.5704   -1.2967   20.6495 O   0  0  0  0  0  0  0  0  0  0  0  0
    7.4158   -0.7024   21.0433 C   0  0  0  0  0  0  0  0  0  0  0  0
    7.0223   -0.6951   22.1854 O   0  0  0  0  0  0  0  0  0  0  0  0
    6.7016   -0.0488   19.9336 C   0  0  0  0  0  0  0  0  0  0  0  0
    7.2411   -0.0249   18.6451 C   0  0  0  0  0  0  0  0  0  0  0  0
    8.1894   -0.5149   18.4261 H   0  0  0  0  0  0  0  0  0  0  0  0
    6.6506    0.6021   17.6224 N   0  0  0  0  0  0  0  0  0  0  0  0
    5.4948    1.2358   17.8681 C   0  0  0  0  0  0  0  0  0  0  0  0
    5.0476    1.7508   17.0219 H   0  0  0  0  0  0  0  0  0  0  0  0
    4.8710    1.2585   19.1213 C   0  0  0  0  0  0  0  0  0  0  0  0
    3.9387    1.7953   19.2500 H   0  0  0  0  0  0  0  0  0  0  0  0
    5.4845    0.6073   20.1838 C   0  0  0  0  0  0  0  0  0  0  0  0
    5.0580    0.6191   21.1904 H   0  0  0  0  0  0  0  0  0  0  0  0
   10.7860   -1.7808   21.5657 C   0  0  0  0  0  0  0  0  0  0  0  0
   11.1595   -1.1885   20.7393 H   0  0  0  0  0  0  0  0  0  0  0  0
   11.4188   -2.6053   21.8726 H   0  0  0  0  0  0  0  0  0  0  0  0
   10.0223   -1.0586   22.6316 C   0  0  0  0  0  0  0  0  0  0  0  0
   10.1266   -1.3763   23.6620 H   0  0  0  0  0  0  0  0  0  0  0  0
    9.8541    0.0034   22.4892 H   0  0  0  0  0  0  0  0  0  0  0  0
  1  2  1  0
  2  3  2  3
  3  4  1  0
  4  5  1  0
  5  6  2  0
  5  7  1  0
  7  8  1  0
  7  9  1  0
  9 10  2  0
  2 11  1  0
 11 12  1  0
 12 13  1  0
 13 14  2  0
 13 15  1  0
 15 16  2  0
 16 17  1  0
 16 18  1  0
 18 19  2  0
 19 20  1  0
 19 21  1  0
 21 22  1  0
 21 23  2  0
 23 24  1  0
 11 25  1  0
 25 26  1  0
 25 27  1  0
 25 28  1  0
 28 29  1  0
 28 30  1  0
  9  3  1  0
 28 11  1  0
 23 15  1  0
M  END
>  <cnnaffinity>  (1) 
-5.3602

>  <filename>  (1) 
O=C1NC(=S)SC1=CC1(OC(=O)c2cccnc2)CC1

$$$$
