
     RDKit          3D

 36 38  0  0  0  0  0  0  0  0999 V2000
    4.9384    1.7875   16.9984 H   0  0  0  0  0  0  0  0  0  0  0  0
    5.4058    1.2843   17.8419 C   0  0  0  0  0  0  0  0  0  0  0  0
    6.5672    0.6622   17.5847 N   0  0  0  0  0  0  0  0  0  0  0  0
    7.1750    0.0428   18.6024 C   0  0  0  0  0  0  0  0  0  0  0  0
    8.1234   -0.4337   18.3609 H   0  0  0  0  0  0  0  0  0  0  0  0
    6.6709    0.0045   19.9265 C   0  0  0  0  0  0  0  0  0  0  0  0
    7.3542   -0.6592   20.9718 N   0  0  0  0  0  0  0  0  0  0  0  0
    7.3480   -0.2759   22.3040 C   0  0  0  0  0  0  0  0  0  0  0  0
    6.9016    0.7422   22.7695 O   0  0  0  0  0  0  0  0  0  0  0  0
    7.9866   -1.3079   23.0392 N   0  0  0  0  0  0  0  0  0  0  0  0
    8.2690   -1.2970   24.4401 N   0  0  0  0  0  0  0  0  0  0  0  0
    9.2375   -1.4243   24.7147 H   0  0  0  0  0  0  0  0  0  0  0  0
    7.6597   -0.6003   25.4737 C   0  0  0  0  0  0  0  0  0  0  0  0
    8.6270   -0.2246   26.7596 S   0  0  0  0  0  0  0  0  0  0  0  0
    6.3251   -0.4388   25.3466 N   0  0  0  0  0  0  0  0  0  0  0  0
    5.8818   -1.0824   24.7127 H   0  0  0  0  0  0  0  0  0  0  0  0
    5.5286    0.5707   25.9219 C   0  0  0  0  0  0  0  0  0  0  0  0
    4.2093    0.2672   26.2680 C   0  0  0  0  0  0  0  0  0  0  0  0
    3.8361   -0.7381   26.0987 H   0  0  0  0  0  0  0  0  0  0  0  0
    3.3992    1.2550   26.8366 C   0  0  0  0  0  0  0  0  0  0  0  0
    2.3763    1.0167   27.1093 H   0  0  0  0  0  0  0  0  0  0  0  0
    3.8964    2.5451   27.0464 C   0  0  0  0  0  0  0  0  0  0  0  0
    3.2651    3.3114   27.4867 H   0  0  0  0  0  0  0  0  0  0  0  0
    5.2126    2.8459   26.6826 C   0  0  0  0  0  0  0  0  0  0  0  0
    5.6124    3.8438   26.8376 H   0  0  0  0  0  0  0  0  0  0  0  0
    6.0309    1.8629   26.1203 C   0  0  0  0  0  0  0  0  0  0  0  0
    7.0540    2.0791   25.8242 H   0  0  0  0  0  0  0  0  0  0  0  0
    8.4987   -2.2779   22.1792 C   0  0  0  0  0  0  0  0  0  0  0  0
    9.1531   -3.2473   22.4688 O   0  0  0  0  0  0  0  0  0  0  0  0
    8.0775   -1.8943   20.7933 C   0  0  0  0  0  0  0  0  0  0  0  0
    8.9751   -1.7913   20.1742 H   0  0  0  0  0  0  0  0  0  0  0  0
    7.4481   -2.6942   20.3998 H   0  0  0  0  0  0  0  0  0  0  0  0
    5.4502    0.6534   20.1759 C   0  0  0  0  0  0  0  0  0  0  0  0
    5.0430    0.6533   21.1857 H   0  0  0  0  0  0  0  0  0  0  0  0
    4.8149    1.2982   19.1103 C   0  0  0  0  0  0  0  0  0  0  0  0
    3.8828    1.8321   19.2557 H   0  0  0  0  0  0  0  0  0  0  0  0
  1  2  1  0
  2  3  2  0
  3  4  1  0
  4  5  1  0
  4  6  2  0
  6  7  1  0
  7  8  1  0
  8  9  2  0
  8 10  1  0
 10 11  1  0
 11 12  1  0
 11 13  1  0
 13 14  2  0
 13 15  1  0
 15 16  1  0
 15 17  1  0
 17 18  2  0
 18 19  1  0
 18 20  1  0
 20 21  1  0
 20 22  2  0
 22 23  1  0
 22 24  1  0
 24 25  1  0
 24 26  2  0
 26 27  1  0
 10 28  1  0
 28 29  2  0
 28 30  1  0
 30 31  1  0
 30 32  1  0
  6 33  1  0
 33 34  1  0
 33 35  2  0
 35 36  1  0
 35  2  1  0
 30  7  1  0
 26 17  1  0
M  END
>  <cnnaffinity>  (1) 
-5.15169

>  <filename>  (1) 
O=C1CN(c2cccnc2)C(=O)N1NC(=S)Nc1ccccc1

$$$$
