
     RDKit          3D

 35 37  0  0  0  0  0  0  0  0999 V2000
    7.6329   -2.6024   25.5222 H   0  0  0  0  0  0  0  0  0  0  0  0
    6.7922   -3.1618   25.1107 C   0  0  0  0  0  0  0  0  0  0  0  0
    6.5464   -3.0498   23.7977 C   0  0  0  0  0  0  0  0  0  0  0  0
    5.7225   -3.6082   23.3415 H   0  0  0  0  0  0  0  0  0  0  0  0
    7.3390   -2.2246   22.8802 C   0  0  0  0  0  0  0  0  0  0  0  0
    6.6988   -1.5504   21.8574 C   0  0  0  0  0  0  0  0  0  0  0  0
    5.6217   -1.6651   21.7211 H   0  0  0  0  0  0  0  0  0  0  0  0
    7.3943   -0.6913   20.9621 C   0  0  0  0  0  0  0  0  0  0  0  0
    6.6656    0.0300   19.8895 C   0  0  0  0  0  0  0  0  0  0  0  0
    7.1699    0.0814   18.5780 C   0  0  0  0  0  0  0  0  0  0  0  0
    8.1060   -0.4228   18.3511 H   0  0  0  0  0  0  0  0  0  0  0  0
    6.5565    0.6813   17.5525 N   0  0  0  0  0  0  0  0  0  0  0  0
    5.3967    1.2993   17.8263 C   0  0  0  0  0  0  0  0  0  0  0  0
    4.9134    1.7880   16.9872 H   0  0  0  0  0  0  0  0  0  0  0  0
    4.8036    1.3173   19.0962 C   0  0  0  0  0  0  0  0  0  0  0  0
    3.8699    1.8456   19.2538 H   0  0  0  0  0  0  0  0  0  0  0  0
    5.4371    0.6552   20.1462 C   0  0  0  0  0  0  0  0  0  0  0  0
    5.0156    0.6365   21.1570 H   0  0  0  0  0  0  0  0  0  0  0  0
    8.7460   -0.5432   21.1040 C   0  0  0  0  0  0  0  0  0  0  0  0
    9.3297    0.1107   20.4526 H   0  0  0  0  0  0  0  0  0  0  0  0
    9.3852   -1.2066   22.1092 N   0  0  0  0  0  0  0  0  0  0  0  0
   10.3781   -1.1808   22.2637 H   0  0  0  0  0  0  0  0  0  0  0  0
    8.8026   -2.0750   23.0405 C   0  0  0  0  0  0  0  0  0  0  0  0
    9.5703   -2.5981   23.8329 O   0  0  0  0  0  0  0  0  0  0  0  0
    6.0225   -3.9861   26.0528 C   0  0  0  0  0  0  0  0  0  0  0  0
    6.5992   -4.3202   27.2924 C   0  0  0  0  0  0  0  0  0  0  0  0
    7.5986   -3.9576   27.5271 H   0  0  0  0  0  0  0  0  0  0  0  0
    5.9117   -5.1201   28.2068 C   0  0  0  0  0  0  0  0  0  0  0  0
    6.3704   -5.3703   29.1609 H   0  0  0  0  0  0  0  0  0  0  0  0
    4.6291   -5.5917   27.8964 C   0  0  0  0  0  0  0  0  0  0  0  0
    4.0896   -6.2116   28.6075 H   0  0  0  0  0  0  0  0  0  0  0  0
    4.0418   -5.2600   26.6695 C   0  0  0  0  0  0  0  0  0  0  0  0
    3.0445   -5.6174   26.4237 H   0  0  0  0  0  0  0  0  0  0  0  0
    4.7320   -4.4658   25.7536 C   0  0  0  0  0  0  0  0  0  0  0  0
    4.2616   -4.1941   24.8115 H   0  0  0  0  0  0  0  0  0  0  0  0
  1  2  1  0
  2  3  2  3
  3  4  1  0
  3  5  1  0
  5  6  2  0
  6  7  1  0
  6  8  1  0
  8  9  1  0
  9 10  2  0
 10 11  1  0
 10 12  1  0
 12 13  2  0
 13 14  1  0
 13 15  1  0
 15 16  1  0
 15 17  2  0
 17 18  1  0
  8 19  2  0
 19 20  1  0
 19 21  1  0
 21 22  1  0
 21 23  1  0
 23 24  2  0
  2 25  1  0
 25 26  2  0
 26 27  1  0
 26 28  1  0
 28 29  1  0
 28 30  2  0
 30 31  1  0
 30 32  1  0
 32 33  1  0
 32 34  2  0
 34 35  1  0
 23  5  1  0
 34 25  1  0
 17  9  1  0
M  END
>  <cnnaffinity>  (1) 
-5.11456

>  <filename>  (1) 
O=c1[nH]cc(-c2cccnc2)cc1C=Cc1ccccc1

$$$$
