
     RDKit          3D

 46 50  0  0  0  0  0  0  0  0999 V2000
    7.4402    7.6493   21.4242 O   0  0  0  0  0  0  0  0  0  0  0  0
    7.8310    6.6173   21.9439 C   0  0  0  0  0  0  0  0  0  0  0  0
    9.0536    6.4125   22.7101 C   0  0  0  0  0  0  0  0  0  0  0  0
    9.3659    5.1800   23.2168 C   0  0  0  0  0  0  0  0  0  0  0  0
    8.4710    4.0661   23.0681 C   0  0  0  0  0  0  0  0  0  0  0  0
    8.8114    2.6903   23.6392 C   0  0  0  0  0  0  0  0  0  0  0  0
    8.7378    1.5702   22.6343 C   0  0  0  0  0  0  0  0  0  0  0  0
    7.7066    0.7832   22.3853 N   0  0  0  0  0  0  0  0  0  0  0  0
    8.1194    0.0716   21.2982 C   0  0  0  0  0  0  0  0  0  0  0  0
    7.2651   -0.9124   20.5601 C   0  0  0  0  0  0  0  0  0  0  0  0
    6.4958   -0.2352   19.4338 C   0  0  0  0  0  0  0  0  0  0  0  0
    5.3609    0.5194   19.7490 C   0  0  0  0  0  0  0  0  0  0  0  0
    4.7380    1.2635   18.7474 C   0  0  0  0  0  0  0  0  0  0  0  0
    5.2969    1.2573   17.4674 C   0  0  0  0  0  0  0  0  0  0  0  0
    6.3659    0.5190   17.1341 N   0  0  0  0  0  0  0  0  0  0  0  0
    6.9379   -0.2112   18.1007 C   0  0  0  0  0  0  0  0  0  0  0  0
    7.8043   -0.8016   17.7978 H   0  0  0  0  0  0  0  0  0  0  0  0
    4.8686    1.8659   16.6734 H   0  0  0  0  0  0  0  0  0  0  0  0
    3.8593    1.8639   18.9504 H   0  0  0  0  0  0  0  0  0  0  0  0
    4.9964    0.5367   20.7769 H   0  0  0  0  0  0  0  0  0  0  0  0
    7.9145   -1.7089   20.1813 H   0  0  0  0  0  0  0  0  0  0  0  0
    6.5770   -1.3477   21.2899 H   0  0  0  0  0  0  0  0  0  0  0  0
    9.3331    0.3569   20.8758 N   0  0  0  0  0  0  0  0  0  0  0  0
    9.7332    1.3127   21.7451 N   0  0  0  0  0  0  0  0  0  0  0  0
   11.0704    1.7931   21.8254 C   0  0  0  0  0  0  0  0  0  0  0  0
   11.5793    2.8010   21.0134 C   0  0  0  0  0  0  0  0  0  0  0  0
   12.7399    3.5076   21.3922 C   0  0  0  0  0  0  0  0  0  0  0  0
   13.4785    3.1378   22.5192 C   0  0  0  0  0  0  0  0  0  0  0  0
   13.0376    2.0263   23.2649 C   0  0  0  0  0  0  0  0  0  0  0  0
   11.8734    1.3522   22.8836 C   0  0  0  0  0  0  0  0  0  0  0  0
   11.7441    0.3093   23.7696 N   0  0  0  0  0  0  0  0  0  0  0  0
   12.8009    0.3972   24.6262 C   0  0  0  0  0  0  0  0  0  0  0  0
   13.5897    1.3927   24.3603 N   0  0  0  0  0  0  0  0  0  0  0  0
   12.9501   -0.3057   25.4360 H   0  0  0  0  0  0  0  0  0  0  0  0
   11.0625   -0.4242   23.7031 H   0  0  0  0  0  0  0  0  0  0  0  0
   14.4055    3.6306   22.7887 H   0  0  0  0  0  0  0  0  0  0  0  0
   13.0839    4.3134   20.7479 H   0  0  0  0  0  0  0  0  0  0  0  0
   11.0845    3.0536   20.0882 H   0  0  0  0  0  0  0  0  0  0  0  0
    8.1465    2.4344   24.4700 H   0  0  0  0  0  0  0  0  0  0  0  0
    9.8187    2.7123   24.0650 H   0  0  0  0  0  0  0  0  0  0  0  0
    7.3174    4.2510   22.3574 C   0  0  0  0  0  0  0  0  0  0  0  0
    7.0452    5.4753   21.8056 N   0  0  0  0  0  0  0  0  0  0  0  0
    6.2932    5.6597   21.1556 H   0  0  0  0  0  0  0  0  0  0  0  0
    6.5909    3.4489   22.2189 H   0  0  0  0  0  0  0  0  0  0  0  0
   10.3151    5.0386   23.7424 H   0  0  0  0  0  0  0  0  0  0  0  0
    9.6628    7.2966   22.8227 H   0  0  0  0  0  0  0  0  0  0  0  0
  1  2  2  0
  2  3  1  0
  3  4  2  0
  4  5  1  0
  5  6  1  0
  6  7  1  0
  7  8  2  0
  8  9  1  0
  9 10  1  0
 10 11  1  0
 11 12  2  0
 12 13  1  0
 13 14  2  0
 14 15  1  0
 15 16  2  0
 16 17  1  0
 14 18  1  0
 13 19  1  0
 12 20  1  0
 10 21  1  0
 10 22  1  0
  9 23  2  0
 23 24  1  0
 24 25  1  0
 25 26  2  0
 26 27  1  0
 27 28  2  0
 28 29  1  0
 29 30  2  0
 30 31  1  0
 31 32  1  0
 32 33  2  0
 32 34  1  0
 31 35  1  0
 28 36  1  0
 27 37  1  0
 26 38  1  0
  6 39  1  0
  6 40  1  0
  5 41  2  0
 41 42  1  0
 42 43  1  0
 41 44  1  0
  4 45  1  0
  3 46  1  0
 42  2  1  0
 24  7  1  0
 30 25  1  0
 16 11  1  0
 33 29  1  0
M  END
>  <cnnaffinity>  (1) 
-6.20067

>  <filename>  (1) 
O=c1ccc(Cc2nc(Cc3cccnc3)nn2-c2cccc3nc[nH]c23)c[nH]1

$$$$
