
     RDKit          3D

 41 44  0  0  0  0  0  0  0  0999 V2000
    7.8072    4.5855   28.7082 H   0  0  0  0  0  0  0  0  0  0  0  0
    7.6596    4.9051   27.6759 C   0  0  0  0  0  0  0  0  0  0  0  0
    7.3983    3.9284   26.8075 N   0  0  0  0  0  0  0  0  0  0  0  0
    7.2100    4.2763   25.5259 C   0  0  0  0  0  0  0  0  0  0  0  0
    6.9812    3.2536   24.6376 N   0  0  0  0  0  0  0  0  0  0  0  0
    6.8021    1.8629   25.1045 C   0  0  0  0  0  0  0  0  0  0  0  0
    7.7725    1.3845   25.2947 H   0  0  0  0  0  0  0  0  0  0  0  0
    6.2424    1.8415   26.0426 H   0  0  0  0  0  0  0  0  0  0  0  0
    6.0438    1.0275   24.0608 C   0  0  0  0  0  0  0  0  0  0  0  0
    5.9623   -0.0099   24.4029 H   0  0  0  0  0  0  0  0  0  0  0  0
    5.0307    1.4342   23.9428 H   0  0  0  0  0  0  0  0  0  0  0  0
    6.6947    1.0344   22.7323 N   0  0  0  0  0  0  0  0  0  0  0  0
    7.3085   -0.1681   22.3749 N   0  0  0  0  0  0  0  0  0  0  0  0
    7.3602   -0.6429   21.0424 C   0  0  0  0  0  0  0  0  0  0  0  0
    6.6512    0.0241   19.9348 C   0  0  0  0  0  0  0  0  0  0  0  0
    7.1801    0.0279   18.6312 C   0  0  0  0  0  0  0  0  0  0  0  0
    8.1337   -0.4597   18.4231 H   0  0  0  0  0  0  0  0  0  0  0  0
    6.6021    0.6332   17.5844 N   0  0  0  0  0  0  0  0  0  0  0  0
    5.4399    1.2719   17.7960 C   0  0  0  0  0  0  0  0  0  0  0  0
    4.9870    1.7565   16.9299 H   0  0  0  0  0  0  0  0  0  0  0  0
    4.8215    1.3306   19.0503 C   0  0  0  0  0  0  0  0  0  0  0  0
    3.8929    1.8787   19.1776 H   0  0  0  0  0  0  0  0  0  0  0  0
    5.4360    0.7114   20.1349 C   0  0  0  0  0  0  0  0  0  0  0  0
    5.0226    0.7742   21.1406 H   0  0  0  0  0  0  0  0  0  0  0  0
    8.1776   -1.7044   21.0820 C   0  0  0  0  0  0  0  0  0  0  0  0
    8.5450   -2.3856   20.3349 H   0  0  0  0  0  0  0  0  0  0  0  0
    8.6273   -1.9253   22.3599 O   0  0  0  0  0  0  0  0  0  0  0  0
    8.1040   -0.9810   23.1912 C   0  0  0  0  0  0  0  0  0  0  0  0
    8.3310   -0.9170   24.3756 O   0  0  0  0  0  0  0  0  0  0  0  0
    7.6047    2.1736   22.4892 C   0  0  0  0  0  0  0  0  0  0  0  0
    7.6621    2.3309   21.4045 H   0  0  0  0  0  0  0  0  0  0  0  0
    8.6146    1.9257   22.8535 H   0  0  0  0  0  0  0  0  0  0  0  0
    7.1041    3.4455   23.1813 C   0  0  0  0  0  0  0  0  0  0  0  0
    7.8292    4.2336   22.9596 H   0  0  0  0  0  0  0  0  0  0  0  0
    6.1442    3.7438   22.7337 H   0  0  0  0  0  0  0  0  0  0  0  0
    7.2303    5.6261   25.0993 C   0  0  0  0  0  0  0  0  0  0  0  0
    6.9916    5.8396   24.0684 H   0  0  0  0  0  0  0  0  0  0  0  0
    7.5078    6.6281   26.0200 C   0  0  0  0  0  0  0  0  0  0  0  0
    7.5467    7.6731   25.7085 H   0  0  0  0  0  0  0  0  0  0  0  0
    7.7301    6.2560   27.3519 C   0  0  0  0  0  0  0  0  0  0  0  0
    7.9524    6.9802   28.1273 H   0  0  0  0  0  0  0  0  0  0  0  0
  1  2  1  0
  2  3  2  0
  3  4  1  0
  4  5  1  0
  5  6  1  0
  6  7  1  0
  6  8  1  0
  6  9  1  0
  9 10  1  0
  9 11  1  0
  9 12  1  0
 12 13  1  0
 13 14  1  0
 14 15  1  0
 15 16  2  0
 16 17  1  0
 16 18  1  0
 18 19  2  0
 19 20  1  0
 19 21  1  0
 21 22  1  0
 21 23  2  0
 23 24  1  0
 14 25  2  0
 25 26  1  0
 25 27  1  0
 27 28  1  0
 28 29  2  0
 12 30  1  0
 30 31  1  0
 30 32  1  0
 30 33  1  0
 33 34  1  0
 33 35  1  0
  4 36  2  0
 36 37  1  0
 36 38  1  0
 38 39  1  0
 38 40  2  0
 40 41  1  0
 40  2  1  0
 33  5  1  0
 28 13  1  0
 23 15  1  0
M  END
>  <cnnaffinity>  (1) 
-5.16806

>  <filename>  (1) 
O=c1occ(-c2cccnc2)n1N1CCN(c2ccccn2)CC1

$$$$
