
     RDKit          3D

 35 38  0  0  0  0  0  0  0  0999 V2000
    4.9426    2.0148   17.0010 H   0  0  0  0  0  0  0  0  0  0  0  0
    5.3906    1.4756   17.8352 C   0  0  0  0  0  0  0  0  0  0  0  0
    6.4745    0.7460   17.5402 N   0  0  0  0  0  0  0  0  0  0  0  0
    7.0372    0.0527   18.5305 C   0  0  0  0  0  0  0  0  0  0  0  0
    7.9047   -0.5573   18.2799 H   0  0  0  0  0  0  0  0  0  0  0  0
    6.5623    0.0570   19.8577 C   0  0  0  0  0  0  0  0  0  0  0  0
    7.2732   -0.7968   20.8530 C   0  0  0  0  0  0  0  0  0  0  0  0
    7.4509   -0.1066   22.0680 N   0  0  0  0  0  0  0  0  0  0  0  0
    7.9827   -0.7304   23.1037 C   0  0  0  0  0  0  0  0  0  0  0  0
    8.0513    0.0667   24.3437 C   0  0  0  0  0  0  0  0  0  0  0  0
    9.2180    0.0049   25.0973 C   0  0  0  0  0  0  0  0  0  0  0  0
   10.0694   -0.5510   24.7129 H   0  0  0  0  0  0  0  0  0  0  0  0
    9.3361    0.6214   26.3578 C   0  0  0  0  0  0  0  0  0  0  0  0
   10.2507    0.4496   26.9173 H   0  0  0  0  0  0  0  0  0  0  0  0
    8.3011    1.3640   26.8782 C   0  0  0  0  0  0  0  0  0  0  0  0
    8.3736    1.8130   27.8664 H   0  0  0  0  0  0  0  0  0  0  0  0
    7.1084    1.5398   26.1252 C   0  0  0  0  0  0  0  0  0  0  0  0
    6.0132    2.3165   26.6137 C   0  0  0  0  0  0  0  0  0  0  0  0
    6.1025    2.8200   27.5795 H   0  0  0  0  0  0  0  0  0  0  0  0
    4.8618    2.3902   25.8708 C   0  0  0  0  0  0  0  0  0  0  0  0
    3.9941    2.9494   26.2003 H   0  0  0  0  0  0  0  0  0  0  0  0
    4.8047    1.6926   24.6371 C   0  0  0  0  0  0  0  0  0  0  0  0
    3.8858    1.7231   24.0577 H   0  0  0  0  0  0  0  0  0  0  0  0
    5.7917    0.9909   24.1361 N   0  0  0  0  0  0  0  0  0  0  0  0
    6.9614    0.8916   24.8403 C   0  0  0  0  0  0  0  0  0  0  0  0
    8.6127   -2.1443   23.2985 C   0  0  0  0  0  0  0  0  0  0  0  0
    8.5893   -2.3246   24.3841 H   0  0  0  0  0  0  0  0  0  0  0  0
    9.1808   -3.0954   22.6658 N   0  0  0  0  0  0  0  0  0  0  0  0
    9.2380   -3.1124   21.6355 H   0  0  0  0  0  0  0  0  0  0  0  0
    7.6673   -2.2548   20.8725 C   0  0  0  0  0  0  0  0  0  0  0  0
    7.6583   -2.1041   20.6248 O   0  0  0  0  0  0  0  0  0  0  0  0
    5.4472    0.8607   20.1639 C   0  0  0  0  0  0  0  0  0  0  0  0
    5.0763    0.9225   21.1928 H   0  0  0  0  0  0  0  0  0  0  0  0
    4.8415    1.5575   19.1191 C   0  0  0  0  0  0  0  0  0  0  0  0
    3.9635    2.1712   19.2765 H   0  0  0  0  0  0  0  0  0  0  0  0
  1  2  1  0
  2  3  2  0
  3  4  1  0
  4  5  1  0
  4  6  2  0
  6  7  1  0
  7  8  2  0
  8  9  1  0
  9 10  1  0
 10 11  2  0
 11 12  1  0
 11 13  1  0
 13 14  1  0
 13 15  2  0
 15 16  1  0
 15 17  1  0
 17 18  2  0
 18 19  1  0
 18 20  1  0
 20 21  1  0
 20 22  2  0
 22 23  1  0
 22 24  1  0
 24 25  2  0
  9 26  2  0
 26 27  1  0
 26 28  1  0
 28 29  1  0
 28 30  1  0
 30 31  2  0
  6 32  1  0
 32 33  1  0
 32 34  2  0
 34 35  1  0
 34  2  1  0
 30  7  1  0
 25 10  1  0
 25 17  1  0
M  END
>  <cnnaffinity>  (1) 
-5.01127

>  <filename>  (1) 
O=c1[nH]cc(-c2cccc3cccnc23)nc1-c1cccnc1

$$$$
