
     RDKit          3D

 37 39  0  0  0  0  0  0  0  0999 V2000
    4.9614    1.8148   16.9486 H   0  0  0  0  0  0  0  0  0  0  0  0
    5.4541    1.3274   17.7917 C   0  0  0  0  0  0  0  0  0  0  0  0
    6.6413    0.7575   17.5347 N   0  0  0  0  0  0  0  0  0  0  0  0
    7.2536    0.1322   18.5478 C   0  0  0  0  0  0  0  0  0  0  0  0
    8.2218   -0.3065   18.3208 H   0  0  0  0  0  0  0  0  0  0  0  0
    6.7019   -0.0099   19.8349 C   0  0  0  0  0  0  0  0  0  0  0  0
    7.4454   -0.8053   20.8630 C   0  0  0  0  0  0  0  0  0  0  0  0
    8.7288   -0.5457   20.9432 N   0  0  0  0  0  0  0  0  0  0  0  0
    9.4512   -1.0987   21.9515 N   0  0  0  0  0  0  0  0  0  0  0  0
   10.8592   -0.6789   22.0510 C   0  0  0  0  0  0  0  0  0  0  0  0
   11.4512   -1.5400   22.3728 H   0  0  0  0  0  0  0  0  0  0  0  0
   11.1710   -0.3761   21.0484 H   0  0  0  0  0  0  0  0  0  0  0  0
   11.1354    0.4888   23.0087 C   0  0  0  0  0  0  0  0  0  0  0  0
   12.2207    0.6663   23.0619 H   0  0  0  0  0  0  0  0  0  0  0  0
   10.7691    0.2695   24.0233 H   0  0  0  0  0  0  0  0  0  0  0  0
   10.4836    1.6202   22.4710 O   0  0  0  0  0  0  0  0  0  0  0  0
   10.5314    2.8339   23.0786 C   0  0  0  0  0  0  0  0  0  0  0  0
    9.6257    3.7656   22.5458 C   0  0  0  0  0  0  0  0  0  0  0  0
    8.9694    3.4364   21.7450 H   0  0  0  0  0  0  0  0  0  0  0  0
    9.6211    5.0793   22.9978 C   0  0  0  0  0  0  0  0  0  0  0  0
    8.9219    5.7873   22.5576 H   0  0  0  0  0  0  0  0  0  0  0  0
   10.5153    5.4767   23.9986 C   0  0  0  0  0  0  0  0  0  0  0  0
   10.5200    6.5076   24.3388 H   0  0  0  0  0  0  0  0  0  0  0  0
   11.3819    4.5382   24.5589 C   0  0  0  0  0  0  0  0  0  0  0  0
   12.0532    4.8486   25.3560 H   0  0  0  0  0  0  0  0  0  0  0  0
   11.3943    3.2040   24.1194 C   0  0  0  0  0  0  0  0  0  0  0  0
   12.0546    2.4740   24.5859 H   0  0  0  0  0  0  0  0  0  0  0  0
    8.8936   -1.8850   22.9214 C   0  0  0  0  0  0  0  0  0  0  0  0
    9.5700   -2.2192   23.7132 H   0  0  0  0  0  0  0  0  0  0  0  0
    7.5945   -2.2463   22.8891 C   0  0  0  0  0  0  0  0  0  0  0  0
    7.1339   -2.8638   23.6504 H   0  0  0  0  0  0  0  0  0  0  0  0
    6.7696   -1.8383   21.7634 C   0  0  0  0  0  0  0  0  0  0  0  0
    5.6552   -2.3145   21.5753 O   0  0  0  0  0  0  0  0  0  0  0  0
    5.4819    0.6351   20.0985 C   0  0  0  0  0  0  0  0  0  0  0  0
    5.0455    0.6201   21.1004 H   0  0  0  0  0  0  0  0  0  0  0  0
    4.8501    1.3099   19.0520 C   0  0  0  0  0  0  0  0  0  0  0  0
    3.9128    1.8321   19.2002 H   0  0  0  0  0  0  0  0  0  0  0  0
  1  2  1  0
  2  3  2  0
  3  4  1  0
  4  5  1  0
  4  6  2  0
  6  7  1  0
  7  8  2  0
  8  9  1  0
  9 10  1  0
 10 11  1  0
 10 12  1  0
 10 13  1  0
 13 14  1  0
 13 15  1  0
 13 16  1  0
 16 17  1  0
 17 18  2  0
 18 19  1  0
 18 20  1  0
 20 21  1  0
 20 22  2  0
 22 23  1  0
 22 24  1  0
 24 25  1  0
 24 26  2  0
 26 27  1  0
  9 28  1  0
 28 29  1  0
 28 30  2  0
 30 31  1  0
 30 32  1  0
 32 33  2  0
  6 34  1  0
 34 35  1  0
 34 36  2  0
 36 37  1  0
 36  2  1  0
 32  7  1  0
 26 17  1  0
M  END
>  <cnnaffinity>  (1) 
-5.26278

>  <filename>  (1) 
O=c1ccn(CCOc2ccccc2)nc1-c1cccnc1

$$$$
