
     RDKit          3D

 31 33  0  0  0  0  0  0  0  0999 V2000
    5.2944    1.7623   17.0499 H   0  0  0  0  0  0  0  0  0  0  0  0
    5.7423    1.2855   17.9208 C   0  0  0  0  0  0  0  0  0  0  0  0
    6.9253    0.6816   17.7309 N   0  0  0  0  0  0  0  0  0  0  0  0
    7.4982    0.0777   18.7839 C   0  0  0  0  0  0  0  0  0  0  0  0
    8.4484   -0.4176   18.5835 H   0  0  0  0  0  0  0  0  0  0  0  0
    6.9110    0.0291   20.0668 C   0  0  0  0  0  0  0  0  0  0  0  0
    7.4497   -0.7290   21.1598 N   0  0  0  0  0  0  0  0  0  0  0  0
    8.6129   -0.5103   21.9265 C   0  0  0  0  0  0  0  0  0  0  0  0
    9.5962    0.6136   21.7801 C   0  0  0  0  0  0  0  0  0  0  0  0
    9.3607    1.4173   22.4851 H   0  0  0  0  0  0  0  0  0  0  0  0
    9.4941    1.0486   20.7774 H   0  0  0  0  0  0  0  0  0  0  0  0
   11.0286    0.1138   21.9839 C   0  0  0  0  0  0  0  0  0  0  0  0
   11.4409   -0.9756   21.1995 C   0  0  0  0  0  0  0  0  0  0  0  0
   10.6645   -1.4842   20.6387 H   0  0  0  0  0  0  0  0  0  0  0  0
   12.7455   -1.4650   21.2132 C   0  0  0  0  0  0  0  0  0  0  0  0
   13.0507   -2.2103   20.4812 H   0  0  0  0  0  0  0  0  0  0  0  0
   13.6681   -0.9309   22.1204 C   0  0  0  0  0  0  0  0  0  0  0  0
   14.6878   -1.3077   22.1520 H   0  0  0  0  0  0  0  0  0  0  0  0
   13.2748    0.0988   22.9847 C   0  0  0  0  0  0  0  0  0  0  0  0
   13.9566    0.5162   23.7267 H   0  0  0  0  0  0  0  0  0  0  0  0
   11.9727    0.6180   22.8963 C   0  0  0  0  0  0  0  0  0  0  0  0
   11.5800    1.9688   23.9318 Cl  0  0  0  0  0  0  0  0  0  0  0  0
    8.6657   -1.5190   22.8119 C   0  0  0  0  0  0  0  0  0  0  0  0
    9.4104   -1.8014   23.5465 H   0  0  0  0  0  0  0  0  0  0  0  0
    7.5806   -2.3385   22.6597 O   0  0  0  0  0  0  0  0  0  0  0  0
    6.7951   -1.8671   21.6470 C   0  0  0  0  0  0  0  0  0  0  0  0
    5.7719   -2.3875   21.2838 O   0  0  0  0  0  0  0  0  0  0  0  0
    5.6818    0.6739   20.2478 C   0  0  0  0  0  0  0  0  0  0  0  0
    5.2101    0.6336   21.2289 H   0  0  0  0  0  0  0  0  0  0  0  0
    5.0921    1.3179   19.1587 C   0  0  0  0  0  0  0  0  0  0  0  0
    4.1392    1.8261   19.2559 H   0  0  0  0  0  0  0  0  0  0  0  0
  1  2  1  0
  2  3  2  0
  3  4  1  0
  4  5  1  0
  4  6  2  0
  6  7  1  0
  7  8  1  0
  8  9  1  0
  9 10  1  0
  9 11  1  0
  9 12  1  0
 12 13  2  0
 13 14  1  0
 13 15  1  0
 15 16  1  0
 15 17  2  0
 17 18  1  0
 17 19  1  0
 19 20  1  0
 19 21  2  0
 21 22  1  0
  8 23  2  0
 23 24  1  0
 23 25  1  0
 25 26  1  0
 26 27  2  0
  6 28  1  0
 28 29  1  0
 28 30  2  0
 30 31  1  0
 30  2  1  0
 26  7  1  0
 21 12  1  0
M  END
>  <cnnaffinity>  (1) 
-5.79342

>  <filename>  (1) 
O=c1occ(Cc2ccccc2Cl)n1-c1cccnc1

$$$$
