
     RDKit          3D

 34 37  0  0  0  0  0  0  0  0999 V2000
    4.9578    1.9610   16.7374 H   0  0  0  0  0  0  0  0  0  0  0  0
    5.3588    1.4571   17.6153 C   0  0  0  0  0  0  0  0  0  0  0  0
    6.5212    0.8068   17.4461 N   0  0  0  0  0  0  0  0  0  0  0  0
    7.0334    0.1751   18.5080 C   0  0  0  0  0  0  0  0  0  0  0  0
    7.9828   -0.3328   18.3456 H   0  0  0  0  0  0  0  0  0  0  0  0
    6.4256    0.1575   19.7727 C   0  0  0  0  0  0  0  0  0  0  0  0
    7.0417   -0.6345   20.8602 C   0  0  0  0  0  0  0  0  0  0  0  0
    7.5712   -1.7730   20.5100 N   0  0  0  0  0  0  0  0  0  0  0  0
    8.1196   -2.5564   21.4827 C   0  0  0  0  0  0  0  0  0  0  0  0
    8.5121   -3.6947   21.3350 O   0  0  0  0  0  0  0  0  0  0  0  0
    8.2865   -2.0005   22.7471 N   0  0  0  0  0  0  0  0  0  0  0  0
    8.6493   -2.7001   23.3665 H   0  0  0  0  0  0  0  0  0  0  0  0
    7.7008   -0.8462   23.1571 C   0  0  0  0  0  0  0  0  0  0  0  0
    7.8557   -0.4416   24.5708 C   0  0  0  0  0  0  0  0  0  0  0  0
    6.7450   -0.2351   25.3996 C   0  0  0  0  0  0  0  0  0  0  0  0
    5.7484   -0.3217   24.9741 H   0  0  0  0  0  0  0  0  0  0  0  0
    6.8997    0.0613   26.7705 C   0  0  0  0  0  0  0  0  0  0  0  0
    6.0138    0.2107   27.3889 H   0  0  0  0  0  0  0  0  0  0  0  0
    8.1653    0.1892   27.3382 C   0  0  0  0  0  0  0  0  0  0  0  0
    8.2809    0.4229   28.3937 H   0  0  0  0  0  0  0  0  0  0  0  0
    9.2831    0.0362   26.4968 C   0  0  0  0  0  0  0  0  0  0  0  0
    9.1566   -0.2737   25.1220 C   0  0  0  0  0  0  0  0  0  0  0  0
   10.4935   -0.3098   24.5928 C   0  0  0  0  0  0  0  0  0  0  0  0
   10.7684   -0.4835   23.5638 H   0  0  0  0  0  0  0  0  0  0  0  0
   11.3520   -0.0394   25.6149 C   0  0  0  0  0  0  0  0  0  0  0  0
   12.4312    0.0179   25.6042 H   0  0  0  0  0  0  0  0  0  0  0  0
   10.6272    0.1376   26.7747 N   0  0  0  0  0  0  0  0  0  0  0  0
   10.9792    0.4984   27.6513 H   0  0  0  0  0  0  0  0  0  0  0  0
    7.0344   -0.1399   22.1970 C   0  0  0  0  0  0  0  0  0  0  0  0
    6.5515    0.7958   22.4309 H   0  0  0  0  0  0  0  0  0  0  0  0
    5.2306    0.8667   19.9406 C   0  0  0  0  0  0  0  0  0  0  0  0
    4.7414    0.9007   20.9162 H   0  0  0  0  0  0  0  0  0  0  0  0
    4.6771    1.5120   18.8368 C   0  0  0  0  0  0  0  0  0  0  0  0
    3.7461    2.0655   18.9167 H   0  0  0  0  0  0  0  0  0  0  0  0
  1  2  1  0
  2  3  2  0
  3  4  1  0
  4  5  1  0
  4  6  2  0
  6  7  1  0
  7  8  2  0
  8  9  1  0
  9 10  2  0
  9 11  1  0
 11 12  1  0
 11 13  1  0
 13 14  1  0
 14 15  2  0
 15 16  1  0
 15 17  1  0
 17 18  1  0
 17 19  2  0
 19 20  1  0
 19 21  1  0
 21 22  2  0
 22 23  1  0
 23 24  1  0
 23 25  2  0
 25 26  1  0
 25 27  1  0
 27 28  1  0
 13 29  2  0
 29 30  1  0
  6 31  1  0
 31 32  1  0
 31 33  2  0
 33 34  1  0
 33  2  1  0
 29  7  1  0
 22 14  1  0
 27 21  1  0
M  END
>  <cnnaffinity>  (1) 
-5.32526

>  <filename>  (1) 
O=c1nc(-c2cccnc2)cc(-c2cccc3[nH]ccc23)[nH]1

$$$$
