
     RDKit          3D

 31 33  0  0  0  0  0  0  0  0999 V2000
    9.0359   -0.1595   24.9711 H   0  0  0  0  0  0  0  0  0  0  0  0
    9.1516   -0.6337   23.9901 C   0  0  0  0  0  0  0  0  0  0  0  0
   10.3457   -0.6187   23.3924 C   0  0  0  0  0  0  0  0  0  0  0  0
   11.7386    0.3831   23.8611 S   0  0  0  0  0  0  0  0  0  0  0  0
   12.8111   -0.4593   22.7389 C   0  0  0  0  0  0  0  0  0  0  0  0
   14.3901   -0.1329   22.5399 S   0  0  0  0  0  0  0  0  0  0  0  0
   12.1071   -1.4223   22.0806 N   0  0  0  0  0  0  0  0  0  0  0  0
   12.5501   -2.0569   21.4296 H   0  0  0  0  0  0  0  0  0  0  0  0
   10.7465   -1.5257   22.2769 C   0  0  0  0  0  0  0  0  0  0  0  0
   10.0349   -2.2653   21.6326 O   0  0  0  0  0  0  0  0  0  0  0  0
    7.9187   -1.1775   23.3458 C   0  0  0  0  0  0  0  0  0  0  0  0
    7.3993   -0.1944   22.2997 C   0  0  0  0  0  0  0  0  0  0  0  0
    7.0376    0.9166   22.6404 O   0  0  0  0  0  0  0  0  0  0  0  0
    7.4075   -0.6495   21.0016 N   0  0  0  0  0  0  0  0  0  0  0  0
    8.0789   -1.3834   20.8179 H   0  0  0  0  0  0  0  0  0  0  0  0
    6.7373   -0.0211   19.9228 C   0  0  0  0  0  0  0  0  0  0  0  0
    7.2313   -0.0141   18.5957 C   0  0  0  0  0  0  0  0  0  0  0  0
    8.1629   -0.5258   18.3549 H   0  0  0  0  0  0  0  0  0  0  0  0
    6.6181    0.6042   17.5752 N   0  0  0  0  0  0  0  0  0  0  0  0
    5.4646    1.2399   17.8344 C   0  0  0  0  0  0  0  0  0  0  0  0
    4.9998    1.7589   16.9990 H   0  0  0  0  0  0  0  0  0  0  0  0
    4.8731    1.2602   19.1023 C   0  0  0  0  0  0  0  0  0  0  0  0
    3.9360    1.7852   19.2541 H   0  0  0  0  0  0  0  0  0  0  0  0
    5.5193    0.6281   20.1657 C   0  0  0  0  0  0  0  0  0  0  0  0
    5.1078    0.6377   21.1741 H   0  0  0  0  0  0  0  0  0  0  0  0
    6.9246   -1.8398   24.2922 C   0  0  0  0  0  0  0  0  0  0  0  0
    5.8656   -1.6740   24.1390 H   0  0  0  0  0  0  0  0  0  0  0  0
    7.2128   -1.9428   25.3371 H   0  0  0  0  0  0  0  0  0  0  0  0
    7.6718   -2.6663   23.3006 C   0  0  0  0  0  0  0  0  0  0  0  0
    7.1200   -3.0563   22.4493 H   0  0  0  0  0  0  0  0  0  0  0  0
    8.4718   -3.2902   23.6905 H   0  0  0  0  0  0  0  0  0  0  0  0
  1  2  1  0
  2  3  2  3
  3  4  1  0
  4  5  1  0
  5  6  2  0
  5  7  1  0
  7  8  1  0
  7  9  1  0
  9 10  2  0
  2 11  1  0
 11 12  1  0
 12 13  2  0
 12 14  1  0
 14 15  1  0
 14 16  1  0
 16 17  2  0
 17 18  1  0
 17 19  1  0
 19 20  2  0
 20 21  1  0
 20 22  1  0
 22 23  1  0
 22 24  2  0
 24 25  1  0
 11 26  1  0
 26 27  1  0
 26 28  1  0
 26 29  1  0
 29 30  1  0
 29 31  1  0
  9  3  1  0
 29 11  1  0
 24 16  1  0
M  END
>  <cnnaffinity>  (1) 
-5.60919

>  <filename>  (1) 
O=C1NC(=S)SC1=CC1(C(=O)Nc2cccnc2)CC1

$$$$
