
     RDKit          3D

 31 33  0  0  0  0  0  0  0  0999 V2000
    4.9404    1.7856   16.9958 H   0  0  0  0  0  0  0  0  0  0  0  0
    5.3973    1.2831   17.8451 C   0  0  0  0  0  0  0  0  0  0  0  0
    6.5641    0.6653   17.6020 N   0  0  0  0  0  0  0  0  0  0  0  0
    7.1786    0.0705   18.6308 C   0  0  0  0  0  0  0  0  0  0  0  0
    8.1304   -0.3996   18.3876 H   0  0  0  0  0  0  0  0  0  0  0  0
    6.6728    0.0586   19.9468 C   0  0  0  0  0  0  0  0  0  0  0  0
    7.3618   -0.5992   21.0129 N   0  0  0  0  0  0  0  0  0  0  0  0
    7.3526    0.0092   22.2323 N   0  0  0  0  0  0  0  0  0  0  0  0
    7.9587   -0.5848   23.2331 C   0  0  0  0  0  0  0  0  0  0  0  0
    7.9110    0.0437   24.4628 N   0  0  0  0  0  0  0  0  0  0  0  0
    8.1701   -0.5000   25.2706 H   0  0  0  0  0  0  0  0  0  0  0  0
    7.5979    1.3706   24.6860 C   0  0  0  0  0  0  0  0  0  0  0  0
    6.9585    1.6993   25.8762 C   0  0  0  0  0  0  0  0  0  0  0  0
    6.7097    0.9296   26.5966 H   0  0  0  0  0  0  0  0  0  0  0  0
    6.6145    3.0313   26.0687 C   0  0  0  0  0  0  0  0  0  0  0  0
    6.0748    3.3438   26.9643 H   0  0  0  0  0  0  0  0  0  0  0  0
    6.9008    4.0087   25.1958 N   0  0  0  0  0  0  0  0  0  0  0  0
    7.5638    3.6703   24.0799 C   0  0  0  0  0  0  0  0  0  0  0  0
    7.7765    4.4835   23.3813 H   0  0  0  0  0  0  0  0  0  0  0  0
    7.9457    2.3697   23.7785 C   0  0  0  0  0  0  0  0  0  0  0  0
    8.4542    2.1030   22.8616 H   0  0  0  0  0  0  0  0  0  0  0  0
    8.6734   -1.9293   23.1273 C   0  0  0  0  0  0  0  0  0  0  0  0
    9.2362   -2.4735   24.0749 O   0  0  0  0  0  0  0  0  0  0  0  0
    8.5954   -2.4909   21.7918 C   0  0  0  0  0  0  0  0  0  0  0  0
    9.0722   -3.4434   21.6262 H   0  0  0  0  0  0  0  0  0  0  0  0
    7.9315   -1.8164   20.8253 C   0  0  0  0  0  0  0  0  0  0  0  0
    7.7336   -2.1556   19.8264 H   0  0  0  0  0  0  0  0  0  0  0  0
    5.4429    0.6799   20.1847 C   0  0  0  0  0  0  0  0  0  0  0  0
    5.0527    0.6521   21.2016 H   0  0  0  0  0  0  0  0  0  0  0  0
    4.7986    1.3026   19.1108 C   0  0  0  0  0  0  0  0  0  0  0  0
    3.8641    1.8345   19.2485 H   0  0  0  0  0  0  0  0  0  0  0  0
  1  2  1  0
  2  3  2  0
  3  4  1  0
  4  5  1  0
  4  6  2  0
  6  7  1  0
  7  8  1  0
  8  9  2  0
  9 10  1  0
 10 11  1  0
 10 12  1  0
 12 13  2  0
 13 14  1  0
 13 15  1  0
 15 16  1  0
 15 17  2  0
 17 18  1  0
 18 19  1  0
 18 20  2  0
 20 21  1  0
  9 22  1  0
 22 23  2  0
 22 24  1  0
 24 25  1  0
 24 26  2  0
 26 27  1  0
  6 28  1  0
 28 29  1  0
 28 30  2  0
 30 31  1  0
 30  2  1  0
 26  7  1  0
 20 12  1  0
M  END
>  <cnnaffinity>  (1) 
-5.03224

>  <filename>  (1) 
O=c1ccn(-c2cccnc2)nc1Nc1ccncc1

$$$$
