
     RDKit          3D

 25 27  0  0  0  0  0  0  0  0999 V2000
    5.0771    1.7357   16.8922 H   0  0  0  0  0  0  0  0  0  0  0  0
    5.5400    1.2758   17.7624 C   0  0  0  0  0  0  0  0  0  0  0  0
    6.7228    0.6808   17.5466 N   0  0  0  0  0  0  0  0  0  0  0  0
    7.3189    0.0948   18.5905 C   0  0  0  0  0  0  0  0  0  0  0  0
    8.2858   -0.3690   18.4082 H   0  0  0  0  0  0  0  0  0  0  0  0
    6.7603    0.0426   19.8744 C   0  0  0  0  0  0  0  0  0  0  0  0
    7.4561   -0.7436   20.9272 C   0  0  0  0  0  0  0  0  0  0  0  0
    8.7624   -0.7844   20.9211 N   0  0  0  0  0  0  0  0  0  0  0  0
    9.4144   -1.4849   21.9362 N   0  0  0  0  0  0  0  0  0  0  0  0
   10.7973   -1.6423   21.8781 C   0  0  0  0  0  0  0  0  0  0  0  0
   11.5923   -0.9348   21.0349 N   0  0  0  0  0  0  0  0  0  0  0  0
   12.7934   -1.3816   21.2096 N   0  0  0  0  0  0  0  0  0  0  0  0
   12.6977   -2.3108   22.1308 N   0  0  0  0  0  0  0  0  0  0  0  0
   13.5049   -2.8204   22.4600 H   0  0  0  0  0  0  0  0  0  0  0  0
   11.4922   -2.5357   22.6025 N   0  0  0  0  0  0  0  0  0  0  0  0
    8.7471   -2.0844   23.0656 C   0  0  0  0  0  0  0  0  0  0  0  0
    9.3241   -2.5217   24.0305 O   0  0  0  0  0  0  0  0  0  0  0  0
    7.2938   -2.1045   22.9234 C   0  0  0  0  0  0  0  0  0  0  0  0
    6.7768   -2.6035   23.7318 H   0  0  0  0  0  0  0  0  0  0  0  0
    6.6698   -1.4797   21.8938 C   0  0  0  0  0  0  0  0  0  0  0  0
    5.5944   -1.5426   21.7598 H   0  0  0  0  0  0  0  0  0  0  0  0
    5.5376    0.7012   20.0940 C   0  0  0  0  0  0  0  0  0  0  0  0
    5.1027    0.7505   21.0942 H   0  0  0  0  0  0  0  0  0  0  0  0
    4.9124    1.3208   19.0124 C   0  0  0  0  0  0  0  0  0  0  0  0
    3.9608    1.8308   19.1222 H   0  0  0  0  0  0  0  0  0  0  0  0
  1  2  1  0
  2  3  2  0
  3  4  1  0
  4  5  1  0
  4  6  2  0
  6  7  1  0
  7  8  2  0
  8  9  1  0
  9 10  1  0
 10 11  1  0
 11 12  2  0
 12 13  1  0
 13 14  1  0
 13 15  1  0
  9 16  1  0
 16 17  2  0
 16 18  1  0
 18 19  1  0
 18 20  2  0
 20 21  1  0
  6 22  1  0
 22 23  1  0
 22 24  2  0
 24 25  1  0
 24  2  1  0
 20  7  1  0
 15 10  2  0
M  END
>  <cnnaffinity>  (1) 
-5.23584

>  <filename>  (1) 
O=c1ccc(-c2cccnc2)nn1-c1nn[nH]n1

$$$$
