
     RDKit          3D

 27 29  0  0  0  0  0  0  0  0999 V2000
    4.9803    1.8484   16.9329 H   0  0  0  0  0  0  0  0  0  0  0  0
    5.4573    1.3453   17.7709 C   0  0  0  0  0  0  0  0  0  0  0  0
    6.6494    0.7877   17.5103 N   0  0  0  0  0  0  0  0  0  0  0  0
    7.2634    0.1600   18.5163 C   0  0  0  0  0  0  0  0  0  0  0  0
    8.2492   -0.2474   18.3009 H   0  0  0  0  0  0  0  0  0  0  0  0
    6.7019    0.0033   19.7985 C   0  0  0  0  0  0  0  0  0  0  0  0
    7.4596   -0.7868   20.8219 C   0  0  0  0  0  0  0  0  0  0  0  0
    8.7317   -0.4916   20.9377 N   0  0  0  0  0  0  0  0  0  0  0  0
    9.4904   -1.1462   21.8805 N   0  0  0  0  0  0  0  0  0  0  0  0
   10.8169   -0.7977   21.9548 N   0  0  0  0  0  0  0  0  0  0  0  0
   11.7878   -1.6612   22.3284 N   0  0  0  0  0  0  0  0  0  0  0  0
   12.8896   -0.9136   22.3575 C   0  0  0  0  0  0  0  0  0  0  0  0
   13.8547   -1.3649   22.5559 H   0  0  0  0  0  0  0  0  0  0  0  0
   12.6154    0.4414   22.0447 C   0  0  0  0  0  0  0  0  0  0  0  0
   13.3125    1.2657   22.0258 H   0  0  0  0  0  0  0  0  0  0  0  0
   11.2688    0.4691   21.7499 C   0  0  0  0  0  0  0  0  0  0  0  0
   10.5415    1.1898   21.3925 H   0  0  0  0  0  0  0  0  0  0  0  0
    8.9267   -1.9449   22.8489 C   0  0  0  0  0  0  0  0  0  0  0  0
    9.6164   -2.2618   23.6269 H   0  0  0  0  0  0  0  0  0  0  0  0
    7.6323   -2.2625   22.8043 C   0  0  0  0  0  0  0  0  0  0  0  0
    7.1624   -2.8988   23.5371 H   0  0  0  0  0  0  0  0  0  0  0  0
    6.8072   -1.8376   21.6923 C   0  0  0  0  0  0  0  0  0  0  0  0
    5.6887   -2.3119   21.5062 O   0  0  0  0  0  0  0  0  0  0  0  0
    5.4694    0.6249   20.0642 C   0  0  0  0  0  0  0  0  0  0  0  0
    5.0287    0.5951   21.0646 H   0  0  0  0  0  0  0  0  0  0  0  0
    4.8396    1.3070   19.0244 C   0  0  0  0  0  0  0  0  0  0  0  0
    3.9025    1.8321   19.1742 H   0  0  0  0  0  0  0  0  0  0  0  0
  1  2  1  0
  2  3  2  0
  3  4  1  0
  4  5  1  0
  4  6  2  0
  6  7  1  0
  7  8  2  0
  8  9  1  0
  9 10  1  0
 10 11  1  0
 11 12  2  0
 12 13  1  0
 12 14  1  0
 14 15  1  0
 14 16  2  0
 16 17  1  0
  9 18  1  0
 18 19  1  0
 18 20  2  0
 20 21  1  0
 20 22  1  0
 22 23  2  0
  6 24  1  0
 24 25  1  0
 24 26  2  0
 26 27  1  0
 26  2  1  0
 22  7  1  0
 16 10  1  0
M  END
>  <cnnaffinity>  (1) 
-4.60377

>  <filename>  (1) 
O=c1ccn(-n2cccn2)nc1-c1cccnc1

$$$$
