
     RDKit          3D

 41 43  0  0  0  0  0  0  0  0999 V2000
    4.9678    1.8749   16.9495 H   0  0  0  0  0  0  0  0  0  0  0  0
    5.4222    1.3253   17.7712 C   0  0  0  0  0  0  0  0  0  0  0  0
    6.5758    0.6971   17.4934 N   0  0  0  0  0  0  0  0  0  0  0  0
    7.1493    0.0205   18.4956 C   0  0  0  0  0  0  0  0  0  0  0  0
    8.0934   -0.4688   18.2592 H   0  0  0  0  0  0  0  0  0  0  0  0
    6.6259   -0.0927   19.7983 C   0  0  0  0  0  0  0  0  0  0  0  0
    7.3945   -0.8300   20.8830 C   0  0  2  0  0  0  0  0  0  0  0  0
    8.2576   -1.3012   20.3961 H   0  0  0  0  0  0  0  0  0  0  0  0
    6.5874   -1.9263   21.6335 C   0  0  0  0  0  0  0  0  0  0  0  0
    7.1032   -2.8945   21.5917 H   0  0  0  0  0  0  0  0  0  0  0  0
    5.5899   -2.0616   21.1890 H   0  0  0  0  0  0  0  0  0  0  0  0
    6.5095   -1.4397   23.0007 N   0  0  0  0  0  0  0  0  0  0  0  0
    5.7634   -1.6799   23.6344 H   0  0  0  0  0  0  0  0  0  0  0  0
    6.9531   -0.1624   23.1628 C   0  0  0  0  0  0  0  0  0  0  0  0
    6.6503    0.5459   24.0999 O   0  0  0  0  0  0  0  0  0  0  0  0
    7.8598    0.1497   21.9866 C   0  0  1  0  0  0  0  0  0  0  0  0
    7.6803    1.1864   21.6886 H   0  0  0  0  0  0  0  0  0  0  0  0
    9.3490    0.0132   22.3526 C   0  0  0  0  0  0  0  0  0  0  0  0
    9.5599   -1.0256   22.6418 H   0  0  0  0  0  0  0  0  0  0  0  0
    9.9429    0.1956   21.4438 H   0  0  0  0  0  0  0  0  0  0  0  0
    9.8073    0.9864   23.4495 C   0  0  0  0  0  0  0  0  0  0  0  0
    9.2165    0.7858   24.3584 H   0  0  0  0  0  0  0  0  0  0  0  0
    9.4968    2.4446   23.0285 C   0  0  0  0  0  0  0  0  0  0  0  0
    9.8533    2.6081   21.9955 H   0  0  0  0  0  0  0  0  0  0  0  0
    8.4072    2.5841   23.0128 H   0  0  0  0  0  0  0  0  0  0  0  0
   10.1144    3.4890   23.9637 C   0  0  0  0  0  0  0  0  0  0  0  0
    9.8967    4.5007   23.5996 H   0  0  0  0  0  0  0  0  0  0  0  0
    9.6319    3.3969   24.9523 H   0  0  0  0  0  0  0  0  0  0  0  0
   11.6226    3.2552   24.1180 C   0  0  0  0  0  0  0  0  0  0  0  0
   12.0857    4.0423   24.7242 H   0  0  0  0  0  0  0  0  0  0  0  0
   12.1049    3.3103   23.1274 H   0  0  0  0  0  0  0  0  0  0  0  0
   11.8463    1.8616   24.7246 C   0  0  0  0  0  0  0  0  0  0  0  0
   11.3153    1.8120   25.6889 H   0  0  0  0  0  0  0  0  0  0  0  0
   12.9045    1.6793   24.9331 H   0  0  0  0  0  0  0  0  0  0  0  0
   11.2949    0.7632   23.8042 C   0  0  0  0  0  0  0  0  0  0  0  0
   11.4061   -0.2182   24.2887 H   0  0  0  0  0  0  0  0  0  0  0  0
   11.8954    0.7257   22.8799 H   0  0  0  0  0  0  0  0  0  0  0  0
    5.4245    0.5841   20.0657 C   0  0  0  0  0  0  0  0  0  0  0  0
    4.9842    0.5705   21.0671 H   0  0  0  0  0  0  0  0  0  0  0  0
    4.8113    1.2971   19.0316 C   0  0  0  0  0  0  0  0  0  0  0  0
    3.8833    1.8408   19.1905 H   0  0  0  0  0  0  0  0  0  0  0  0
  1  2  1  0
  2  3  2  0
  3  4  1  0
  4  5  1  0
  4  6  2  0
  6  7  1  0
  7  8  1  6
  7  9  1  0
  9 10  1  0
  9 11  1  0
  9 12  1  0
 12 13  1  0
 12 14  1  0
 14 15  2  0
 14 16  1  0
 16 17  1  6
 16 18  1  0
 18 19  1  0
 18 20  1  0
 18 21  1  0
 21 22  1  0
 21 23  1  0
 23 24  1  0
 23 25  1  0
 23 26  1  0
 26 27  1  0
 26 28  1  0
 26 29  1  0
 29 30  1  0
 29 31  1  0
 29 32  1  0
 32 33  1  0
 32 34  1  0
 32 35  1  0
 35 36  1  0
 35 37  1  0
  6 38  1  0
 38 39  1  0
 38 40  2  0
 40 41  1  0
 40  2  1  0
 16  7  1  0
 35 21  1  0
M  END
>  <cnnaffinity>  (1) 
-5.255

>  <filename>  (1) 
O=C1NC[C@@H](c2cccnc2)[C@@H]1CC1CCCCC1

$$$$
