
     RDKit          3D

 27 28  0  0  0  0  0  0  0  0999 V2000
   10.1407    1.9115   22.9530 H   0  0  0  0  0  0  0  0  0  0  0  0
    9.1034    2.2485   22.9943 C   0  0  0  0  0  0  0  0  0  0  0  0
    8.7631    3.3804   23.6230 C   0  0  0  0  0  0  0  0  0  0  0  0
    9.8655    4.4743   24.4534 S   0  0  0  0  0  0  0  0  0  0  0  0
    8.5222    5.6196   24.7681 C   0  0  0  0  0  0  0  0  0  0  0  0
    8.5941    6.6381   25.3921 O   0  0  0  0  0  0  0  0  0  0  0  0
    7.3767    5.1426   24.1928 N   0  0  0  0  0  0  0  0  0  0  0  0
    6.5147    5.6485   24.2720 H   0  0  0  0  0  0  0  0  0  0  0  0
    7.4028    3.9138   23.6079 C   0  0  0  0  0  0  0  0  0  0  0  0
    6.4019    3.3831   23.1598 O   0  0  0  0  0  0  0  0  0  0  0  0
    8.1645    1.4610   22.3593 N   0  0  0  0  0  0  0  0  0  0  0  0
    7.2017    1.8025   22.4427 H   0  0  0  0  0  0  0  0  0  0  0  0
    8.5545    0.3640   21.6067 C   0  0  0  0  0  0  0  0  0  0  0  0
    9.7268    0.1410   21.3887 O   0  0  0  0  0  0  0  0  0  0  0  0
    7.4127   -0.5716   21.0086 C   0  0  0  0  0  0  0  0  0  0  0  0
    6.5736   -0.9669   22.0168 F   0  0  0  0  0  0  0  0  0  0  0  0
    8.0028   -1.7020   20.5377 F   0  0  0  0  0  0  0  0  0  0  0  0
    6.5905    0.0406   19.9005 C   0  0  0  0  0  0  0  0  0  0  0  0
    7.1079    0.0062   18.5975 C   0  0  0  0  0  0  0  0  0  0  0  0
    8.0222   -0.5466   18.3927 H   0  0  0  0  0  0  0  0  0  0  0  0
    6.5456    0.6333   17.5651 N   0  0  0  0  0  0  0  0  0  0  0  0
    5.4101    1.3081   17.7976 C   0  0  0  0  0  0  0  0  0  0  0  0
    4.9678    1.8158   16.9417 H   0  0  0  0  0  0  0  0  0  0  0  0
    4.7851    1.3508   19.0481 C   0  0  0  0  0  0  0  0  0  0  0  0
    3.8552    1.8921   19.1629 H   0  0  0  0  0  0  0  0  0  0  0  0
    5.3773    0.6985   20.1289 C   0  0  0  0  0  0  0  0  0  0  0  0
    4.9079    0.6876   21.1154 H   0  0  0  0  0  0  0  0  0  0  0  0
  1  2  1  0
  2  3  2  3
  3  4  1  0
  4  5  1  0
  5  6  2  0
  5  7  1  0
  7  8  1  0
  7  9  1  0
  9 10  2  0
  2 11  1  0
 11 12  1  0
 11 13  1  0
 13 14  2  0
 13 15  1  0
 15 16  1  0
 15 17  1  0
 15 18  1  0
 18 19  2  0
 19 20  1  0
 19 21  1  0
 21 22  2  0
 22 23  1  0
 22 24  1  0
 24 25  1  0
 24 26  2  0
 26 27  1  0
  9  3  1  0
 26 18  1  0
M  END
>  <cnnaffinity>  (1) 
-4.661

>  <filename>  (1) 
O=C1NC(=O)C(=CNC(=O)C(F)(F)c2cccnc2)S1

$$$$
