
     RDKit          3D

 31 33  0  0  0  0  0  0  0  0999 V2000
    4.9613    1.7673   17.0599 H   0  0  0  0  0  0  0  0  0  0  0  0
    5.4348    1.2556   17.8987 C   0  0  0  0  0  0  0  0  0  0  0  0
    6.5924    0.6306   17.6263 N   0  0  0  0  0  0  0  0  0  0  0  0
    7.2030   -0.0048   18.6330 C   0  0  0  0  0  0  0  0  0  0  0  0
    8.1567   -0.4777   18.4134 H   0  0  0  0  0  0  0  0  0  0  0  0
    6.6880   -0.0803   19.9525 C   0  0  0  0  0  0  0  0  0  0  0  0
    7.3913   -0.7617   21.0168 N   0  0  0  0  0  0  0  0  0  0  0  0
    8.7575   -0.6446   21.2463 C   0  0  0  0  0  0  0  0  0  0  0  0
    9.5465   -0.0233   20.5834 O   0  0  0  0  0  0  0  0  0  0  0  0
    9.0295   -1.4784   22.5007 C   0  0  0  0  0  0  0  0  0  0  0  0
   10.0844   -1.6721   23.0464 O   0  0  0  0  0  0  0  0  0  0  0  0
    7.8004   -1.9807   22.8660 N   0  0  0  0  0  0  0  0  0  0  0  0
    7.5554   -2.7712   23.9931 C   0  0  0  0  0  0  0  0  0  0  0  0
    6.3547   -2.6490   24.5338 N   0  0  0  0  0  0  0  0  0  0  0  0
    6.1223   -3.3430   25.6476 C   0  0  0  0  0  0  0  0  0  0  0  0
    5.1436   -3.2365   26.1042 H   0  0  0  0  0  0  0  0  0  0  0  0
    7.0639   -4.1817   26.2413 C   0  0  0  0  0  0  0  0  0  0  0  0
    6.6757   -4.9557   27.4459 C   0  0  0  0  0  0  0  0  0  0  0  0
    6.1660   -6.1591   27.1263 F   0  0  0  0  0  0  0  0  0  0  0  0
    5.7396   -4.3147   28.1698 F   0  0  0  0  0  0  0  0  0  0  0  0
    7.7245   -5.1792   28.2556 F   0  0  0  0  0  0  0  0  0  0  0  0
    8.3314   -4.3142   25.6535 C   0  0  0  0  0  0  0  0  0  0  0  0
    9.1230   -4.9363   26.0832 H   0  0  0  0  0  0  0  0  0  0  0  0
    8.5706   -3.5924   24.4990 C   0  0  0  0  0  0  0  0  0  0  0  0
    9.5296   -3.6181   24.0135 H   0  0  0  0  0  0  0  0  0  0  0  0
    6.8444   -1.7183   21.8911 C   0  0  0  0  0  0  0  0  0  0  0  0
    5.8144   -2.3003   21.7319 O   0  0  0  0  0  0  0  0  0  0  0  0
    5.4777    0.5641   20.2176 C   0  0  0  0  0  0  0  0  0  0  0  0
    5.0567    0.5329   21.2212 H   0  0  0  0  0  0  0  0  0  0  0  0
    4.8498    1.2525   19.1684 C   0  0  0  0  0  0  0  0  0  0  0  0
    3.9239    1.7922   19.3214 H   0  0  0  0  0  0  0  0  0  0  0  0
  1  2  1  0
  2  3  2  0
  3  4  1  0
  4  5  1  0
  4  6  2  0
  6  7  1  0
  7  8  1  0
  8  9  2  0
  8 10  1  0
 10 11  2  0
 10 12  1  0
 12 13  1  0
 13 14  2  0
 14 15  1  0
 15 16  1  0
 15 17  2  0
 17 18  1  0
 18 19  1  0
 18 20  1  0
 18 21  1  0
 17 22  1  0
 22 23  1  0
 22 24  2  0
 24 25  1  0
 12 26  1  0
 26 27  2  0
  6 28  1  0
 28 29  1  0
 28 30  2  0
 30 31  1  0
 30  2  1  0
 26  7  1  0
 24 13  1  0
M  END
>  <cnnaffinity>  (1) 
-5.31772

>  <filename>  (1) 
O=C1C(=O)N(c2ccc(C(F)(F)F)cn2)C(=O)N1c1cccnc1

$$$$
