
     RDKit          3D

 37 39  0  0  0  0  0  0  0  0999 V2000
    4.9232    1.8134   16.9609 H   0  0  0  0  0  0  0  0  0  0  0  0
    5.3838    1.3096   17.8082 C   0  0  0  0  0  0  0  0  0  0  0  0
    6.5466    0.6861   17.5527 N   0  0  0  0  0  0  0  0  0  0  0  0
    7.1462    0.0701   18.5803 C   0  0  0  0  0  0  0  0  0  0  0  0
    8.0971   -0.4172   18.3577 H   0  0  0  0  0  0  0  0  0  0  0  0
    6.6277    0.0084   19.8887 C   0  0  0  0  0  0  0  0  0  0  0  0
    7.3548   -0.7192   20.9643 C   0  0  0  0  0  0  0  0  0  0  0  0
    8.7679   -0.5871   21.1011 C   0  0  0  0  0  0  0  0  0  0  0  0
    9.2814    0.1048   20.4369 H   0  0  0  0  0  0  0  0  0  0  0  0
    9.4742   -1.2440   22.0834 C   0  0  0  0  0  0  0  0  0  0  0  0
   10.9421   -1.0531   22.3123 C   0  0  0  0  0  0  0  0  0  0  0  0
   11.4547   -0.9059   21.3485 H   0  0  0  0  0  0  0  0  0  0  0  0
   11.3719   -1.9582   22.7609 H   0  0  0  0  0  0  0  0  0  0  0  0
   11.2746    0.0902   23.1579 N   0  0  0  0  0  0  0  0  0  0  0  0
   10.8214   -0.0314   24.5482 C   0  0  0  0  0  0  0  0  0  0  0  0
    9.7220   -0.0459   24.6434 H   0  0  0  0  0  0  0  0  0  0  0  0
   11.2027   -0.9606   24.9879 H   0  0  0  0  0  0  0  0  0  0  0  0
   11.3705    1.1372   25.3530 C   0  0  0  0  0  0  0  0  0  0  0  0
   12.4720    1.0551   25.3639 H   0  0  0  0  0  0  0  0  0  0  0  0
   10.9638    1.0982   26.3669 H   0  0  0  0  0  0  0  0  0  0  0  0
   10.9915    2.3986   24.8206 O   0  0  0  0  0  0  0  0  0  0  0  0
   11.4533    2.5356   23.4845 C   0  0  0  0  0  0  0  0  0  0  0  0
   12.5566    2.5343   23.4605 H   0  0  0  0  0  0  0  0  0  0  0  0
   11.0906    3.5085   23.1367 H   0  0  0  0  0  0  0  0  0  0  0  0
   10.9069    1.4087   22.5984 C   0  0  0  0  0  0  0  0  0  0  0  0
   11.3348    1.5216   21.5922 H   0  0  0  0  0  0  0  0  0  0  0  0
    9.8103    1.5411   22.5314 H   0  0  0  0  0  0  0  0  0  0  0  0
    8.7543   -2.0811   23.0406 C   0  0  0  0  0  0  0  0  0  0  0  0
    9.1996   -2.7053   23.9927 O   0  0  0  0  0  0  0  0  0  0  0  0
    7.3913   -2.1825   22.8196 N   0  0  0  0  0  0  0  0  0  0  0  0
    7.0122   -2.7849   23.5371 H   0  0  0  0  0  0  0  0  0  0  0  0
    6.6927   -1.5299   21.8418 C   0  0  0  0  0  0  0  0  0  0  0  0
    5.6249   -1.7014   21.7788 H   0  0  0  0  0  0  0  0  0  0  0  0
    5.4097    0.6646   20.1259 C   0  0  0  0  0  0  0  0  0  0  0  0
    4.9867    0.6728   21.1304 H   0  0  0  0  0  0  0  0  0  0  0  0
    4.7816    1.3291   19.0718 C   0  0  0  0  0  0  0  0  0  0  0  0
    3.8515    1.8664   19.2173 H   0  0  0  0  0  0  0  0  0  0  0  0
  1  2  1  0
  2  3  2  0
  3  4  1  0
  4  5  1  0
  4  6  2  0
  6  7  1  0
  7  8  1  0
  8  9  1  0
  8 10  2  0
 10 11  1  0
 11 12  1  0
 11 13  1  0
 11 14  1  0
 14 15  1  0
 15 16  1  0
 15 17  1  0
 15 18  1  0
 18 19  1  0
 18 20  1  0
 18 21  1  0
 21 22  1  0
 22 23  1  0
 22 24  1  0
 22 25  1  0
 25 26  1  0
 25 27  1  0
 10 28  1  0
 28 29  2  0
 28 30  1  0
 30 31  1  0
 30 32  1  0
 32 33  1  0
  6 34  1  0
 34 35  1  0
 34 36  2  0
 36 37  1  0
 36  2  1  0
 32  7  2  0
 25 14  1  0
M  END
>  <cnnaffinity>  (1) 
-4.71321

>  <filename>  (1) 
O=c1[nH]cc(-c2cccnc2)cc1CN1CCOCC1

$$$$
