
     RDKit          3D

 35 37  0  0  0  0  0  0  0  0999 V2000
    4.9860    1.8110   16.9600 H   0  0  0  0  0  0  0  0  0  0  0  0
    5.4614    1.3144   17.8050 C   0  0  0  0  0  0  0  0  0  0  0  0
    6.6511    0.7341   17.5651 N   0  0  0  0  0  0  0  0  0  0  0  0
    7.2547    0.1160   18.5861 C   0  0  0  0  0  0  0  0  0  0  0  0
    8.2226   -0.3295   18.3831 H   0  0  0  0  0  0  0  0  0  0  0  0
    6.6900    0.0016   19.8707 C   0  0  0  0  0  0  0  0  0  0  0  0
    7.3595   -0.7382   20.9006 N   0  0  0  0  0  0  0  0  0  0  0  0
    8.6833   -0.4162   21.0566 N   0  0  0  0  0  0  0  0  0  0  0  0
    9.3300   -0.9744   22.0327 C   0  0  0  0  0  0  0  0  0  0  0  0
   10.3697   -0.6706   22.1178 H   0  0  0  0  0  0  0  0  0  0  0  0
    8.7728   -1.9538   22.9383 C   0  0  0  0  0  0  0  0  0  0  0  0
    9.6680   -2.5381   24.0283 C   0  0  0  0  0  0  0  0  0  0  0  0
    9.8238   -3.6101   23.8494 H   0  0  0  0  0  0  0  0  0  0  0  0
   10.6651   -2.0893   23.9546 H   0  0  0  0  0  0  0  0  0  0  0  0
    9.1957   -2.4112   25.3937 N   0  0  0  0  0  0  0  0  0  0  0  0
    8.4786   -3.0817   25.6307 H   0  0  0  0  0  0  0  0  0  0  0  0
    8.9310   -1.1772   25.9915 C   0  0  0  0  0  0  0  0  0  0  0  0
    9.4951    0.0251   25.5388 C   0  0  0  0  0  0  0  0  0  0  0  0
   10.1717    0.0029   24.6918 H   0  0  0  0  0  0  0  0  0  0  0  0
    9.1602    1.2324   26.1552 C   0  0  0  0  0  0  0  0  0  0  0  0
    9.6083    2.1574   25.7990 H   0  0  0  0  0  0  0  0  0  0  0  0
    8.2701    1.2586   27.2326 C   0  0  0  0  0  0  0  0  0  0  0  0
    8.0256    2.2019   27.7115 H   0  0  0  0  0  0  0  0  0  0  0  0
    7.7288    0.0596   27.7066 C   0  0  0  0  0  0  0  0  0  0  0  0
    7.0478    0.0686   28.5553 H   0  0  0  0  0  0  0  0  0  0  0  0
    8.0622   -1.1500   27.0971 C   0  0  0  0  0  0  0  0  0  0  0  0
    7.6569   -2.0897   27.4598 H   0  0  0  0  0  0  0  0  0  0  0  0
    7.4678   -2.3165   22.7267 C   0  0  0  0  0  0  0  0  0  0  0  0
    6.9278   -3.0493   23.3146 H   0  0  0  0  0  0  0  0  0  0  0  0
    6.6751   -1.7836   21.6278 C   0  0  0  0  0  0  0  0  0  0  0  0
    5.5658   -2.1776   21.3150 O   0  0  0  0  0  0  0  0  0  0  0  0
    5.4658    0.6310   20.1201 C   0  0  0  0  0  0  0  0  0  0  0  0
    5.0228    0.5940   21.1128 H   0  0  0  0  0  0  0  0  0  0  0  0
    4.8466    1.3052   19.0597 C   0  0  0  0  0  0  0  0  0  0  0  0
    3.9058    1.8269   19.2007 H   0  0  0  0  0  0  0  0  0  0  0  0
  1  2  1  0
  2  3  2  0
  3  4  1  0
  4  5  1  0
  4  6  2  0
  6  7  1  0
  7  8  1  0
  8  9  2  0
  9 10  1  0
  9 11  1  0
 11 12  1  0
 12 13  1  0
 12 14  1  0
 12 15  1  0
 15 16  1  0
 15 17  1  0
 17 18  2  0
 18 19  1  0
 18 20  1  0
 20 21  1  0
 20 22  2  0
 22 23  1  0
 22 24  1  0
 24 25  1  0
 24 26  2  0
 26 27  1  0
 11 28  2  0
 28 29  1  0
 28 30  1  0
 30 31  2  0
  6 32  1  0
 32 33  1  0
 32 34  2  0
 34 35  1  0
 34  2  1  0
 30  7  1  0
 26 17  1  0
M  END
>  <cnnaffinity>  (1) 
-4.97804

>  <filename>  (1) 
O=c1cc(CNc2ccccc2)cnn1-c1cccnc1

$$$$
