
     RDKit          3D

 30 32  0  0  0  0  0  0  0  0999 V2000
    4.9183    1.8126   16.9657 H   0  0  0  0  0  0  0  0  0  0  0  0
    5.3825    1.3165   17.8168 C   0  0  0  0  0  0  0  0  0  0  0  0
    6.5467    0.6975   17.5714 N   0  0  0  0  0  0  0  0  0  0  0  0
    7.1513    0.0832   18.5944 C   0  0  0  0  0  0  0  0  0  0  0  0
    8.1058   -0.3910   18.3722 H   0  0  0  0  0  0  0  0  0  0  0  0
    6.6308    0.0330   19.8987 C   0  0  0  0  0  0  0  0  0  0  0  0
    7.3681   -0.7075   20.9951 C   0  0  2  0  0  0  0  0  0  0  0  0
    6.9758   -0.3685   21.9689 H   0  0  0  0  0  0  0  0  0  0  0  0
    8.7965   -0.5289   20.9068 N   0  0  0  0  0  0  0  0  0  0  0  0
    9.3144    0.2996   21.1348 H   0  0  0  0  0  0  0  0  0  0  0  0
    9.4964   -1.6842   21.0668 C   0  0  0  0  0  0  0  0  0  0  0  0
   10.6747   -1.7968   21.2404 O   0  0  0  0  0  0  0  0  0  0  0  0
    8.6337   -2.7263   21.0111 O   0  0  0  0  0  0  0  0  0  0  0  0
    7.2855   -2.2690   20.8920 C   0  0  1  0  0  0  0  0  0  0  0  0
    6.9045   -2.5432   19.9028 H   0  0  0  0  0  0  0  0  0  0  0  0
    6.4473   -2.9539   21.9406 C   0  0  0  0  0  0  0  0  0  0  0  0
    5.1706   -3.4107   21.6051 C   0  0  0  0  0  0  0  0  0  0  0  0
    4.8478   -3.2948   20.5755 H   0  0  0  0  0  0  0  0  0  0  0  0
    4.3397   -3.9760   22.5782 C   0  0  0  0  0  0  0  0  0  0  0  0
    3.3414   -4.3425   22.3579 H   0  0  0  0  0  0  0  0  0  0  0  0
    4.7996   -4.0594   23.8885 C   0  0  0  0  0  0  0  0  0  0  0  0
    3.9894   -4.5180   24.8520 F   0  0  0  0  0  0  0  0  0  0  0  0
    6.1035   -3.6687   24.2181 C   0  0  0  0  0  0  0  0  0  0  0  0
    6.5656   -3.8727   25.4600 F   0  0  0  0  0  0  0  0  0  0  0  0
    6.9302   -3.1239   23.2485 C   0  0  0  0  0  0  0  0  0  0  0  0
    7.9622   -2.9169   23.5109 H   0  0  0  0  0  0  0  0  0  0  0  0
    5.4093    0.6781   20.1322 C   0  0  0  0  0  0  0  0  0  0  0  0
    4.9666    0.6709   21.1293 H   0  0  0  0  0  0  0  0  0  0  0  0
    4.7722    1.3353   19.0750 C   0  0  0  0  0  0  0  0  0  0  0  0
    3.8324    1.8643   19.2073 H   0  0  0  0  0  0  0  0  0  0  0  0
  1  2  1  0
  2  3  2  0
  3  4  1  0
  4  5  1  0
  4  6  2  0
  6  7  1  0
  7  8  1  1
  7  9  1  0
  9 10  1  0
  9 11  1  0
 11 12  2  0
 11 13  1  0
 13 14  1  0
 14 15  1  6
 14 16  1  0
 16 17  2  0
 17 18  1  0
 17 19  1  0
 19 20  1  0
 19 21  2  0
 21 22  1  0
 21 23  1  0
 23 24  1  0
 23 25  2  0
 25 26  1  0
  6 27  1  0
 27 28  1  0
 27 29  2  0
 29 30  1  0
 29  2  1  0
 14  7  1  0
 25 16  1  0
M  END
>  <cnnaffinity>  (1) 
-4.8051

>  <filename>  (1) 
O=C1N[C@@H](c2cccnc2)[C@H](c2ccc(F)c(F)c2)O1

$$$$
