
     RDKit          3D

 36 38  0  0  0  0  0  0  0  0999 V2000
    6.1965   -2.4801   19.9953 O   0  0  0  0  0  0  0  0  0  0  0  0
    6.7087   -1.7703   20.8406 C   0  0  0  0  0  0  0  0  0  0  0  0
    7.3661   -2.3974   22.1001 C   0  0  0  0  0  0  0  0  0  0  0  0
    7.6272   -1.5134   23.2547 N   0  0  0  0  0  0  0  0  0  0  0  0
    7.9460   -2.0887   24.4698 C   0  0  0  0  0  0  0  0  0  0  0  0
    7.3623   -1.6293   25.6676 C   0  0  0  0  0  0  0  0  0  0  0  0
    7.6114   -2.3198   26.8481 C   0  0  0  0  0  0  0  0  0  0  0  0
    8.4894   -3.4049   26.8026 C   0  0  0  0  0  0  0  0  0  0  0  0
    8.6799   -4.1516   27.8913 F   0  0  0  0  0  0  0  0  0  0  0  0
    9.1376   -3.7162   25.5950 C   0  0  0  0  0  0  0  0  0  0  0  0
   10.2294   -4.8168   25.5776 C   0  0  0  0  0  0  0  0  0  0  0  0
   11.2149   -4.5382   24.7145 F   0  0  0  0  0  0  0  0  0  0  0  0
   10.8061   -4.9845   26.7777 F   0  0  0  0  0  0  0  0  0  0  0  0
    9.7013   -6.0022   25.2297 F   0  0  0  0  0  0  0  0  0  0  0  0
    8.8001   -3.1180   24.4376 N   0  0  0  0  0  0  0  0  0  0  0  0
    7.1187   -2.0285   27.7723 H   0  0  0  0  0  0  0  0  0  0  0  0
    6.6995   -0.7773   25.6113 H   0  0  0  0  0  0  0  0  0  0  0  0
    7.0858   -0.1613   23.1637 C   0  0  0  0  0  0  0  0  0  0  0  0
    7.4158    0.4166   21.7905 C   0  0  0  0  0  0  0  0  0  0  0  0
    6.7861   -0.3863   20.7406 N   0  0  0  0  0  0  0  0  0  0  0  0
    6.2738    0.3086   19.5960 C   0  0  0  0  0  0  0  0  0  0  0  0
    5.1149    1.0840   19.7091 C   0  0  0  0  0  0  0  0  0  0  0  0
    4.6415    1.7538   18.5748 C   0  0  0  0  0  0  0  0  0  0  0  0
    5.3713    1.6530   17.3842 C   0  0  0  0  0  0  0  0  0  0  0  0
    6.5095    0.9460   17.2692 N   0  0  0  0  0  0  0  0  0  0  0  0
    6.9475    0.3051   18.3606 C   0  0  0  0  0  0  0  0  0  0  0  0
    7.8827   -0.2434   18.2686 H   0  0  0  0  0  0  0  0  0  0  0  0
    5.0309    2.1663   16.4874 H   0  0  0  0  0  0  0  0  0  0  0  0
    3.7304    2.3443   18.6091 H   0  0  0  0  0  0  0  0  0  0  0  0
    4.6241    1.1633   20.6803 H   0  0  0  0  0  0  0  0  0  0  0  0
    8.5045    0.4601   21.6462 H   0  0  0  0  0  0  0  0  0  0  0  0
    7.0380    1.4397   21.7270 H   0  0  0  0  0  0  0  0  0  0  0  0
    5.9944   -0.1613   23.2933 H   0  0  0  0  0  0  0  0  0  0  0  0
    7.5076    0.4756   23.9447 H   0  0  0  0  0  0  0  0  0  0  0  0
    8.3008   -2.8529   21.7453 H   0  0  0  0  0  0  0  0  0  0  0  0
    6.7007   -3.2286   22.3710 H   0  0  0  0  0  0  0  0  0  0  0  0
  1  2  2  0
  2  3  1  0
  3  4  1  0
  4  5  1  0
  5  6  2  0
  6  7  1  0
  7  8  2  0
  8  9  1  0
  8 10  1  0
 10 11  1  0
 11 12  1  0
 11 13  1  0
 11 14  1  0
 10 15  2  0
  7 16  1  0
  6 17  1  0
  4 18  1  0
 18 19  1  0
 19 20  1  0
 20 21  1  0
 21 22  2  0
 22 23  1  0
 23 24  2  0
 24 25  1  0
 25 26  2  0
 26 27  1  0
 24 28  1  0
 23 29  1  0
 22 30  1  0
 19 31  1  0
 19 32  1  0
 18 33  1  0
 18 34  1  0
  3 35  1  0
  3 36  1  0
 20  2  1  0
 26 21  1  0
 15  5  1  0
M  END
>  <cnnaffinity>  (1) 
-5.29967

>  <filename>  (1) 
O=C1CN(c2ccc(F)c(C(F)(F)F)n2)CCN1c1cccnc1

$$$$
