
     RDKit          3D

 33 36  0  0  0  0  0  0  0  0999 V2000
    7.3887   -3.8350   20.8697 H   0  0  0  0  0  0  0  0  0  0  0  0
    7.1823   -3.6575   21.9208 C   0  0  0  0  0  0  0  0  0  0  0  0
    6.0334   -4.1461   22.4094 C   0  0  0  0  0  0  0  0  0  0  0  0
    5.3302   -3.8006   23.9826 S   0  0  0  0  0  0  0  0  0  0  0  0
    3.8416   -4.6774   23.6086 C   0  0  0  0  0  0  0  0  0  0  0  0
    2.5477   -4.8664   24.5804 S   0  0  0  0  0  0  0  0  0  0  0  0
    3.9353   -5.1694   22.3401 N   0  0  0  0  0  0  0  0  0  0  0  0
    3.2108   -5.7400   21.9354 H   0  0  0  0  0  0  0  0  0  0  0  0
    5.1155   -5.0245   21.6389 C   0  0  0  0  0  0  0  0  0  0  0  0
    5.3161   -5.5377   20.5644 O   0  0  0  0  0  0  0  0  0  0  0  0
    8.1588   -2.9062   22.7435 C   0  0  2  0  0  0  0  0  0  0  0  0
    8.6050   -3.4876   23.5481 H   0  0  0  0  0  0  0  0  0  0  0  0
    7.9714   -1.4551   23.1349 C   0  0  2  0  0  0  0  0  0  0  0  0
    8.1361   -1.2170   24.1800 H   0  0  0  0  0  0  0  0  0  0  0  0
    6.9243   -0.6660   22.3627 C   0  0  0  0  0  0  0  0  0  0  0  0
    6.7011    0.2875   22.8556 H   0  0  0  0  0  0  0  0  0  0  0  0
    5.9972   -1.2547   22.3007 H   0  0  0  0  0  0  0  0  0  0  0  0
    7.4957   -0.4638   21.0303 N   0  0  0  0  0  0  0  0  0  0  0  0
    6.7654    0.0542   19.9722 C   0  0  0  0  0  0  0  0  0  0  0  0
    7.2305    0.0512   18.6193 C   0  0  0  0  0  0  0  0  0  0  0  0
    8.1612   -0.4532   18.3723 H   0  0  0  0  0  0  0  0  0  0  0  0
    6.6028    0.6317   17.5862 N   0  0  0  0  0  0  0  0  0  0  0  0
    5.4424    1.2562   17.8398 C   0  0  0  0  0  0  0  0  0  0  0  0
    4.9680    1.7588   17.0008 H   0  0  0  0  0  0  0  0  0  0  0  0
    4.8557    1.2735   19.1087 C   0  0  0  0  0  0  0  0  0  0  0  0
    3.9071    1.7759   19.2556 H   0  0  0  0  0  0  0  0  0  0  0  0
    5.5059    0.6608   20.1825 C   0  0  0  0  0  0  0  0  0  0  0  0
    5.0663    0.6496   21.1777 H   0  0  0  0  0  0  0  0  0  0  0  0
    8.7491   -1.1917   20.8414 C   0  0  0  0  0  0  0  0  0  0  0  0
    8.6461   -1.9536   20.0650 H   0  0  0  0  0  0  0  0  0  0  0  0
    9.5457   -0.5047   20.5178 H   0  0  0  0  0  0  0  0  0  0  0  0
    9.0733   -1.8293   22.1833 C   0  0  2  0  0  0  0  0  0  0  0  0
   10.1214   -1.8832   22.4622 H   0  0  0  0  0  0  0  0  0  0  0  0
  1  2  1  0
  2  3  2  3
  3  4  1  0
  4  5  1  0
  5  6  2  0
  5  7  1  0
  7  8  1  0
  7  9  1  0
  9 10  2  0
  2 11  1  0
 11 12  1  1
 11 13  1  0
 13 14  1  1
 13 15  1  0
 15 16  1  0
 15 17  1  0
 15 18  1  0
 18 19  1  0
 19 20  2  0
 20 21  1  0
 20 22  1  0
 22 23  2  0
 23 24  1  0
 23 25  1  0
 25 26  1  0
 25 27  2  0
 27 28  1  0
 18 29  1  0
 29 30  1  0
 29 31  1  0
 29 32  1  0
 32 33  1  1
  9  3  1  0
 32 11  1  0
 32 13  1  0
 27 19  1  0
M  END
>  <cnnaffinity>  (1) 
-5.25081

>  <filename>  (1) 
O=C1NC(=S)SC1=C[C@H]1[C@H]2CN(c3cccnc3)C[C@@H]12

$$$$
