
     RDKit          3D

 21 22  0  0  0  0  0  0  0  0999 V2000
    4.9242    1.8268   16.9666 H   0  0  0  0  0  0  0  0  0  0  0  0
    5.3907    1.3114   17.8046 C   0  0  0  0  0  0  0  0  0  0  0  0
    6.5480    0.6739   17.5572 N   0  0  0  0  0  0  0  0  0  0  0  0
    7.1325    0.0484   18.5861 C   0  0  0  0  0  0  0  0  0  0  0  0
    8.0691   -0.4659   18.3618 H   0  0  0  0  0  0  0  0  0  0  0  0
    6.6104    0.0109   19.8948 C   0  0  0  0  0  0  0  0  0  0  0  0
    7.3573   -0.6843   20.9374 C   0  0  0  0  0  0  0  0  0  0  0  0
    8.6775   -0.9493   20.9681 C   0  0  0  0  0  0  0  0  0  0  0  0
    9.4840   -0.7001   20.3007 H   0  0  0  0  0  0  0  0  0  0  0  0
    8.9631   -1.6422   22.1284 N   0  0  0  0  0  0  0  0  0  0  0  0
   10.3017   -2.0166   22.4222 N   0  0  0  0  0  0  0  0  0  0  0  0
   11.3966   -1.8419   21.9086 C   0  0  0  0  0  0  0  0  0  0  0  0
   12.9367   -1.8015   21.5425 S   0  0  0  0  0  0  0  0  0  0  0  0
    7.7713   -1.8319   22.8885 C   0  0  0  0  0  0  0  0  0  0  0  0
    7.5755   -2.3917   23.9430 O   0  0  0  0  0  0  0  0  0  0  0  0
    6.8174   -1.2065   22.1057 N   0  0  0  0  0  0  0  0  0  0  0  0
    5.8509   -1.2485   22.3867 H   0  0  0  0  0  0  0  0  0  0  0  0
    5.3967    0.6792   20.1236 C   0  0  0  0  0  0  0  0  0  0  0  0
    4.9552    0.7075   21.1192 H   0  0  0  0  0  0  0  0  0  0  0  0
    4.7790    1.3380   19.0619 C   0  0  0  0  0  0  0  0  0  0  0  0
    3.8432    1.8738   19.1942 H   0  0  0  0  0  0  0  0  0  0  0  0
  1  2  1  0
  2  3  2  0
  3  4  1  0
  4  5  1  0
  4  6  2  0
  6  7  1  0
  7  8  2  0
  8  9  1  0
  8 10  1  0
 10 11  1  0
 11 12  2  0
 12 13  2  0
 10 14  1  0
 14 15  2  0
 14 16  1  0
 16 17  1  0
  6 18  1  0
 18 19  1  0
 18 20  2  0
 20 21  1  0
 20  2  1  0
 16  7  1  0
M  END
>  <cnnaffinity>  (1) 
-5.13951

>  <filename>  (1) 
O=c1[nH]c(-c2cccnc2)cn1N=C=S

$$$$
