
     RDKit          3D

 29 31  0  0  0  0  0  0  0  0999 V2000
    4.9721    1.8088   16.9499 H   0  0  0  0  0  0  0  0  0  0  0  0
    5.4401    1.3206   17.7991 C   0  0  0  0  0  0  0  0  0  0  0  0
    6.6327    0.7439   17.5604 N   0  0  0  0  0  0  0  0  0  0  0  0
    7.2155    0.1148   18.5824 C   0  0  0  0  0  0  0  0  0  0  0  0
    8.2049   -0.3125   18.4358 H   0  0  0  0  0  0  0  0  0  0  0  0
    6.6070   -0.0290   19.8411 C   0  0  0  0  0  0  0  0  0  0  0  0
    7.3021   -0.7462   20.8448 N   0  0  0  0  0  0  0  0  0  0  0  0
    8.6208   -0.3640   20.9368 N   0  0  0  0  0  0  0  0  0  0  0  0
    9.3131   -0.8227   21.9495 C   0  0  0  0  0  0  0  0  0  0  0  0
   10.5766   -0.3298   22.0264 N   0  0  0  0  0  0  0  0  0  0  0  0
   10.7825    0.2531   21.2334 H   0  0  0  0  0  0  0  0  0  0  0  0
   11.5536   -0.7209   22.9645 C   0  0  0  0  0  0  0  0  0  0  0  0
   11.9247   -1.7452   22.8397 H   0  0  0  0  0  0  0  0  0  0  0  0
   12.4986    0.3449   23.4250 C   0  0  0  0  0  0  0  0  0  0  0  0
   12.4302    1.3151   22.9444 H   0  0  0  0  0  0  0  0  0  0  0  0
   13.5042    0.0389   23.6892 H   0  0  0  0  0  0  0  0  0  0  0  0
   11.3860   -0.0963   24.3300 C   0  0  0  0  0  0  0  0  0  0  0  0
   11.6304   -0.6756   25.2120 H   0  0  0  0  0  0  0  0  0  0  0  0
   10.5258    0.5619   24.4280 H   0  0  0  0  0  0  0  0  0  0  0  0
    8.7894   -1.7941   22.8751 C   0  0  0  0  0  0  0  0  0  0  0  0
    9.4440   -2.1676   23.6572 H   0  0  0  0  0  0  0  0  0  0  0  0
    7.5174   -2.2420   22.7120 C   0  0  0  0  0  0  0  0  0  0  0  0
    7.0486   -2.9799   23.3515 H   0  0  0  0  0  0  0  0  0  0  0  0
    6.6569   -1.7605   21.6313 C   0  0  0  0  0  0  0  0  0  0  0  0
    5.5351   -2.1745   21.3983 O   0  0  0  0  0  0  0  0  0  0  0  0
    5.4011    0.6188   20.1079 C   0  0  0  0  0  0  0  0  0  0  0  0
    4.9756    0.6003   21.1109 H   0  0  0  0  0  0  0  0  0  0  0  0
    4.8078    1.3102   19.0474 C   0  0  0  0  0  0  0  0  0  0  0  0
    3.8738    1.8431   19.1857 H   0  0  0  0  0  0  0  0  0  0  0  0
  1  2  1  0
  2  3  2  0
  3  4  1  0
  4  5  1  0
  4  6  2  0
  6  7  1  0
  7  8  1  0
  8  9  2  0
  9 10  1  0
 10 11  1  0
 10 12  1  0
 12 13  1  0
 12 14  1  0
 14 15  1  0
 14 16  1  0
 14 17  1  0
 17 18  1  0
 17 19  1  0
  9 20  1  0
 20 21  1  0
 20 22  2  0
 22 23  1  0
 22 24  1  0
 24 25  2  0
  6 26  1  0
 26 27  1  0
 26 28  2  0
 28 29  1  0
 28  2  1  0
 24  7  1  0
 17 12  1  0
M  END
>  <cnnaffinity>  (1) 
-4.53425

>  <filename>  (1) 
O=c1ccc(NC2CC2)nn1-c1cccnc1

$$$$
