
     RDKit          3D

 26 28  0  0  0  0  0  0  0  0999 V2000
    5.0470    1.9042   17.0183 H   0  0  0  0  0  0  0  0  0  0  0  0
    5.5275    1.3115   17.7939 C   0  0  0  0  0  0  0  0  0  0  0  0
    6.6793    0.7130   17.4527 N   0  0  0  0  0  0  0  0  0  0  0  0
    7.3105    0.0081   18.4022 C   0  0  0  0  0  0  0  0  0  0  0  0
    8.2453   -0.4561   18.0923 H   0  0  0  0  0  0  0  0  0  0  0  0
    6.8295   -0.1605   19.7237 C   0  0  0  0  0  0  0  0  0  0  0  0
    7.5767   -0.8504   20.8106 C   0  0  0  0  0  0  0  0  0  0  0  0
    8.8598   -0.6490   21.1670 C   0  0  0  0  0  0  0  0  0  0  0  0
    9.5721    0.0300   20.7068 H   0  0  0  0  0  0  0  0  0  0  0  0
    9.2288   -1.3778   22.2950 N   0  0  0  0  0  0  0  0  0  0  0  0
   10.0965   -1.9048   22.1743 H   0  0  0  0  0  0  0  0  0  0  0  0
    8.1122   -2.2244   22.5687 N   0  0  0  0  0  0  0  0  0  0  0  0
    7.9103   -2.7316   23.8759 N   0  0  0  0  0  0  0  0  0  0  0  0
    6.6974   -2.8790   24.4444 N   0  0  0  0  0  0  0  0  0  0  0  0
    6.9488   -3.4903   25.5931 C   0  0  0  0  0  0  0  0  0  0  0  0
    6.1459   -3.7380   26.2736 H   0  0  0  0  0  0  0  0  0  0  0  0
    8.3226   -3.7607   25.7665 C   0  0  0  0  0  0  0  0  0  0  0  0
    8.7959   -4.2622   26.5976 H   0  0  0  0  0  0  0  0  0  0  0  0
    8.9050   -3.2568   24.6380 C   0  0  0  0  0  0  0  0  0  0  0  0
    9.9244   -3.1973   24.2935 H   0  0  0  0  0  0  0  0  0  0  0  0
    7.0211   -1.8845   21.7283 C   0  0  0  0  0  0  0  0  0  0  0  0
    5.9214   -2.3835   21.7505 O   0  0  0  0  0  0  0  0  0  0  0  0
    5.5952    0.4261   20.0242 C   0  0  0  0  0  0  0  0  0  0  0  0
    5.1721    0.2694   21.0142 H   0  0  0  0  0  0  0  0  0  0  0  0
    4.9541    1.2025   19.0612 C   0  0  0  0  0  0  0  0  0  0  0  0
    4.0334    1.7245   19.2814 H   0  0  0  0  0  0  0  0  0  0  0  0
  1  2  1  0
  2  3  2  0
  3  4  1  0
  4  5  1  0
  4  6  2  0
  6  7  1  0
  7  8  2  0
  8  9  1  0
  8 10  1  0
 10 11  1  0
 10 12  1  0
 12 13  1  0
 13 14  1  0
 14 15  2  0
 15 16  1  0
 15 17  1  0
 17 18  1  0
 17 19  2  0
 19 20  1  0
 12 21  1  0
 21 22  2  0
  6 23  1  0
 23 24  1  0
 23 25  2  0
 25 26  1  0
 25  2  1  0
 21  7  1  0
 19 13  1  0
M  END
>  <cnnaffinity>  (1) 
-4.48506

>  <filename>  (1) 
O=c1c(-c2cccnc2)c[nH]n1-n1cccn1

$$$$
