
     RDKit          3D

 33 35  0  0  0  0  0  0  0  0999 V2000
    4.9144    1.7912   16.9841 H   0  0  0  0  0  0  0  0  0  0  0  0
    5.3938    1.2997   17.8241 C   0  0  0  0  0  0  0  0  0  0  0  0
    6.5531    0.6818   17.5577 N   0  0  0  0  0  0  0  0  0  0  0  0
    7.1689    0.0783   18.5792 C   0  0  0  0  0  0  0  0  0  0  0  0
    8.1069   -0.4242   18.3472 H   0  0  0  0  0  0  0  0  0  0  0  0
    6.6639    0.0301   19.8907 C   0  0  0  0  0  0  0  0  0  0  0  0
    7.3926   -0.6878   20.9639 C   0  0  0  0  0  0  0  0  0  0  0  0
    6.6973   -1.5394   21.8689 C   0  0  0  0  0  0  0  0  0  0  0  0
    5.6252   -1.6687   21.7305 H   0  0  0  0  0  0  0  0  0  0  0  0
    7.3430   -2.2177   22.8795 C   0  0  0  0  0  0  0  0  0  0  0  0
    6.6138   -3.0540   23.7667 C   0  0  0  0  0  0  0  0  0  0  0  0
    6.0255   -3.7729   24.5413 C   0  0  0  0  0  0  0  0  0  0  0  0
    5.3136   -4.6222   25.4456 C   0  0  0  0  0  0  0  0  0  0  0  0
    3.9141   -4.7362   25.3467 C   0  0  0  0  0  0  0  0  0  0  0  0
    3.3848   -4.1727   24.5825 H   0  0  0  0  0  0  0  0  0  0  0  0
    3.2163   -5.5660   26.2273 C   0  0  0  0  0  0  0  0  0  0  0  0
    2.1356   -5.6491   26.1472 H   0  0  0  0  0  0  0  0  0  0  0  0
    3.9083   -6.2852   27.2087 C   0  0  0  0  0  0  0  0  0  0  0  0
    3.3646   -6.9305   27.8936 H   0  0  0  0  0  0  0  0  0  0  0  0
    5.3000   -6.1763   27.3119 C   0  0  0  0  0  0  0  0  0  0  0  0
    5.8392   -6.7349   28.0733 H   0  0  0  0  0  0  0  0  0  0  0  0
    6.0040   -5.3478   26.4346 C   0  0  0  0  0  0  0  0  0  0  0  0
    7.0852   -5.2563   26.5082 H   0  0  0  0  0  0  0  0  0  0  0  0
    8.8047   -2.0673   23.0569 C   0  0  0  0  0  0  0  0  0  0  0  0
    9.5691   -2.5590   23.8648 O   0  0  0  0  0  0  0  0  0  0  0  0
    9.3855   -1.2058   22.1095 N   0  0  0  0  0  0  0  0  0  0  0  0
   10.3764   -1.1625   22.2850 H   0  0  0  0  0  0  0  0  0  0  0  0
    8.7465   -0.5488   21.1110 C   0  0  0  0  0  0  0  0  0  0  0  0
    9.3320    0.0972   20.4555 H   0  0  0  0  0  0  0  0  0  0  0  0
    5.4378    0.6598   20.1439 C   0  0  0  0  0  0  0  0  0  0  0  0
    5.0162    0.6440   21.1512 H   0  0  0  0  0  0  0  0  0  0  0  0
    4.8040    1.3186   19.0928 C   0  0  0  0  0  0  0  0  0  0  0  0
    3.8713    1.8448   19.2502 H   0  0  0  0  0  0  0  0  0  0  0  0
  1  2  1  0
  2  3  2  0
  3  4  1  0
  4  5  1  0
  4  6  2  0
  6  7  1  0
  7  8  1  0
  8  9  1  0
  8 10  2  0
 10 11  1  0
 11 12  3  0
 12 13  1  0
 13 14  2  0
 14 15  1  0
 14 16  1  0
 16 17  1  0
 16 18  2  0
 18 19  1  0
 18 20  1  0
 20 21  1  0
 20 22  2  0
 22 23  1  0
 10 24  1  0
 24 25  2  0
 24 26  1  0
 26 27  1  0
 26 28  1  0
 28 29  1  0
  6 30  1  0
 30 31  1  0
 30 32  2  0
 32 33  1  0
 32  2  1  0
 28  7  2  0
 22 13  1  0
M  END
>  <cnnaffinity>  (1) 
-5.07934

>  <filename>  (1) 
O=c1[nH]cc(-c2cccnc2)cc1C#Cc1ccccc1

$$$$
