
     RDKit          3D

 27 29  0  0  0  0  0  0  0  0999 V2000
    4.9219    1.7973   16.9838 H   0  0  0  0  0  0  0  0  0  0  0  0
    5.3943    1.2970   17.8300 C   0  0  0  0  0  0  0  0  0  0  0  0
    6.5570    0.6781   17.5735 N   0  0  0  0  0  0  0  0  0  0  0  0
    7.1688    0.0676   18.5953 C   0  0  0  0  0  0  0  0  0  0  0  0
    8.1097   -0.4201   18.3469 H   0  0  0  0  0  0  0  0  0  0  0  0
    6.6633    0.0008   19.9106 C   0  0  0  0  0  0  0  0  0  0  0  0
    7.4116   -0.7004   20.9875 C   0  0  0  0  0  0  0  0  0  0  0  0
    6.7352   -1.5603   21.9446 C   0  0  0  0  0  0  0  0  0  0  0  0
    5.6666   -1.7288   21.8744 H   0  0  0  0  0  0  0  0  0  0  0  0
    7.3304   -2.2069   22.8935 N   0  0  0  0  0  0  0  0  0  0  0  0
    8.7007   -2.0773   23.0010 N   0  0  0  0  0  0  0  0  0  0  0  0
    9.2917   -2.8301   24.0180 C   0  0  0  0  0  0  0  0  0  0  0  0
    8.4290   -3.1619   25.4958 S   0  0  0  0  0  0  0  0  0  0  0  0
    9.7940   -4.0717   26.0629 C   0  0  0  0  0  0  0  0  0  0  0  0
    9.7851   -4.8289   27.6012 Cl  0  0  0  0  0  0  0  0  0  0  0  0
   10.8168   -4.1318   25.1678 C   0  0  0  0  0  0  0  0  0  0  0  0
   11.7234   -4.6894   25.3618 H   0  0  0  0  0  0  0  0  0  0  0  0
   10.5386   -3.3906   23.9932 C   0  0  0  0  0  0  0  0  0  0  0  0
   11.2204   -3.2267   23.1704 H   0  0  0  0  0  0  0  0  0  0  0  0
    9.5183   -1.2281   22.1562 C   0  0  0  0  0  0  0  0  0  0  0  0
   10.7171   -1.1020   22.3235 O   0  0  0  0  0  0  0  0  0  0  0  0
    8.7626   -0.5633   21.1149 C   0  0  0  0  0  0  0  0  0  0  0  0
    9.3502    0.0756   20.4707 H   0  0  0  0  0  0  0  0  0  0  0  0
    5.4383    0.6436   20.1494 C   0  0  0  0  0  0  0  0  0  0  0  0
    5.0129    0.6427   21.1534 H   0  0  0  0  0  0  0  0  0  0  0  0
    4.8038    1.3082   19.0976 C   0  0  0  0  0  0  0  0  0  0  0  0
    3.8738    1.8436   19.2436 H   0  0  0  0  0  0  0  0  0  0  0  0
  1  2  1  0
  2  3  2  0
  3  4  1  0
  4  5  1  0
  4  6  2  0
  6  7  1  0
  7  8  1  0
  8  9  1  0
  8 10  2  0
 10 11  1  0
 11 12  1  0
 12 13  1  0
 13 14  1  0
 14 15  1  0
 14 16  2  0
 16 17  1  0
 16 18  1  0
 18 19  1  0
 11 20  1  0
 20 21  2  0
 20 22  1  0
 22 23  1  0
  6 24  1  0
 24 25  1  0
 24 26  2  0
 26 27  1  0
 26  2  1  0
 22  7  2  0
 18 12  2  0
M  END
>  <cnnaffinity>  (1) 
-5.07977

>  <filename>  (1) 
O=c1cc(-c2cccnc2)cnn1-c1ccc(Cl)s1

$$$$
