
     RDKit          3D

 33 35  0  0  0  0  0  0  0  0999 V2000
    4.9473    1.7651   16.9567 H   0  0  0  0  0  0  0  0  0  0  0  0
    5.4020    1.3114   17.8372 C   0  0  0  0  0  0  0  0  0  0  0  0
    6.5864    0.7087   17.6479 N   0  0  0  0  0  0  0  0  0  0  0  0
    7.1635    0.1584   18.7201 C   0  0  0  0  0  0  0  0  0  0  0  0
    8.1216   -0.3149   18.5238 H   0  0  0  0  0  0  0  0  0  0  0  0
    6.6327    0.1702   20.0245 C   0  0  0  0  0  0  0  0  0  0  0  0
    7.3799   -0.5154   21.1219 C   0  0  0  0  0  0  0  0  0  0  0  0
    7.2170   -0.0536   22.4072 N   0  0  0  0  0  0  0  0  0  0  0  0
    7.8553   -0.6592   23.3865 C   0  0  0  0  0  0  0  0  0  0  0  0
    7.7317   -0.1056   24.7694 C   0  0  0  0  0  0  0  0  0  0  0  0
    8.6257   -0.3385   25.3567 H   0  0  0  0  0  0  0  0  0  0  0  0
    7.6423    0.9881   24.7186 H   0  0  0  0  0  0  0  0  0  0  0  0
    6.5197   -0.7247   25.4414 C   0  0  0  0  0  0  0  0  0  0  0  0
    6.6493   -1.9250   26.1629 C   0  0  0  0  0  0  0  0  0  0  0  0
    7.6287   -2.3951   26.2300 H   0  0  0  0  0  0  0  0  0  0  0  0
    5.5389   -2.5337   26.7543 C   0  0  0  0  0  0  0  0  0  0  0  0
    5.6560   -3.4481   27.3290 H   0  0  0  0  0  0  0  0  0  0  0  0
    4.2683   -1.9736   26.5879 C   0  0  0  0  0  0  0  0  0  0  0  0
    3.3968   -2.4442   27.0338 H   0  0  0  0  0  0  0  0  0  0  0  0
    4.1076   -0.8101   25.8353 C   0  0  0  0  0  0  0  0  0  0  0  0
    3.1303   -0.3785   25.6526 H   0  0  0  0  0  0  0  0  0  0  0  0
    5.2298   -0.1993   25.2715 C   0  0  0  0  0  0  0  0  0  0  0  0
    4.9730    1.2271   24.3029 Cl  0  0  0  0  0  0  0  0  0  0  0  0
    8.6279   -1.9361   23.1984 C   0  0  0  0  0  0  0  0  0  0  0  0
    9.1681   -2.6420   24.0394 O   0  0  0  0  0  0  0  0  0  0  0  0
    8.7339   -2.3167   21.8721 N   0  0  0  0  0  0  0  0  0  0  0  0
    9.3027   -3.1484   21.7828 H   0  0  0  0  0  0  0  0  0  0  0  0
    8.1840   -1.5857   20.8404 C   0  0  0  0  0  0  0  0  0  0  0  0
    8.4461   -1.8696   19.8353 H   0  0  0  0  0  0  0  0  0  0  0  0
    5.3862    0.7960   20.1984 C   0  0  0  0  0  0  0  0  0  0  0  0
    4.9273    0.8336   21.1916 H   0  0  0  0  0  0  0  0  0  0  0  0
    4.7614    1.3624   19.0818 C   0  0  0  0  0  0  0  0  0  0  0  0
    3.7919    1.8452   19.1571 H   0  0  0  0  0  0  0  0  0  0  0  0
  1  2  1  0
  2  3  2  0
  3  4  1  0
  4  5  1  0
  4  6  2  0
  6  7  1  0
  7  8  1  0
  8  9  2  0
  9 10  1  0
 10 11  1  0
 10 12  1  0
 10 13  1  0
 13 14  2  0
 14 15  1  0
 14 16  1  0
 16 17  1  0
 16 18  2  0
 18 19  1  0
 18 20  1  0
 20 21  1  0
 20 22  2  0
 22 23  1  0
  9 24  1  0
 24 25  2  0
 24 26  1  0
 26 27  1  0
 26 28  1  0
 28 29  1  0
  6 30  1  0
 30 31  1  0
 30 32  2  0
 32 33  1  0
 32  2  1  0
 28  7  2  0
 22 13  1  0
M  END
>  <cnnaffinity>  (1) 
-5.05426

>  <filename>  (1) 
O=c1[nH]cc(-c2cccnc2)nc1Cc1ccccc1Cl

$$$$
