
     RDKit          3D

 40 42  0  0  0  0  0  0  0  0999 V2000
    5.5587   -1.9991   21.2407 O   0  0  0  0  0  0  0  0  0  0  0  0
    6.6494   -1.6059   21.6617 C   0  0  0  0  0  0  0  0  0  0  0  0
    7.1850   -2.0851   23.0677 C   0  0  0  0  0  0  0  0  0  0  0  0
    6.7947   -3.4676   23.5393 N   0  0  0  0  0  0  0  0  0  0  0  0
    7.2140   -4.0259   25.1039 S   0  0  0  0  0  0  0  0  0  0  0  0
    6.3227   -5.1750   25.3130 O   0  0  0  0  0  0  0  0  0  0  0  0
    8.6369   -4.3808   25.1199 O   0  0  0  0  0  0  0  0  0  0  0  0
    6.7858   -2.6084   26.1692 C   0  0  0  0  0  0  0  0  0  0  0  0
    5.4504   -2.1886   26.3486 C   0  0  0  0  0  0  0  0  0  0  0  0
    5.1643   -1.1253   27.2089 C   0  0  0  0  0  0  0  0  0  0  0  0
    6.1909   -0.4554   27.8759 C   0  0  0  0  0  0  0  0  0  0  0  0
    5.7919    0.9557   29.1003 Br  0  0  0  0  0  0  0  0  0  0  0  0
    7.5132   -0.8427   27.6620 C   0  0  0  0  0  0  0  0  0  0  0  0
    7.8150   -1.9188   26.8321 C   0  0  0  0  0  0  0  0  0  0  0  0
    8.8607   -2.2026   26.7271 H   0  0  0  0  0  0  0  0  0  0  0  0
    8.3146   -0.3303   28.1844 H   0  0  0  0  0  0  0  0  0  0  0  0
    4.1370   -0.8261   27.3835 H   0  0  0  0  0  0  0  0  0  0  0  0
    4.6111   -2.6672   25.8459 H   0  0  0  0  0  0  0  0  0  0  0  0
    5.7971   -3.6372   23.4881 H   0  0  0  0  0  0  0  0  0  0  0  0
    8.7252   -1.9951   23.1112 C   0  0  0  0  0  0  0  0  0  0  0  0
    9.2003   -0.6355   22.5549 C   0  0  0  0  0  0  0  0  0  0  0  0
    8.7845   -0.4760   21.0867 C   0  0  0  0  0  0  0  0  0  0  0  0
    7.3423   -0.6397   20.9216 N   0  0  0  0  0  0  0  0  0  0  0  0
    6.6900    0.0362   19.8733 C   0  0  0  0  0  0  0  0  0  0  0  0
    5.4629    0.6429   20.1284 C   0  0  0  0  0  0  0  0  0  0  0  0
    4.8200    1.2970   19.0798 C   0  0  0  0  0  0  0  0  0  0  0  0
    5.3967    1.3061   17.8051 C   0  0  0  0  0  0  0  0  0  0  0  0
    6.5735    0.7032   17.5385 N   0  0  0  0  0  0  0  0  0  0  0  0
    7.2045    0.0921   18.5625 C   0  0  0  0  0  0  0  0  0  0  0  0
    8.1470   -0.4161   18.3757 H   0  0  0  0  0  0  0  0  0  0  0  0
    4.8803    1.8253   17.0063 H   0  0  0  0  0  0  0  0  0  0  0  0
    3.8817    1.8142   19.2455 H   0  0  0  0  0  0  0  0  0  0  0  0
    5.0362    0.6066   21.1264 H   0  0  0  0  0  0  0  0  0  0  0  0
    9.3096   -1.2185   20.4714 H   0  0  0  0  0  0  0  0  0  0  0  0
    9.0799    0.5249   20.7435 H   0  0  0  0  0  0  0  0  0  0  0  0
    8.7691    0.1818   23.1486 H   0  0  0  0  0  0  0  0  0  0  0  0
   10.2923   -0.5614   22.6250 H   0  0  0  0  0  0  0  0  0  0  0  0
    9.1700   -2.8100   22.5248 H   0  0  0  0  0  0  0  0  0  0  0  0
    9.0697   -2.1136   24.1472 H   0  0  0  0  0  0  0  0  0  0  0  0
    6.8001   -1.3243   23.7645 H   0  0  0  0  0  0  0  0  0  0  0  0
  1  2  2  0
  2  3  1  0
  3  4  1  0
  4  5  1  0
  5  6  2  0
  5  7  2  0
  5  8  1  0
  8  9  2  0
  9 10  1  0
 10 11  2  0
 11 12  1  0
 11 13  1  0
 13 14  2  0
 14 15  1  0
 13 16  1  0
 10 17  1  0
  9 18  1  0
  4 19  1  0
  3 20  1  0
 20 21  1  0
 21 22  1  0
 22 23  1  0
 23 24  1  0
 24 25  2  0
 25 26  1  0
 26 27  2  0
 27 28  1  0
 28 29  2  0
 29 30  1  0
 27 31  1  0
 26 32  1  0
 25 33  1  0
 22 34  1  0
 22 35  1  0
 21 36  1  0
 21 37  1  0
 20 38  1  0
 20 39  1  0
  3 40  1  0
 23  2  1  0
 29 24  1  0
 14  8  1  0
M  END
>  <cnnaffinity>  (1) 
-5.71875

>  <filename>  (1) 
O=C1C(NS(=O)(=O)c2ccc(Br)cc2)CCCN1c1cccnc1

$$$$
