
     RDKit          3D

 35 37  0  0  0  0  0  0  0  0999 V2000
    4.9212    1.8269   16.9698 H   0  0  0  0  0  0  0  0  0  0  0  0
    5.3910    1.3137   17.8070 C   0  0  0  0  0  0  0  0  0  0  0  0
    6.5471    0.6862   17.5412 N   0  0  0  0  0  0  0  0  0  0  0  0
    7.1594    0.0635   18.5587 C   0  0  0  0  0  0  0  0  0  0  0  0
    8.0963   -0.4273   18.2977 H   0  0  0  0  0  0  0  0  0  0  0  0
    6.6641    0.0016   19.8807 C   0  0  0  0  0  0  0  0  0  0  0  0
    7.4120   -0.7089   20.9743 C   0  0  0  0  0  0  0  0  0  0  0  0
    6.7266   -1.5847   21.8946 C   0  0  0  0  0  0  0  0  0  0  0  0
    5.6512   -1.7249   21.7942 H   0  0  0  0  0  0  0  0  0  0  0  0
    7.3790   -2.2840   22.8948 C   0  0  0  0  0  0  0  0  0  0  0  0
    6.7286   -3.1968   23.7234 N   0  0  0  0  0  0  0  0  0  0  0  0
    7.2419   -3.5412   24.5276 H   0  0  0  0  0  0  0  0  0  0  0  0
    5.2903   -3.3859   23.7903 C   0  0  0  0  0  0  0  0  0  0  0  0
    4.7955   -2.4600   24.0634 H   0  0  0  0  0  0  0  0  0  0  0  0
    4.8924   -3.6974   22.8173 H   0  0  0  0  0  0  0  0  0  0  0  0
    4.8838   -4.3607   24.8781 C   0  0  0  0  0  0  0  0  0  0  0  0
    4.4981   -3.8623   26.1306 C   0  0  0  0  0  0  0  0  0  0  0  0
    4.4783   -2.7902   26.3120 H   0  0  0  0  0  0  0  0  0  0  0  0
    4.1137   -4.7509   27.1327 C   0  0  0  0  0  0  0  0  0  0  0  0
    3.8068   -4.3685   28.1043 H   0  0  0  0  0  0  0  0  0  0  0  0
    4.0702   -6.0790   26.9609 N   0  0  0  0  0  0  0  0  0  0  0  0
    4.4322   -6.5540   25.7634 C   0  0  0  0  0  0  0  0  0  0  0  0
    4.3769   -7.6344   25.6479 H   0  0  0  0  0  0  0  0  0  0  0  0
    4.8332   -5.7479   24.6922 C   0  0  0  0  0  0  0  0  0  0  0  0
    5.0761   -6.1998   23.7349 H   0  0  0  0  0  0  0  0  0  0  0  0
    8.8660   -2.0643   23.0519 C   0  0  0  0  0  0  0  0  0  0  0  0
    9.6364   -2.5447   23.8708 O   0  0  0  0  0  0  0  0  0  0  0  0
    9.4280   -1.1910   22.1222 N   0  0  0  0  0  0  0  0  0  0  0  0
   10.4199   -1.1616   22.3200 H   0  0  0  0  0  0  0  0  0  0  0  0
    8.7657   -0.5373   21.1124 C   0  0  0  0  0  0  0  0  0  0  0  0
    9.3466    0.1172   20.4604 H   0  0  0  0  0  0  0  0  0  0  0  0
    5.4394    0.6525   20.1188 C   0  0  0  0  0  0  0  0  0  0  0  0
    5.0156    0.6529   21.1233 H   0  0  0  0  0  0  0  0  0  0  0  0
    4.7958    1.3224   19.0728 C   0  0  0  0  0  0  0  0  0  0  0  0
    3.8585    1.8524   19.2220 H   0  0  0  0  0  0  0  0  0  0  0  0
  1  2  1  0
  2  3  2  0
  3  4  1  0
  4  5  1  0
  4  6  2  0
  6  7  1  0
  7  8  1  0
  8  9  1  0
  8 10  2  0
 10 11  1  0
 11 12  1  0
 11 13  1  0
 13 14  1  0
 13 15  1  0
 13 16  1  0
 16 17  2  0
 17 18  1  0
 17 19  1  0
 19 20  1  0
 19 21  2  0
 21 22  1  0
 22 23  1  0
 22 24  2  0
 24 25  1  0
 10 26  1  0
 26 27  2  0
 26 28  1  0
 28 29  1  0
 28 30  1  0
 30 31  1  0
  6 32  1  0
 32 33  1  0
 32 34  2  0
 34 35  1  0
 34  2  1  0
 30  7  2  0
 24 16  1  0
M  END
>  <cnnaffinity>  (1) 
-5.01012

>  <filename>  (1) 
O=c1[nH]cc(-c2cccnc2)cc1NCc1ccncc1

$$$$
