
     RDKit          3D

 34 36  0  0  0  0  0  0  0  0999 V2000
    7.8573   -4.3630   20.6394 H   0  0  0  0  0  0  0  0  0  0  0  0
    7.8631   -4.1269   21.6966 C   0  0  0  0  0  0  0  0  0  0  0  0
    7.8960   -5.1485   22.5687 C   0  0  0  0  0  0  0  0  0  0  0  0
    8.2776   -6.1015   22.1968 H   0  0  0  0  0  0  0  0  0  0  0  0
    7.4497   -5.1953   23.9846 C   0  0  0  0  0  0  0  0  0  0  0  0
    6.2331   -4.6368   24.4211 C   0  0  0  0  0  0  0  0  0  0  0  0
    5.5914   -4.1259   23.7070 H   0  0  0  0  0  0  0  0  0  0  0  0
    5.8265   -4.7611   25.7568 C   0  0  0  0  0  0  0  0  0  0  0  0
    4.8789   -4.3329   26.0838 H   0  0  0  0  0  0  0  0  0  0  0  0
    6.6354   -5.4414   26.6747 C   0  0  0  0  0  0  0  0  0  0  0  0
    6.3354   -5.5108   27.7190 H   0  0  0  0  0  0  0  0  0  0  0  0
    7.8349   -6.0293   26.2504 C   0  0  0  0  0  0  0  0  0  0  0  0
    8.4477   -6.5886   26.9580 H   0  0  0  0  0  0  0  0  0  0  0  0
    8.2342   -5.9049   24.9167 C   0  0  0  0  0  0  0  0  0  0  0  0
    9.1664   -6.3582   24.5875 H   0  0  0  0  0  0  0  0  0  0  0  0
    7.7991   -2.6765   21.9631 C   0  0  0  0  0  0  0  0  0  0  0  0
    7.3697   -1.9697   20.9462 N   0  0  0  0  0  0  0  0  0  0  0  0
    7.1768   -0.6283   21.1207 N   0  0  0  0  0  0  0  0  0  0  0  0
    6.6122    0.0331   19.9856 C   0  0  0  0  0  0  0  0  0  0  0  0
    7.1189   -0.2188   18.6977 C   0  0  0  0  0  0  0  0  0  0  0  0
    7.9972   -0.8518   18.5789 H   0  0  0  0  0  0  0  0  0  0  0  0
    6.5989    0.3228   17.5915 N   0  0  0  0  0  0  0  0  0  0  0  0
    5.5444    1.1464   17.7388 C   0  0  0  0  0  0  0  0  0  0  0  0
    5.1474    1.5864   16.8250 H   0  0  0  0  0  0  0  0  0  0  0  0
    4.9793    1.4594   18.9789 C   0  0  0  0  0  0  0  0  0  0  0  0
    4.1495    2.1587   19.0382 H   0  0  0  0  0  0  0  0  0  0  0  0
    5.5250    0.8937   20.1355 C   0  0  0  0  0  0  0  0  0  0  0  0
    5.1290    1.1023   21.1272 H   0  0  0  0  0  0  0  0  0  0  0  0
    7.5032    0.1112   22.3178 C   0  0  0  0  0  0  0  0  0  0  0  0
    7.3223    1.3111   22.4305 O   0  0  0  0  0  0  0  0  0  0  0  0
    8.0971   -0.7262   23.3512 C   0  0  0  0  0  0  0  0  0  0  0  0
    8.3677   -0.1760   24.2444 H   0  0  0  0  0  0  0  0  0  0  0  0
    8.2388   -2.0717   23.1901 C   0  0  0  0  0  0  0  0  0  0  0  0
    8.6959   -2.7120   23.9425 H   0  0  0  0  0  0  0  0  0  0  0  0
  1  2  1  0
  2  3  2  3
  3  4  1  0
  3  5  1  0
  5  6  2  0
  6  7  1  0
  6  8  1  0
  8  9  1  0
  8 10  2  0
 10 11  1  0
 10 12  1  0
 12 13  1  0
 12 14  2  0
 14 15  1  0
  2 16  1  0
 16 17  2  0
 17 18  1  0
 18 19  1  0
 19 20  2  0
 20 21  1  0
 20 22  1  0
 22 23  2  0
 23 24  1  0
 23 25  1  0
 25 26  1  0
 25 27  2  0
 27 28  1  0
 18 29  1  0
 29 30  2  0
 29 31  1  0
 31 32  1  0
 31 33  2  0
 33 34  1  0
 14  5  1  0
 33 16  1  0
 27 19  1  0
M  END
>  <cnnaffinity>  (1) 
-5.27985

>  <filename>  (1) 
O=c1ccc(C=Cc2ccccc2)nn1-c1cccnc1

$$$$
