
     RDKit          3D

 26 28  0  0  0  0  0  0  0  0999 V2000
    4.9080    1.7760   16.9999 H   0  0  0  0  0  0  0  0  0  0  0  0
    5.3980    1.2947   17.8399 C   0  0  0  0  0  0  0  0  0  0  0  0
    6.5640    0.6790   17.5782 N   0  0  0  0  0  0  0  0  0  0  0  0
    7.1755    0.0602   18.5934 C   0  0  0  0  0  0  0  0  0  0  0  0
    8.1269   -0.4294   18.3872 H   0  0  0  0  0  0  0  0  0  0  0  0
    6.6432    0.0026   19.8984 C   0  0  0  0  0  0  0  0  0  0  0  0
    7.3399   -0.6833   20.9190 N   0  0  0  0  0  0  0  0  0  0  0  0
    8.7413   -0.6651   21.1474 C   0  0  0  0  0  0  0  0  0  0  0  0
    9.5584   -0.0608   20.4726 O   0  0  0  0  0  0  0  0  0  0  0  0
    8.8991   -1.4988   22.3069 C   0  0  0  0  0  0  0  0  0  0  0  0
    9.8670   -1.6839   22.7240 H   0  0  0  0  0  0  0  0  0  0  0  0
    7.6815   -1.9345   22.7240 C   0  0  0  0  0  0  0  0  0  0  0  0
    7.3895   -2.7906   23.8653 C   0  0  0  0  0  0  0  0  0  0  0  0
    5.7777   -3.2651   24.2914 S   0  0  0  0  0  0  0  0  0  0  0  0
    6.3781   -4.1766   25.6360 C   0  0  0  0  0  0  0  0  0  0  0  0
    5.3224   -5.0424   26.6796 Cl  0  0  0  0  0  0  0  0  0  0  0  0
    7.7349   -4.1162   25.7483 C   0  0  0  0  0  0  0  0  0  0  0  0
    8.3085   -4.6144   26.5196 H   0  0  0  0  0  0  0  0  0  0  0  0
    8.3120   -3.3184   24.7285 C   0  0  0  0  0  0  0  0  0  0  0  0
    9.3808   -3.1450   24.6442 H   0  0  0  0  0  0  0  0  0  0  0  0
    6.7235   -1.4312   21.8991 N   0  0  0  0  0  0  0  0  0  0  0  0
    5.7193   -1.5722   21.9152 H   0  0  0  0  0  0  0  0  0  0  0  0
    5.4311    0.6539   20.1589 C   0  0  0  0  0  0  0  0  0  0  0  0
    5.0141    0.6302   21.1647 H   0  0  0  0  0  0  0  0  0  0  0  0
    4.8019    1.3167   19.1070 C   0  0  0  0  0  0  0  0  0  0  0  0
    3.8686    1.8474   19.2658 H   0  0  0  0  0  0  0  0  0  0  0  0
  1  2  1  0
  2  3  2  0
  3  4  1  0
  4  5  1  0
  4  6  2  0
  6  7  1  0
  7  8  1  0
  8  9  2  0
  8 10  1  0
 10 11  1  0
 10 12  2  0
 12 13  1  0
 13 14  1  0
 14 15  1  0
 15 16  1  0
 15 17  2  0
 17 18  1  0
 17 19  1  0
 19 20  1  0
 12 21  1  0
 21 22  1  0
  6 23  1  0
 23 24  1  0
 23 25  2  0
 25 26  1  0
 25  2  1  0
 21  7  1  0
 19 13  2  0
M  END
>  <cnnaffinity>  (1) 
-5.2565

>  <filename>  (1) 
O=c1cc(-c2ccc(Cl)s2)[nH]n1-c1cccnc1

$$$$
