
     RDKit          3D

 27 29  0  0  0  0  0  0  0  0999 V2000
    5.0109    2.0098   16.7881 H   0  0  0  0  0  0  0  0  0  0  0  0
    5.4262    1.4526   17.6274 C   0  0  0  0  0  0  0  0  0  0  0  0
    6.6412    0.9067   17.4373 N   0  0  0  0  0  0  0  0  0  0  0  0
    7.1903    0.2470   18.4626 C   0  0  0  0  0  0  0  0  0  0  0  0
    8.2059   -0.1145   18.3241 H   0  0  0  0  0  0  0  0  0  0  0  0
    6.5261    0.0174   19.6838 C   0  0  0  0  0  0  0  0  0  0  0  0
    7.1845   -0.7213   20.7196 N   0  0  0  0  0  0  0  0  0  0  0  0
    8.4844   -0.3149   20.9277 N   0  0  0  0  0  0  0  0  0  0  0  0
    9.1143   -0.8184   21.9516 C   0  0  0  0  0  0  0  0  0  0  0  0
   10.4101   -0.3304   22.1926 N   0  0  0  0  0  0  0  0  0  0  0  0
   10.8699    0.8850   21.7599 C   0  0  0  0  0  0  0  0  0  0  0  0
   10.2885    1.5297   21.1138 H   0  0  0  0  0  0  0  0  0  0  0  0
   12.0754    1.1255   22.1907 N   0  0  0  0  0  0  0  0  0  0  0  0
   12.4478    0.0165   22.9132 C   0  0  0  0  0  0  0  0  0  0  0  0
   13.4208   -0.0295   23.3867 H   0  0  0  0  0  0  0  0  0  0  0  0
   11.4436   -0.9042   22.9169 C   0  0  0  0  0  0  0  0  0  0  0  0
   11.3487   -1.9314   23.2407 H   0  0  0  0  0  0  0  0  0  0  0  0
    8.5425   -1.8108   22.8292 C   0  0  0  0  0  0  0  0  0  0  0  0
    9.1146   -2.1354   23.6955 H   0  0  0  0  0  0  0  0  0  0  0  0
    7.3024   -2.2967   22.5563 C   0  0  0  0  0  0  0  0  0  0  0  0
    6.7852   -3.0652   23.1243 H   0  0  0  0  0  0  0  0  0  0  0  0
    6.5320   -1.8108   21.4091 C   0  0  0  0  0  0  0  0  0  0  0  0
    5.4692   -2.2899   21.0626 O   0  0  0  0  0  0  0  0  0  0  0  0
    5.2674    0.5969   19.8801 C   0  0  0  0  0  0  0  0  0  0  0  0
    4.7495    0.4771   20.8306 H   0  0  0  0  0  0  0  0  0  0  0  0
    4.7220    1.3500   18.8313 C   0  0  0  0  0  0  0  0  0  0  0  0
    3.7721    1.8657   18.9428 H   0  0  0  0  0  0  0  0  0  0  0  0
  1  2  1  0
  2  3  2  0
  3  4  1  0
  4  5  1  0
  4  6  2  0
  6  7  1  0
  7  8  1  0
  8  9  2  0
  9 10  1  0
 10 11  1  0
 11 12  1  0
 11 13  2  0
 13 14  1  0
 14 15  1  0
 14 16  2  0
 16 17  1  0
  9 18  1  0
 18 19  1  0
 18 20  2  0
 20 21  1  0
 20 22  1  0
 22 23  2  0
  6 24  1  0
 24 25  1  0
 24 26  2  0
 26 27  1  0
 26  2  1  0
 22  7  1  0
 16 10  1  0
M  END
>  <cnnaffinity>  (1) 
-4.71149

>  <filename>  (1) 
O=c1ccc(-n2ccnc2)nn1-c1cccnc1

$$$$
