
     RDKit          3D

 29 31  0  0  0  0  0  0  0  0999 V2000
    4.9142    1.7786   16.8706 H   0  0  0  0  0  0  0  0  0  0  0  0
    5.3561    1.3708   17.7755 C   0  0  0  0  0  0  0  0  0  0  0  0
    6.5711    0.8280   17.6207 N   0  0  0  0  0  0  0  0  0  0  0  0
    7.1554    0.3230   18.7108 C   0  0  0  0  0  0  0  0  0  0  0  0
    8.1400   -0.1154   18.5460 H   0  0  0  0  0  0  0  0  0  0  0  0
    6.5851    0.3435   19.9992 C   0  0  0  0  0  0  0  0  0  0  0  0
    7.2770   -0.3842   21.0991 C   0  0  0  0  0  0  0  0  0  0  0  0
    7.6218    0.5007   22.5697 S   0  0  0  0  0  0  0  0  0  0  0  0
    8.2403   -0.7649   23.6245 C   0  0  0  0  0  0  0  0  0  0  0  0
    8.3880   -0.4002   25.0646 C   0  0  0  0  0  0  0  0  0  0  0  0
    9.5602   -0.7754   25.7491 C   0  0  0  0  0  0  0  0  0  0  0  0
   10.3980   -1.2106   25.2143 H   0  0  0  0  0  0  0  0  0  0  0  0
    9.7426   -0.6101   27.0655 N   0  0  0  0  0  0  0  0  0  0  0  0
    8.7540   -0.0438   27.7715 C   0  0  0  0  0  0  0  0  0  0  0  0
    8.8957    0.0815   28.8419 H   0  0  0  0  0  0  0  0  0  0  0  0
    7.5623    0.3815   27.1733 C   0  0  0  0  0  0  0  0  0  0  0  0
    6.6155    0.9655   27.9208 F   0  0  0  0  0  0  0  0  0  0  0  0
    7.3562    0.2035   25.8083 C   0  0  0  0  0  0  0  0  0  0  0  0
    6.4159    0.5006   25.3498 H   0  0  0  0  0  0  0  0  0  0  0  0
    8.5480   -2.0125   23.2164 C   0  0  0  0  0  0  0  0  0  0  0  0
    9.0016   -2.7262   23.8997 H   0  0  0  0  0  0  0  0  0  0  0  0
    8.2296   -2.5676   21.9007 C   0  0  0  0  0  0  0  0  0  0  0  0
    8.4546   -3.7390   21.6333 O   0  0  0  0  0  0  0  0  0  0  0  0
    7.6154   -1.6723   20.9142 C   0  0  0  0  0  0  0  0  0  0  0  0
    7.4232   -2.1422   19.9626 H   0  0  0  0  0  0  0  0  0  0  0  0
    5.3278    0.9491   20.1474 C   0  0  0  0  0  0  0  0  0  0  0  0
    4.8622    1.0160   21.1317 H   0  0  0  0  0  0  0  0  0  0  0  0
    4.6959    1.4528   19.0061 C   0  0  0  0  0  0  0  0  0  0  0  0
    3.7265    1.9295   19.0533 H   0  0  0  0  0  0  0  0  0  0  0  0
  1  2  1  0
  2  3  2  0
  3  4  1  0
  4  5  1  0
  4  6  2  0
  6  7  1  0
  7  8  1  0
  8  9  1  0
  9 10  1  0
 10 11  2  0
 11 12  1  0
 11 13  1  0
 13 14  2  0
 14 15  1  0
 14 16  1  0
 16 17  1  0
 16 18  2  0
 18 19  1  0
  9 20  2  0
 20 21  1  0
 20 22  1  0
 22 23  2  0
 22 24  1  0
 24 25  1  0
  6 26  1  0
 26 27  1  0
 26 28  2  0
 28 29  1  0
 28  2  1  0
 24  7  2  0
 18 10  1  0
M  END
>  <cnnaffinity>  (1) 
-5.26306

>  <filename>  (1) 
O=c1cc(-c2cccnc2)sc(-c2cncc(F)c2)c1

$$$$
