
     RDKit          3D

 32 34  0  0  0  0  0  0  0  0999 V2000
    4.9831    1.8227   17.0119 H   0  0  0  0  0  0  0  0  0  0  0  0
    5.4088    1.2731   17.8505 C   0  0  0  0  0  0  0  0  0  0  0  0
    6.5499    0.6138   17.6117 N   0  0  0  0  0  0  0  0  0  0  0  0
    7.1136   -0.0242   18.6380 C   0  0  0  0  0  0  0  0  0  0  0  0
    8.0663   -0.5086   18.4408 H   0  0  0  0  0  0  0  0  0  0  0  0
    6.5846   -0.0689   19.9362 C   0  0  0  0  0  0  0  0  0  0  0  0
    7.3326   -0.7824   20.9860 C   0  0  0  0  0  0  0  0  0  0  0  0
    6.6482   -1.5932   21.7599 N   0  0  0  0  0  0  0  0  0  0  0  0
    7.3051   -2.2324   22.7815 C   0  0  0  0  0  0  0  0  0  0  0  0
    6.4385   -2.9923   23.5215 N   0  0  0  0  0  0  0  0  0  0  0  0
    5.5092   -2.8241   23.1626 H   0  0  0  0  0  0  0  0  0  0  0  0
    6.5798   -3.3863   24.8646 C   0  0  0  0  0  0  0  0  0  0  0  0
    6.0994   -4.6555   25.2083 C   0  0  0  0  0  0  0  0  0  0  0  0
    5.6483   -5.2439   24.4191 H   0  0  0  0  0  0  0  0  0  0  0  0
    6.2329   -5.1500   26.5077 C   0  0  0  0  0  0  0  0  0  0  0  0
    5.8922   -6.1464   26.7811 H   0  0  0  0  0  0  0  0  0  0  0  0
    6.8254   -4.3400   27.4790 C   0  0  0  0  0  0  0  0  0  0  0  0
    6.8824   -4.9597   29.1084 Cl  0  0  0  0  0  0  0  0  0  0  0  0
    7.3237   -3.0747   27.1453 C   0  0  0  0  0  0  0  0  0  0  0  0
    7.8416   -2.4703   27.8770 H   0  0  0  0  0  0  0  0  0  0  0  0
    7.1860   -2.5848   25.8411 C   0  0  0  0  0  0  0  0  0  0  0  0
    7.5384   -1.5824   25.5980 H   0  0  0  0  0  0  0  0  0  0  0  0
    8.6512   -2.1249   23.0142 C   0  0  0  0  0  0  0  0  0  0  0  0
    9.1432   -2.6368   23.8342 H   0  0  0  0  0  0  0  0  0  0  0  0
    9.3928   -1.3095   22.1886 N   0  0  0  0  0  0  0  0  0  0  0  0
   10.3824   -1.1152   22.3036 H   0  0  0  0  0  0  0  0  0  0  0  0
    8.8405   -0.5710   21.1462 C   0  0  0  0  0  0  0  0  0  0  0  0
    9.5889    0.1422   20.4993 O   0  0  0  0  0  0  0  0  0  0  0  0
    5.3556    0.5769   20.1598 C   0  0  0  0  0  0  0  0  0  0  0  0
    4.8693    0.5477   21.1379 H   0  0  0  0  0  0  0  0  0  0  0  0
    4.7797    1.2817   19.1009 C   0  0  0  0  0  0  0  0  0  0  0  0
    3.8686    1.8568   19.2229 H   0  0  0  0  0  0  0  0  0  0  0  0
  1  2  1  0
  2  3  2  0
  3  4  1  0
  4  5  1  0
  4  6  2  0
  6  7  1  0
  7  8  2  0
  8  9  1  0
  9 10  1  0
 10 11  1  0
 10 12  1  0
 12 13  2  0
 13 14  1  0
 13 15  1  0
 15 16  1  0
 15 17  2  0
 17 18  1  0
 17 19  1  0
 19 20  1  0
 19 21  2  0
 21 22  1  0
  9 23  2  0
 23 24  1  0
 23 25  1  0
 25 26  1  0
 25 27  1  0
 27 28  2  0
  6 29  1  0
 29 30  1  0
 29 31  2  0
 31 32  1  0
 31  2  1  0
 27  7  1  0
 21 12  1  0
M  END
>  <cnnaffinity>  (1) 
-5.56066

>  <filename>  (1) 
O=c1[nH]cc(Nc2ccc(Cl)cc2)nc1-c1cccnc1

$$$$
