
     RDKit          3D

 33 35  0  0  0  0  0  0  0  0999 V2000
    9.6192   -0.0383   20.5572 O   0  0  0  0  0  0  0  0  0  0  0  0
    8.7886   -0.6295   21.2043 C   0  0  0  0  0  0  0  0  0  0  0  0
    9.0581   -1.4124   22.2790 N   0  0  0  0  0  0  0  0  0  0  0  0
    7.8631   -1.9392   22.9243 C   0  0  0  0  0  0  0  0  0  0  0  0
    7.5931   -1.4044   24.3378 C   0  0  0  0  0  0  0  0  0  0  0  0
    7.7386   -0.0305   24.5755 C   0  0  0  0  0  0  0  0  0  0  0  0
    7.5135    0.5253   25.8400 C   0  0  0  0  0  0  0  0  0  0  0  0
    7.1319   -0.2958   26.9034 C   0  0  0  0  0  0  0  0  0  0  0  0
    6.9669   -1.6675   26.6885 C   0  0  0  0  0  0  0  0  0  0  0  0
    7.1851   -2.2276   25.4167 C   0  0  0  0  0  0  0  0  0  0  0  0
    6.9754   -3.7201   25.2225 C   0  0  0  0  0  0  0  0  0  0  0  0
    6.1134   -3.9769   24.2172 F   0  0  0  0  0  0  0  0  0  0  0  0
    6.4930   -4.3367   26.3143 F   0  0  0  0  0  0  0  0  0  0  0  0
    8.1302   -4.3492   24.9055 F   0  0  0  0  0  0  0  0  0  0  0  0
    6.6556   -2.3038   27.5159 H   0  0  0  0  0  0  0  0  0  0  0  0
    6.9635    0.1296   27.8919 H   0  0  0  0  0  0  0  0  0  0  0  0
    7.6415    1.5980   25.9842 H   0  0  0  0  0  0  0  0  0  0  0  0
    8.0343    0.6154   23.7522 H   0  0  0  0  0  0  0  0  0  0  0  0
    6.8045   -1.5493   21.8719 C   0  0  0  0  0  0  0  0  0  0  0  0
    5.7154   -2.0432   21.7207 O   0  0  0  0  0  0  0  0  0  0  0  0
    7.4023   -0.6464   20.9896 N   0  0  0  0  0  0  0  0  0  0  0  0
    6.7054    0.0175   19.9167 C   0  0  0  0  0  0  0  0  0  0  0  0
    5.4761    0.6336   20.1758 C   0  0  0  0  0  0  0  0  0  0  0  0
    4.8305    1.2936   19.1239 C   0  0  0  0  0  0  0  0  0  0  0  0
    5.4114    1.2779   17.8526 C   0  0  0  0  0  0  0  0  0  0  0  0
    6.5705    0.6578   17.5776 N   0  0  0  0  0  0  0  0  0  0  0  0
    7.2049    0.0569   18.5921 C   0  0  0  0  0  0  0  0  0  0  0  0
    8.1540   -0.4241   18.3673 H   0  0  0  0  0  0  0  0  0  0  0  0
    4.9326    1.7804   17.0175 H   0  0  0  0  0  0  0  0  0  0  0  0
    3.8970    1.8211   19.2786 H   0  0  0  0  0  0  0  0  0  0  0  0
    5.0462    0.5860   21.1755 H   0  0  0  0  0  0  0  0  0  0  0  0
    7.8802   -3.0323   22.9587 H   0  0  0  0  0  0  0  0  0  0  0  0
   10.0035   -1.3723   22.6221 H   0  0  0  0  0  0  0  0  0  0  0  0
  1  2  2  0
  2  3  1  0
  3  4  1  0
  4  5  1  0
  5  6  2  0
  6  7  1  0
  7  8  2  0
  8  9  1  0
  9 10  2  0
 10 11  1  0
 11 12  1  0
 11 13  1  0
 11 14  1  0
  9 15  1  0
  8 16  1  0
  7 17  1  0
  6 18  1  0
  4 19  1  0
 19 20  2  0
 19 21  1  0
 21 22  1  0
 22 23  2  0
 23 24  1  0
 24 25  2  0
 25 26  1  0
 26 27  2  0
 27 28  1  0
 25 29  1  0
 24 30  1  0
 23 31  1  0
  4 32  1  0
  3 33  1  0
 21  2  1  0
 27 22  1  0
 10  5  1  0
M  END
>  <cnnaffinity>  (1) 
-5.10435

>  <filename>  (1) 
O=C1NC(c2ccccc2C(F)(F)F)C(=O)N1c1cccnc1

$$$$
