
     RDKit          3D

 32 34  0  0  0  0  0  0  0  0999 V2000
    4.9208    1.8137   16.9438 H   0  0  0  0  0  0  0  0  0  0  0  0
    5.4119    1.3162   17.7794 C   0  0  0  0  0  0  0  0  0  0  0  0
    6.5771    0.7127   17.5063 N   0  0  0  0  0  0  0  0  0  0  0  0
    7.2004    0.0865   18.5094 C   0  0  0  0  0  0  0  0  0  0  0  0
    8.1519   -0.3738   18.2581 H   0  0  0  0  0  0  0  0  0  0  0  0
    6.6894   -0.0024   19.8153 C   0  0  0  0  0  0  0  0  0  0  0  0
    7.4338   -0.7876   20.8408 C   0  0  0  0  0  0  0  0  0  0  0  0
    8.7356   -0.8824   20.7348 N   0  0  0  0  0  0  0  0  0  0  0  0
    9.4248   -1.5046   21.7264 N   0  0  0  0  0  0  0  0  0  0  0  0
   10.7827   -1.2710   21.5145 N   0  0  0  0  0  0  0  0  0  0  0  0
   10.7787   -0.6195   20.7299 H   0  0  0  0  0  0  0  0  0  0  0  0
   11.5151   -0.7724   22.6866 C   0  0  0  0  0  0  0  0  0  0  0  0
   12.5792   -0.7932   22.4433 H   0  0  0  0  0  0  0  0  0  0  0  0
   11.3232   -1.5292   23.4432 H   0  0  0  0  0  0  0  0  0  0  0  0
   11.0899    0.5518   23.2952 C   0  0  0  0  0  0  0  0  0  0  0  0
   11.3431    2.0981   22.5485 S   0  0  0  0  0  0  0  0  0  0  0  0
   10.5460    2.9076   23.8436 C   0  0  0  0  0  0  0  0  0  0  0  0
   10.3920    3.9774   23.8105 H   0  0  0  0  0  0  0  0  0  0  0  0
   10.1486    2.0500   24.8217 C   0  0  0  0  0  0  0  0  0  0  0  0
    9.6150    2.3349   25.7216 H   0  0  0  0  0  0  0  0  0  0  0  0
   10.4925    0.7017   24.5173 C   0  0  0  0  0  0  0  0  0  0  0  0
   10.3134   -0.1463   25.1774 H   0  0  0  0  0  0  0  0  0  0  0  0
    8.8848   -2.1928   22.8772 C   0  0  0  0  0  0  0  0  0  0  0  0
    9.5524   -2.7638   23.7320 O   0  0  0  0  0  0  0  0  0  0  0  0
    7.4474   -2.0931   22.8910 C   0  0  0  0  0  0  0  0  0  0  0  0
    6.9858   -2.5798   23.7451 H   0  0  0  0  0  0  0  0  0  0  0  0
    6.7574   -1.4268   21.9209 C   0  0  0  0  0  0  0  0  0  0  0  0
    5.6772   -1.4030   21.9290 H   0  0  0  0  0  0  0  0  0  0  0  0
    5.4815    0.6639   20.0924 C   0  0  0  0  0  0  0  0  0  0  0  0
    5.0677    0.6949   21.1015 H   0  0  0  0  0  0  0  0  0  0  0  0
    4.8326    1.3240   19.0506 C   0  0  0  0  0  0  0  0  0  0  0  0
    3.8940    1.8414   19.2103 H   0  0  0  0  0  0  0  0  0  0  0  0
  1  2  1  0
  2  3  2  0
  3  4  1  0
  4  5  1  0
  4  6  2  0
  6  7  1  0
  7  8  2  0
  8  9  1  0
  9 10  1  0
 10 11  1  0
 10 12  1  0
 12 13  1  0
 12 14  1  0
 12 15  1  0
 15 16  1  0
 16 17  1  0
 17 18  1  0
 17 19  2  0
 19 20  1  0
 19 21  1  0
 21 22  1  0
  9 23  1  0
 23 24  2  0
 23 25  1  0
 25 26  1  0
 25 27  2  0
 27 28  1  0
  6 29  1  0
 29 30  1  0
 29 31  2  0
 31 32  1  0
 31  2  1  0
 27  7  1  0
 21 15  2  0
M  END
>  <cnnaffinity>  (1) 
-5.37341

>  <filename>  (1) 
O=c1ccc(-c2cccnc2)nn1NCc1cccs1

$$$$
