
     RDKit          3D

 42 44  0  0  0  0  0  0  0  0999 V2000
    8.1246   -3.9379   21.7220 H   0  0  0  0  0  0  0  0  0  0  0  0
    7.9960   -2.8876   21.8921 C   0  0  0  0  0  0  0  0  0  0  0  0
    8.1360   -2.3254   23.1011 C   0  0  0  0  0  0  0  0  0  0  0  0
    8.4259   -2.8920   24.2800 O   0  0  0  0  0  0  0  0  0  0  0  0
    8.2465   -4.3071   24.4263 C   0  0  0  0  0  0  0  0  0  0  0  0
    8.8748   -4.8390   23.7006 H   0  0  0  0  0  0  0  0  0  0  0  0
    8.6423   -4.5238   25.4183 H   0  0  0  0  0  0  0  0  0  0  0  0
    6.8066   -4.8180   24.2910 C   0  0  0  0  0  0  0  0  0  0  0  0
    6.5131   -4.7149   23.2386 H   0  0  0  0  0  0  0  0  0  0  0  0
    6.8316   -5.9058   24.5011 H   0  0  0  0  0  0  0  0  0  0  0  0
    5.8417   -4.1035   25.1152 N   0  0  0  0  0  0  0  0  0  0  0  0
    4.4614   -4.1578   24.6193 C   0  0  0  0  0  0  0  0  0  0  0  0
    4.0537   -5.1872   24.5994 H   0  0  0  0  0  0  0  0  0  0  0  0
    4.4309   -3.7658   23.5927 H   0  0  0  0  0  0  0  0  0  0  0  0
    3.5503   -3.2841   25.4888 C   0  0  0  0  0  0  0  0  0  0  0  0
    3.8308   -2.2268   25.3598 H   0  0  0  0  0  0  0  0  0  0  0  0
    2.5044   -3.3950   25.1875 H   0  0  0  0  0  0  0  0  0  0  0  0
    3.6148   -3.6493   26.8624 O   0  0  0  0  0  0  0  0  0  0  0  0
    4.9496   -3.5701   27.3475 C   0  0  0  0  0  0  0  0  0  0  0  0
    5.3034   -2.5277   27.3246 H   0  0  0  0  0  0  0  0  0  0  0  0
    4.9219   -3.8954   28.3913 H   0  0  0  0  0  0  0  0  0  0  0  0
    5.9099   -4.4472   26.5380 C   0  0  0  0  0  0  0  0  0  0  0  0
    6.9310   -4.2694   26.8975 H   0  0  0  0  0  0  0  0  0  0  0  0
    5.6689   -5.5117   26.7266 H   0  0  0  0  0  0  0  0  0  0  0  0
    8.0273   -0.9710   23.2462 N   0  0  0  0  0  0  0  0  0  0  0  0
    8.1237   -0.5489   24.1492 H   0  0  0  0  0  0  0  0  0  0  0  0
    7.5769   -0.0968   22.2862 C   0  0  0  0  0  0  0  0  0  0  0  0
    7.4080    1.0673   22.5771 O   0  0  0  0  0  0  0  0  0  0  0  0
    7.3556   -0.6666   21.0284 N   0  0  0  0  0  0  0  0  0  0  0  0
    6.6985    0.0415   19.9712 C   0  0  0  0  0  0  0  0  0  0  0  0
    7.1961    0.0452   18.6442 C   0  0  0  0  0  0  0  0  0  0  0  0
    8.1302   -0.4663   18.4092 H   0  0  0  0  0  0  0  0  0  0  0  0
    6.5857    0.6483   17.6177 N   0  0  0  0  0  0  0  0  0  0  0  0
    5.4250    1.2760   17.8635 C   0  0  0  0  0  0  0  0  0  0  0  0
    4.9557    1.7720   17.0149 H   0  0  0  0  0  0  0  0  0  0  0  0
    4.8287    1.3037   19.1276 C   0  0  0  0  0  0  0  0  0  0  0  0
    3.8840    1.8199   19.2618 H   0  0  0  0  0  0  0  0  0  0  0  0
    5.4760    0.6840   20.2028 C   0  0  0  0  0  0  0  0  0  0  0  0
    5.0529    0.6860   21.2066 H   0  0  0  0  0  0  0  0  0  0  0  0
    7.8659   -2.0026   20.7032 C   0  0  0  0  0  0  0  0  0  0  0  0
    8.8423   -1.9172   20.1831 H   0  0  0  0  0  0  0  0  0  0  0  0
    7.1654   -2.4538   19.9857 H   0  0  0  0  0  0  0  0  0  0  0  0
  1  2  1  0
  2  3  2  0
  3  4  1  0
  4  5  1  0
  5  6  1  0
  5  7  1  0
  5  8  1  0
  8  9  1  0
  8 10  1  0
  8 11  1  0
 11 12  1  0
 12 13  1  0
 12 14  1  0
 12 15  1  0
 15 16  1  0
 15 17  1  0
 15 18  1  0
 18 19  1  0
 19 20  1  0
 19 21  1  0
 19 22  1  0
 22 23  1  0
 22 24  1  0
  3 25  1  0
 25 26  1  0
 25 27  1  0
 27 28  2  0
 27 29  1  0
 29 30  1  0
 30 31  2  0
 31 32  1  0
 31 33  1  0
 33 34  2  0
 34 35  1  0
 34 36  1  0
 36 37  1  0
 36 38  2  0
 38 39  1  0
 29 40  1  0
 40 41  1  0
 40 42  1  0
 40  2  1  0
 22 11  1  0
 38 30  1  0
M  END
>  <cnnaffinity>  (1) 
-4.74074

>  <filename>  (1) 
O=C1NC(OCCN2CCOCC2)=CCN1c1cccnc1

$$$$
