
     RDKit          3D

 33 36  0  0  0  0  0  0  0  0999 V2000
    4.9404    1.8794   16.8664 H   0  0  0  0  0  0  0  0  0  0  0  0
    5.3868    1.3970   17.7363 C   0  0  0  0  0  0  0  0  0  0  0  0
    6.5563    0.7719   17.5380 N   0  0  0  0  0  0  0  0  0  0  0  0
    7.1172    0.1629   18.5891 C   0  0  0  0  0  0  0  0  0  0  0  0
    8.0627   -0.3324   18.3876 H   0  0  0  0  0  0  0  0  0  0  0  0
    6.5624    0.1500   19.8767 C   0  0  0  0  0  0  0  0  0  0  0  0
    7.2560   -0.6087   20.9480 C   0  0  0  0  0  0  0  0  0  0  0  0
    7.7527   -1.7694   20.6076 N   0  0  0  0  0  0  0  0  0  0  0  0
    8.3269   -2.5186   21.5939 C   0  0  0  0  0  0  0  0  0  0  0  0
    8.6310   -3.6856   21.5026 O   0  0  0  0  0  0  0  0  0  0  0  0
    8.6128   -1.9064   22.8212 N   0  0  0  0  0  0  0  0  0  0  0  0
    8.9100   -2.6432   23.4377 H   0  0  0  0  0  0  0  0  0  0  0  0
    7.9726   -0.7838   23.2436 C   0  0  0  0  0  0  0  0  0  0  0  0
    8.0198   -0.4356   24.6699 C   0  0  0  0  0  0  0  0  0  0  0  0
    6.8114    0.6965   25.2377 S   0  0  0  0  0  0  0  0  0  0  0  0
    7.4289    0.6567   26.8520 C   0  0  0  0  0  0  0  0  0  0  0  0
    6.9775    1.4079   27.9508 C   0  0  0  0  0  0  0  0  0  0  0  0
    6.1283    2.0773   27.8501 H   0  0  0  0  0  0  0  0  0  0  0  0
    7.6470    1.2753   29.1606 C   0  0  0  0  0  0  0  0  0  0  0  0
    7.3351    1.8729   30.0125 H   0  0  0  0  0  0  0  0  0  0  0  0
    8.7267    0.3777   29.2915 C   0  0  0  0  0  0  0  0  0  0  0  0
    9.2172    0.2790   30.2554 H   0  0  0  0  0  0  0  0  0  0  0  0
    9.1574   -0.3783   28.2044 C   0  0  0  0  0  0  0  0  0  0  0  0
    9.9927   -1.0624   28.3004 H   0  0  0  0  0  0  0  0  0  0  0  0
    8.5229   -0.2293   26.9514 C   0  0  0  0  0  0  0  0  0  0  0  0
    8.8392   -0.8381   25.6860 C   0  0  0  0  0  0  0  0  0  0  0  0
    9.6713   -1.5280   25.5900 H   0  0  0  0  0  0  0  0  0  0  0  0
    7.3207   -0.0681   22.2672 C   0  0  0  0  0  0  0  0  0  0  0  0
    6.8694    0.8887   22.4881 H   0  0  0  0  0  0  0  0  0  0  0  0
    5.3516    0.8313   20.0743 C   0  0  0  0  0  0  0  0  0  0  0  0
    4.8921    0.8829   21.0650 H   0  0  0  0  0  0  0  0  0  0  0  0
    4.7398    1.4429   18.9772 C   0  0  0  0  0  0  0  0  0  0  0  0
    3.7975    1.9749   19.0764 H   0  0  0  0  0  0  0  0  0  0  0  0
  1  2  1  0
  2  3  2  0
  3  4  1  0
  4  5  1  0
  4  6  2  0
  6  7  1  0
  7  8  2  0
  8  9  1  0
  9 10  2  0
  9 11  1  0
 11 12  1  0
 11 13  1  0
 13 14  1  0
 14 15  1  0
 15 16  1  0
 16 17  2  0
 17 18  1  0
 17 19  1  0
 19 20  1  0
 19 21  2  0
 21 22  1  0
 21 23  1  0
 23 24  1  0
 23 25  2  0
 25 26  1  0
 26 27  1  0
 13 28  2  0
 28 29  1  0
  6 30  1  0
 30 31  1  0
 30 32  2  0
 32 33  1  0
 32  2  1  0
 28  7  1  0
 26 14  2  0
 25 16  1  0
M  END
>  <cnnaffinity>  (1) 
-5.37571

>  <filename>  (1) 
O=c1nc(-c2cccnc2)cc(-c2cc3ccccc3s2)[nH]1

$$$$
