
     RDKit          3D

 33 36  0  0  0  0  0  0  0  0999 V2000
    5.6185   -2.0105   21.5163 O   0  0  0  0  0  0  0  0  0  0  0  0
    6.7602   -1.6785   21.7190 C   0  0  0  0  0  0  0  0  0  0  0  0
    7.7209   -2.2652   22.7058 C   0  0  0  0  0  0  0  0  0  0  0  0
    7.4432   -3.1549   23.6902 C   0  0  0  0  0  0  0  0  0  0  0  0
    6.2034   -3.9206   23.7991 C   0  0  0  0  0  0  0  0  0  0  0  0
    5.4920   -4.5645   22.8273 C   0  0  0  0  0  0  0  0  0  0  0  0
    4.3518   -5.2712   23.3167 C   0  0  0  0  0  0  0  0  0  0  0  0
    3.4246   -6.0332   22.5855 C   0  0  0  0  0  0  0  0  0  0  0  0
    2.3771   -6.6615   23.2382 C   0  0  0  0  0  0  0  0  0  0  0  0
    2.2390   -6.5322   24.6352 C   0  0  0  0  0  0  0  0  0  0  0  0
    3.1391   -5.7784   25.3824 C   0  0  0  0  0  0  0  0  0  0  0  0
    4.2039   -5.1479   24.7121 C   0  0  0  0  0  0  0  0  0  0  0  0
    5.4879   -4.1808   25.3876 S   0  0  0  0  0  0  0  0  0  0  0  0
    3.0273   -5.6845   26.4582 H   0  0  0  0  0  0  0  0  0  0  0  0
    1.4192   -7.0358   25.1387 H   0  0  0  0  0  0  0  0  0  0  0  0
    1.6678   -7.2578   22.6713 H   0  0  0  0  0  0  0  0  0  0  0  0
    3.5681   -6.1168   21.5225 H   0  0  0  0  0  0  0  0  0  0  0  0
    5.7606   -4.5065   21.7819 H   0  0  0  0  0  0  0  0  0  0  0  0
    8.1715   -3.3437   24.4970 H   0  0  0  0  0  0  0  0  0  0  0  0
    9.2975   -1.5092   22.4949 S   0  0  0  0  0  0  0  0  0  0  0  0
    8.6933   -0.3346   21.3302 C   0  0  0  0  0  0  0  0  0  0  0  0
    9.5875    0.9177   20.7833 S   0  0  0  0  0  0  0  0  0  0  0  0
    7.3905   -0.6374   20.9827 N   0  0  0  0  0  0  0  0  0  0  0  0
    6.6889    0.0174   19.8940 C   0  0  0  0  0  0  0  0  0  0  0  0
    5.4682    0.6359   20.1577 C   0  0  0  0  0  0  0  0  0  0  0  0
    4.8260    1.3049   19.1108 C   0  0  0  0  0  0  0  0  0  0  0  0
    5.4077    1.2912   17.8400 C   0  0  0  0  0  0  0  0  0  0  0  0
    6.5649    0.6683   17.5665 N   0  0  0  0  0  0  0  0  0  0  0  0
    7.1935    0.0525   18.5746 C   0  0  0  0  0  0  0  0  0  0  0  0
    8.1420   -0.4258   18.3382 H   0  0  0  0  0  0  0  0  0  0  0  0
    4.9299    1.7948   17.0042 H   0  0  0  0  0  0  0  0  0  0  0  0
    3.8926    1.8306   19.2699 H   0  0  0  0  0  0  0  0  0  0  0  0
    5.0517    0.5820   21.1614 H   0  0  0  0  0  0  0  0  0  0  0  0
  1  2  2  0
  2  3  1  0
  3  4  2  3
  4  5  1  0
  5  6  2  0
  6  7  1  0
  7  8  2  0
  8  9  1  0
  9 10  2  0
 10 11  1  0
 11 12  2  0
 12 13  1  0
 11 14  1  0
 10 15  1  0
  9 16  1  0
  8 17  1  0
  6 18  1  0
  4 19  1  0
  3 20  1  0
 20 21  1  0
 21 22  2  0
 21 23  1  0
 23 24  1  0
 24 25  2  0
 25 26  1  0
 26 27  2  0
 27 28  1  0
 28 29  2  0
 29 30  1  0
 27 31  1  0
 26 32  1  0
 25 33  1  0
 23  2  1  0
 29 24  1  0
 13  5  1  0
 12  7  1  0
M  END
>  <cnnaffinity>  (1) 
-5.74861

>  <filename>  (1) 
O=C1C(=Cc2cc3ccccc3s2)SC(=S)N1c1cccnc1

$$$$
