
     RDKit          3D

 22 23  0  0  0  0  0  0  0  0999 V2000
    4.9591    1.8338   17.1327 H   0  0  0  0  0  0  0  0  0  0  0  0
    5.4113    1.2248   17.9125 C   0  0  0  0  0  0  0  0  0  0  0  0
    6.5244    0.5602   17.5602 N   0  0  0  0  0  0  0  0  0  0  0  0
    7.1444   -0.1455   18.5104 C   0  0  0  0  0  0  0  0  0  0  0  0
    8.0785   -0.6373   18.2419 H   0  0  0  0  0  0  0  0  0  0  0  0
    6.6756   -0.2414   19.8395 C   0  0  0  0  0  0  0  0  0  0  0  0
    7.4792   -0.8675   20.8452 N   0  0  0  0  0  0  0  0  0  0  0  0
    7.1469   -1.8111   21.8202 C   0  0  0  0  0  0  0  0  0  0  0  0
    5.9537   -2.4254   21.7236 O   0  0  0  0  0  0  0  0  0  0  0  0
    5.5431   -3.3113   22.7185 C   0  0  0  0  0  0  0  0  0  0  0  0
    5.4277   -2.8297   23.7017 H   0  0  0  0  0  0  0  0  0  0  0  0
    4.3738   -3.7986   22.3068 F   0  0  0  0  0  0  0  0  0  0  0  0
    6.4161   -4.3335   22.8333 F   0  0  0  0  0  0  0  0  0  0  0  0
    8.1924   -1.9300   22.6498 C   0  0  0  0  0  0  0  0  0  0  0  0
    8.4125   -2.5470   23.5021 H   0  0  0  0  0  0  0  0  0  0  0  0
    9.1889   -1.0659   22.2334 O   0  0  0  0  0  0  0  0  0  0  0  0
    8.7675   -0.3957   21.1316 C   0  0  0  0  0  0  0  0  0  0  0  0
    9.4106    0.4399   20.5527 O   0  0  0  0  0  0  0  0  0  0  0  0
    5.4802    0.3937   20.1786 C   0  0  0  0  0  0  0  0  0  0  0  0
    5.0815    0.2982   21.1896 H   0  0  0  0  0  0  0  0  0  0  0  0
    4.8489    1.1653   19.1933 C   0  0  0  0  0  0  0  0  0  0  0  0
    3.9561    1.7419   19.4099 H   0  0  0  0  0  0  0  0  0  0  0  0
  1  2  1  0
  2  3  2  0
  3  4  1  0
  4  5  1  0
  4  6  2  0
  6  7  1  0
  7  8  1  0
  8  9  1  0
  9 10  1  0
 10 11  1  0
 10 12  1  0
 10 13  1  0
  8 14  2  0
 14 15  1  0
 14 16  1  0
 16 17  1  0
 17 18  2  0
  6 19  1  0
 19 20  1  0
 19 21  2  0
 21 22  1  0
 21  2  1  0
 17  7  1  0
M  END
>  <cnnaffinity>  (1) 
-4.13143

>  <filename>  (1) 
O=c1occ(OC(F)F)n1-c1cccnc1

$$$$
