
     RDKit          3D

 32 34  0  0  0  0  0  0  0  0999 V2000
    4.9779    1.8320   17.0154 H   0  0  0  0  0  0  0  0  0  0  0  0
    5.4716    1.3032   17.8266 C   0  0  0  0  0  0  0  0  0  0  0  0
    6.6554    0.7431   17.5283 N   0  0  0  0  0  0  0  0  0  0  0  0
    7.2942    0.0855   18.5021 C   0  0  0  0  0  0  0  0  0  0  0  0
    8.2553   -0.3611   18.2483 H   0  0  0  0  0  0  0  0  0  0  0  0
    6.7776   -0.0762   19.8074 C   0  0  0  0  0  0  0  0  0  0  0  0
    7.4811   -0.8053   20.7962 N   0  0  0  0  0  0  0  0  0  0  0  0
    6.8700   -1.5833   21.7666 C   0  0  0  0  0  0  0  0  0  0  0  0
    5.7306   -1.9812   21.7787 O   0  0  0  0  0  0  0  0  0  0  0  0
    7.8200   -1.8770   22.7331 N   0  0  0  0  0  0  0  0  0  0  0  0
    7.5743   -2.8487   23.8029 C   0  0  0  0  0  0  0  0  0  0  0  0
    8.4020   -2.7552   24.5121 H   0  0  0  0  0  0  0  0  0  0  0  0
    6.6499   -2.5657   24.3229 H   0  0  0  0  0  0  0  0  0  0  0  0
    7.4539   -4.2803   23.2845 C   0  0  0  0  0  0  0  0  0  0  0  0
    8.5487   -5.1473   23.2019 C   0  0  0  0  0  0  0  0  0  0  0  0
    9.5307   -4.8081   23.5126 H   0  0  0  0  0  0  0  0  0  0  0  0
    8.3602   -6.4363   22.6898 C   0  0  0  0  0  0  0  0  0  0  0  0
    9.2117   -7.1044   22.5959 H   0  0  0  0  0  0  0  0  0  0  0  0
    7.1805   -6.9089   22.2746 N   0  0  0  0  0  0  0  0  0  0  0  0
    6.1356   -6.0793   22.3624 C   0  0  0  0  0  0  0  0  0  0  0  0
    5.1932   -6.4947   22.0147 H   0  0  0  0  0  0  0  0  0  0  0  0
    6.2166   -4.7682   22.8435 C   0  0  0  0  0  0  0  0  0  0  0  0
    5.3652   -4.1004   22.8240 H   0  0  0  0  0  0  0  0  0  0  0  0
    9.0735   -1.4732   22.3450 C   0  0  0  0  0  0  0  0  0  0  0  0
   10.0950   -1.7167   22.9384 O   0  0  0  0  0  0  0  0  0  0  0  0
    8.9015   -0.6733   21.0681 C   0  0  0  0  0  0  0  0  0  0  0  0
    9.1971    0.3636   21.2506 H   0  0  0  0  0  0  0  0  0  0  0  0
    9.5323   -1.0803   20.2712 H   0  0  0  0  0  0  0  0  0  0  0  0
    5.5352    0.5096   20.1042 C   0  0  0  0  0  0  0  0  0  0  0  0
    5.1120    0.3970   21.1014 H   0  0  0  0  0  0  0  0  0  0  0  0
    4.8829    1.2224   19.0943 C   0  0  0  0  0  0  0  0  0  0  0  0
    3.9325    1.7115   19.2801 H   0  0  0  0  0  0  0  0  0  0  0  0
  1  2  1  0
  2  3  2  0
  3  4  1  0
  4  5  1  0
  4  6  2  0
  6  7  1  0
  7  8  1  0
  8  9  2  0
  8 10  1  0
 10 11  1  0
 11 12  1  0
 11 13  1  0
 11 14  1  0
 14 15  2  0
 15 16  1  0
 15 17  1  0
 17 18  1  0
 17 19  2  0
 19 20  1  0
 20 21  1  0
 20 22  2  0
 22 23  1  0
 10 24  1  0
 24 25  2  0
 24 26  1  0
 26 27  1  0
 26 28  1  0
  6 29  1  0
 29 30  1  0
 29 31  2  0
 31 32  1  0
 31  2  1  0
 26  7  1  0
 22 14  1  0
M  END
>  <cnnaffinity>  (1) 
-4.73464

>  <filename>  (1) 
O=C1CN(c2cccnc2)C(=O)N1Cc1ccncc1

$$$$
