
     RDKit          3D

 39 42  0  0  0  0  0  0  0  0999 V2000
    4.8102    1.8224   17.0672 H   0  0  0  0  0  0  0  0  0  0  0  0
    5.4040    1.4046   17.8766 C   0  0  0  0  0  0  0  0  0  0  0  0
    6.4869    0.6920   17.5089 N   0  0  0  0  0  0  0  0  0  0  0  0
    7.2392    0.1798   18.4701 C   0  0  0  0  0  0  0  0  0  0  0  0
    8.1056   -0.4018   18.1572 H   0  0  0  0  0  0  0  0  0  0  0  0
    7.0106    0.3197   19.8993 C   0  0  0  0  0  0  0  0  0  0  0  0
    7.8593   -0.2987   20.7102 N   0  0  0  0  0  0  0  0  0  0  0  0
    9.9710   -2.3455   21.2151 C   0  0  0  0  0  0  0  0  0  0  0  0
   10.0470   -2.1411   21.2345 O   0  0  0  0  0  0  0  0  0  0  0  0
    9.8641   -1.5093   22.6011 C   0  0  0  0  0  0  0  0  0  0  0  0
    9.1118   -2.1234   23.1843 H   0  0  0  0  0  0  0  0  0  0  0  0
   10.7457   -1.6803   23.3088 H   0  0  0  0  0  0  0  0  0  0  0  0
    9.3320   -0.0665   22.6644 C   0  0  0  0  0  0  0  0  0  0  0  0
    9.3420    0.2118   23.7194 H   0  0  0  0  0  0  0  0  0  0  0  0
   10.0087    0.6202   22.1410 H   0  0  0  0  0  0  0  0  0  0  0  0
    7.9149    0.1266   22.0783 C   0  0  2  0  0  0  0  0  0  0  0  0
    7.6969    1.2066   22.1713 H   0  0  0  0  0  0  0  0  0  0  0  0
    6.8024   -0.5936   22.8844 C   0  0  0  0  0  0  0  0  0  0  0  0
    5.8845   -0.5505   22.2948 H   0  0  0  0  0  0  0  0  0  0  0  0
    7.0402   -1.6505   23.0100 H   0  0  0  0  0  0  0  0  0  0  0  0
    6.5544   -0.0153   24.2004 N   0  0  0  0  0  0  0  0  0  0  0  0
    7.2197   -0.3955   25.3622 C   0  0  0  0  0  0  0  0  0  0  0  0
    8.0208   -1.3020   25.4262 O   0  0  0  0  0  0  0  0  0  0  0  0
    6.7762    0.5345   26.4384 C   0  0  0  0  0  0  0  0  0  0  0  0
    7.1321    0.6046   27.7846 C   0  0  0  0  0  0  0  0  0  0  0  0
    7.8413   -0.0990   28.2152 H   0  0  0  0  0  0  0  0  0  0  0  0
    6.5578    1.6224   28.5534 C   0  0  0  0  0  0  0  0  0  0  0  0
    6.8033    1.7003   29.6098 H   0  0  0  0  0  0  0  0  0  0  0  0
    5.6661    2.5524   27.9747 C   0  0  0  0  0  0  0  0  0  0  0  0
    5.2452    3.3431   28.5906 H   0  0  0  0  0  0  0  0  0  0  0  0
    5.3245    2.4765   26.6192 C   0  0  0  0  0  0  0  0  0  0  0  0
    4.6502    3.1991   26.1630 H   0  0  0  0  0  0  0  0  0  0  0  0
    5.8910    1.4464   25.8686 C   0  0  0  0  0  0  0  0  0  0  0  0
    5.7561    1.0994   24.4214 C   0  0  0  0  0  0  0  0  0  0  0  0
    5.1040    1.6536   23.5659 O   0  0  0  0  0  0  0  0  0  0  0  0
    5.8510    1.0983   20.2331 C   0  0  0  0  0  0  0  0  0  0  0  0
    5.5948    1.3051   21.2730 H   0  0  0  0  0  0  0  0  0  0  0  0
    5.0498    1.6123   19.2075 C   0  0  0  0  0  0  0  0  0  0  0  0
    4.1579    2.1848   19.4402 H   0  0  0  0  0  0  0  0  0  0  0  0
  1  2  1  0
  2  3  2  0
  3  4  1  0
  4  5  1  0
  4  6  2  0
  6  7  1  0
  7  8  1  0
  8  9  2  0
  8 10  1  0
 10 11  1  0
 10 12  1  0
 10 13  1  0
 13 14  1  0
 13 15  1  0
 13 16  1  0
 16 17  1  6
 16 18  1  0
 18 19  1  0
 18 20  1  0
 18 21  1  0
 21 22  1  0
 22 23  2  0
 22 24  1  0
 24 25  2  0
 25 26  1  0
 25 27  1  0
 27 28  1  0
 27 29  2  0
 29 30  1  0
 29 31  1  0
 31 32  1  0
 31 33  2  0
 33 34  1  0
 34 35  2  0
  6 36  1  0
 36 37  1  0
 36 38  2  0
 38 39  1  0
 38  2  1  0
 16  7  1  0
 34 21  1  0
 33 24  1  0
M  END
>  <cnnaffinity>  (1) 
-5.08287

>  <filename>  (1) 
O=C1c2ccccc2C(=O)N1C[C@H]1CCC(=O)N1c1cccnc1

$$$$
