
     RDKit          3D

 30 32  0  0  0  0  0  0  0  0999 V2000
    5.0002    1.7385   16.9895 H   0  0  0  0  0  0  0  0  0  0  0  0
    5.4489    1.2813   17.8692 C   0  0  0  0  0  0  0  0  0  0  0  0
    6.6224    0.6607   17.6772 N   0  0  0  0  0  0  0  0  0  0  0  0
    7.1848    0.0765   18.7401 C   0  0  0  0  0  0  0  0  0  0  0  0
    8.1316   -0.4295   18.5643 H   0  0  0  0  0  0  0  0  0  0  0  0
    6.6520    0.0838   20.0415 C   0  0  0  0  0  0  0  0  0  0  0  0
    7.3959   -0.6182   21.1005 C   0  0  0  0  0  0  0  0  0  0  0  0
    8.0851   -1.7658   21.1027 C   0  0  0  0  0  0  0  0  0  0  0  0
    8.2740   -2.5239   20.3743 H   0  0  0  0  0  0  0  0  0  0  0  0
    8.6042   -2.0437   22.3335 O   0  0  0  0  0  0  0  0  0  0  0  0
    8.2628   -1.0420   23.1975 C   0  0  0  0  0  0  0  0  0  0  0  0
    8.5612   -1.0197   24.3557 O   0  0  0  0  0  0  0  0  0  0  0  0
    7.5189   -0.1377   22.4257 N   0  0  0  0  0  0  0  0  0  0  0  0
    7.0550    1.0394   22.9037 C   0  0  0  0  0  0  0  0  0  0  0  0
    6.6686    2.0800   23.3726 C   0  0  0  0  0  0  0  0  0  0  0  0
    6.2392    3.3314   23.9355 C   0  0  0  0  0  0  0  0  0  0  0  0
    6.7403    3.7731   25.1791 C   0  0  0  0  0  0  0  0  0  0  0  0
    7.4677    3.1643   25.7086 H   0  0  0  0  0  0  0  0  0  0  0  0
    6.3087    4.9869   25.7237 C   0  0  0  0  0  0  0  0  0  0  0  0
    6.6950    5.3231   26.6885 H   0  0  0  0  0  0  0  0  0  0  0  0
    5.3741    5.7679   25.0268 C   0  0  0  0  0  0  0  0  0  0  0  0
    5.0277    6.7072   25.4519 H   0  0  0  0  0  0  0  0  0  0  0  0
    4.8777    5.3483   23.7847 C   0  0  0  0  0  0  0  0  0  0  0  0
    4.1543    5.9595   23.2409 H   0  0  0  0  0  0  0  0  0  0  0  0
    5.3147    4.1374   23.2421 C   0  0  0  0  0  0  0  0  0  0  0  0
    4.9533    3.8078   22.2714 H   0  0  0  0  0  0  0  0  0  0  0  0
    5.4217    0.7503   20.2141 C   0  0  0  0  0  0  0  0  0  0  0  0
    4.9629    0.7998   21.1966 H   0  0  0  0  0  0  0  0  0  0  0  0
    4.8081    1.3424   19.1103 C   0  0  0  0  0  0  0  0  0  0  0  0
    3.8541    1.8529   19.1886 H   0  0  0  0  0  0  0  0  0  0  0  0
  1  2  1  0
  2  3  2  0
  3  4  1  0
  4  5  1  0
  4  6  2  0
  6  7  1  0
  7  8  2  0
  8  9  1  0
  8 10  1  0
 10 11  1  0
 11 12  2  0
 11 13  1  0
 13 14  1  0
 14 15  3  0
 15 16  1  0
 16 17  2  0
 17 18  1  0
 17 19  1  0
 19 20  1  0
 19 21  2  0
 21 22  1  0
 21 23  1  0
 23 24  1  0
 23 25  2  0
 25 26  1  0
  6 27  1  0
 27 28  1  0
 27 29  2  0
 29 30  1  0
 29  2  1  0
 13  7  1  0
 25 16  1  0
M  END
>  <cnnaffinity>  (1) 
-4.80367

>  <filename>  (1) 
O=c1occ(-c2cccnc2)n1C#Cc1ccccc1

$$$$
