
     RDKit          3D

 42 45  0  0  0  0  0  0  0  0999 V2000
    5.6472   -6.4609   27.7965 O   0  0  0  0  0  0  0  0  0  0  0  0
    5.8209   -5.3455   27.3416 C   0  0  0  0  0  0  0  0  0  0  0  0
    6.3640   -4.9733   26.0295 C   0  0  0  0  0  0  0  0  0  0  0  0
    6.5792   -3.6680   25.6989 C   0  0  0  0  0  0  0  0  0  0  0  0
    6.9613   -3.2258   24.2922 C   0  0  0  0  0  0  0  0  0  0  0  0
    7.7072   -1.8553   24.2289 C   0  0  0  0  0  0  0  0  0  0  0  0
    7.8062   -1.3683   22.8059 C   0  0  0  0  0  0  0  0  0  0  0  0
    6.8867   -0.6493   22.1903 N   0  0  0  0  0  0  0  0  0  0  0  0
    7.3097   -0.5972   20.9103 C   0  0  0  0  0  0  0  0  0  0  0  0
    6.5752    0.0753   19.8479 C   0  0  0  0  0  0  0  0  0  0  0  0
    5.3518    0.7305   20.0559 C   0  0  0  0  0  0  0  0  0  0  0  0
    4.7672    1.3695   18.9664 C   0  0  0  0  0  0  0  0  0  0  0  0
    5.4178    1.3288   17.7279 C   0  0  0  0  0  0  0  0  0  0  0  0
    6.5746    0.6831   17.5177 N   0  0  0  0  0  0  0  0  0  0  0  0
    7.1346    0.0699   18.5623 C   0  0  0  0  0  0  0  0  0  0  0  0
    8.0744   -0.4488   18.3707 H   0  0  0  0  0  0  0  0  0  0  0  0
    4.9864    1.8321   16.8663 H   0  0  0  0  0  0  0  0  0  0  0  0
    3.8326    1.9103   19.0662 H   0  0  0  0  0  0  0  0  0  0  0  0
    4.8840    0.7458   21.0434 H   0  0  0  0  0  0  0  0  0  0  0  0
    8.4461   -1.2267   20.6912 N   0  0  0  0  0  0  0  0  0  0  0  0
    8.7534   -1.7457   21.9001 N   0  0  0  0  0  0  0  0  0  0  0  0
   10.0305   -2.4223   21.9786 C   0  0  0  0  0  0  0  0  0  0  0  0
   11.2051   -1.5121   22.2848 C   0  0  0  0  0  0  0  0  0  0  0  0
   11.0543   -0.9150   23.4859 F   0  0  0  0  0  0  0  0  0  0  0  0
   12.3252   -2.2560   22.3270 F   0  0  0  0  0  0  0  0  0  0  0  0
   11.3900   -0.5577   21.3684 F   0  0  0  0  0  0  0  0  0  0  0  0
   10.0232   -3.2264   22.7138 H   0  0  0  0  0  0  0  0  0  0  0  0
   10.1814   -2.8345   20.9842 H   0  0  0  0  0  0  0  0  0  0  0  0
    7.0429   -0.7927   25.1436 C   0  0  0  0  0  0  0  0  0  0  0  0
    6.9969   -1.2811   26.5949 C   0  0  0  0  0  0  0  0  0  0  0  0
    6.3871   -2.6564   26.7458 C   0  0  0  0  0  0  0  0  0  0  0  0
    5.7742   -2.9246   27.8641 N   0  0  0  0  0  0  0  0  0  0  0  0
    5.4454   -4.2297   28.0892 N   0  0  0  0  0  0  0  0  0  0  0  0
    5.0566   -4.4757   28.9872 H   0  0  0  0  0  0  0  0  0  0  0  0
    8.0295   -1.3335   26.9722 H   0  0  0  0  0  0  0  0  0  0  0  0
    6.4701   -0.5914   27.2592 H   0  0  0  0  0  0  0  0  0  0  0  0
    6.0270   -0.5751   24.7892 H   0  0  0  0  0  0  0  0  0  0  0  0
    7.6139    0.1454   25.1029 H   0  0  0  0  0  0  0  0  0  0  0  0
    8.7260   -2.0139   24.6095 H   0  0  0  0  0  0  0  0  0  0  0  0
    7.5994   -4.0004   23.8478 H   0  0  0  0  0  0  0  0  0  0  0  0
    6.0517   -3.1673   23.6700 H   0  0  0  0  0  0  0  0  0  0  0  0
    6.5718   -5.8136   25.3774 H   0  0  0  0  0  0  0  0  0  0  0  0
  1  2  2  0
  2  3  1  0
  3  4  2  0
  4  5  1  0
  5  6  1  0
  6  7  1  0
  7  8  2  0
  8  9  1  0
  9 10  1  0
 10 11  2  0
 11 12  1  0
 12 13  2  0
 13 14  1  0
 14 15  2  0
 15 16  1  0
 13 17  1  0
 12 18  1  0
 11 19  1  0
  9 20  2  0
 20 21  1  0
 21 22  1  0
 22 23  1  0
 23 24  1  0
 23 25  1  0
 23 26  1  0
 22 27  1  0
 22 28  1  0
  6 29  1  0
 29 30  1  0
 30 31  1  0
 31 32  2  0
 32 33  1  0
 33 34  1  0
 30 35  1  0
 30 36  1  0
 29 37  1  0
 29 38  1  0
  6 39  1  0
  5 40  1  0
  5 41  1  0
  3 42  1  0
 33  2  1  0
 31  4  1  0
 21  7  1  0
 15 10  1  0
M  END
>  <cnnaffinity>  (1) 
-6.3344

>  <filename>  (1) 
O=c1cc2c(n[nH]1)CCC(c1nc(-c3cccnc3)nn1CC(F)(F)F)C2

$$$$
