
     RDKit          3D

 32 34  0  0  0  0  0  0  0  0999 V2000
    4.9408    1.7856   16.9963 H   0  0  0  0  0  0  0  0  0  0  0  0
    5.3968    1.2826   17.8464 C   0  0  0  0  0  0  0  0  0  0  0  0
    6.5631    0.6640   17.6048 N   0  0  0  0  0  0  0  0  0  0  0  0
    7.1793    0.0685   18.6307 C   0  0  0  0  0  0  0  0  0  0  0  0
    8.1307   -0.4006   18.3832 H   0  0  0  0  0  0  0  0  0  0  0  0
    6.6747    0.0579   19.9464 C   0  0  0  0  0  0  0  0  0  0  0  0
    7.3597   -0.6017   21.0117 N   0  0  0  0  0  0  0  0  0  0  0  0
    7.3390   -0.0008   22.2350 N   0  0  0  0  0  0  0  0  0  0  0  0
    7.9522   -0.5882   23.2342 C   0  0  0  0  0  0  0  0  0  0  0  0
    7.9110    0.0336   24.4655 N   0  0  0  0  0  0  0  0  0  0  0  0
    8.1958   -0.5224   25.2603 H   0  0  0  0  0  0  0  0  0  0  0  0
    7.5846    1.3791   24.6895 C   0  0  0  0  0  0  0  0  0  0  0  0
    7.9396    2.3853   23.7792 C   0  0  0  0  0  0  0  0  0  0  0  0
    8.4627    2.0880   22.8749 H   0  0  0  0  0  0  0  0  0  0  0  0
    7.5769    3.7114   24.0253 C   0  0  0  0  0  0  0  0  0  0  0  0
    7.8041    4.4936   23.3024 H   0  0  0  0  0  0  0  0  0  0  0  0
    6.8686    4.0216   25.1903 C   0  0  0  0  0  0  0  0  0  0  0  0
    6.3845    5.6673   25.4734 Cl  0  0  0  0  0  0  0  0  0  0  0  0
    6.5433    3.0305   26.1254 C   0  0  0  0  0  0  0  0  0  0  0  0
    5.9991    3.3004   27.0265 H   0  0  0  0  0  0  0  0  0  0  0  0
    6.9213    1.7071   25.8753 C   0  0  0  0  0  0  0  0  0  0  0  0
    6.6940    0.9034   26.5716 H   0  0  0  0  0  0  0  0  0  0  0  0
    8.6690   -1.9252   23.1283 C   0  0  0  0  0  0  0  0  0  0  0  0
    9.2328   -2.4617   24.0802 O   0  0  0  0  0  0  0  0  0  0  0  0
    8.5954   -2.4876   21.7920 C   0  0  0  0  0  0  0  0  0  0  0  0
    9.0750   -3.4383   21.6258 H   0  0  0  0  0  0  0  0  0  0  0  0
    7.9338   -1.8173   20.8226 C   0  0  0  0  0  0  0  0  0  0  0  0
    7.7417   -2.1564   19.8233 H   0  0  0  0  0  0  0  0  0  0  0  0
    5.4442    0.6801   20.1847 C   0  0  0  0  0  0  0  0  0  0  0  0
    5.0566    0.6497   21.2010 H   0  0  0  0  0  0  0  0  0  0  0  0
    4.7991    1.3034   19.1110 C   0  0  0  0  0  0  0  0  0  0  0  0
    3.8653    1.8346   19.2489 H   0  0  0  0  0  0  0  0  0  0  0  0
  1  2  1  0
  2  3  2  0
  3  4  1  0
  4  5  1  0
  4  6  2  0
  6  7  1  0
  7  8  1  0
  8  9  2  0
  9 10  1  0
 10 11  1  0
 10 12  1  0
 12 13  2  0
 13 14  1  0
 13 15  1  0
 15 16  1  0
 15 17  2  0
 17 18  1  0
 17 19  1  0
 19 20  1  0
 19 21  2  0
 21 22  1  0
  9 23  1  0
 23 24  2  0
 23 25  1  0
 25 26  1  0
 25 27  2  0
 27 28  1  0
  6 29  1  0
 29 30  1  0
 29 31  2  0
 31 32  1  0
 31  2  1  0
 27  7  1  0
 21 12  1  0
M  END
>  <cnnaffinity>  (1) 
-5.29096

>  <filename>  (1) 
O=c1ccn(-c2cccnc2)nc1Nc1ccc(Cl)cc1

$$$$
