
     RDKit          3D

 35 38  0  0  0  0  0  0  0  0999 V2000
    4.9159    1.8050   16.9724 H   0  0  0  0  0  0  0  0  0  0  0  0
    5.3882    1.3037   17.8165 C   0  0  0  0  0  0  0  0  0  0  0  0
    6.5507    0.6850   17.5552 N   0  0  0  0  0  0  0  0  0  0  0  0
    7.1660    0.0749   18.5774 C   0  0  0  0  0  0  0  0  0  0  0  0
    8.1068   -0.4203   18.3343 H   0  0  0  0  0  0  0  0  0  0  0  0
    6.6659    0.0188   19.8927 C   0  0  0  0  0  0  0  0  0  0  0  0
    7.3962   -0.7029   20.9668 C   0  0  0  0  0  0  0  0  0  0  0  0
    6.6961   -1.5501   21.8739 C   0  0  0  0  0  0  0  0  0  0  0  0
    5.6256   -1.6731   21.7299 H   0  0  0  0  0  0  0  0  0  0  0  0
    7.3548   -2.2096   22.8621 C   0  0  0  0  0  0  0  0  0  0  0  0
    6.8714   -2.8513   23.5828 H   0  0  0  0  0  0  0  0  0  0  0  0
    8.7905   -2.0890   23.0547 C   0  0  0  0  0  0  0  0  0  0  0  0
    9.3896   -2.6622   23.9467 O   0  0  0  0  0  0  0  0  0  0  0  0
    9.4471   -1.2357   22.1122 N   0  0  0  0  0  0  0  0  0  0  0  0
   10.8598   -1.0191   22.2341 C   0  0  0  0  0  0  0  0  0  0  0  0
   11.7292   -2.0906   22.1046 C   0  0  0  0  0  0  0  0  0  0  0  0
   11.2725   -3.0674   22.0677 H   0  0  0  0  0  0  0  0  0  0  0  0
   13.1292   -1.9056   22.1317 C   0  0  0  0  0  0  0  0  0  0  0  0
   13.7790   -2.7713   22.0093 H   0  0  0  0  0  0  0  0  0  0  0  0
   13.6794   -0.6571   22.4037 C   0  0  0  0  0  0  0  0  0  0  0  0
   14.7515   -0.5389   22.5297 H   0  0  0  0  0  0  0  0  0  0  0  0
   12.7898    0.4240   22.5794 C   0  0  0  0  0  0  0  0  0  0  0  0
   11.3852    0.2736   22.4768 C   0  0  0  0  0  0  0  0  0  0  0  0
   10.8107    1.5709   22.7044 C   0  0  0  0  0  0  0  0  0  0  0  0
    9.7468    1.7804   22.7118 H   0  0  0  0  0  0  0  0  0  0  0  0
   11.8446    2.4334   22.9254 C   0  0  0  0  0  0  0  0  0  0  0  0
   11.8347    3.4988   23.1139 H   0  0  0  0  0  0  0  0  0  0  0  0
   13.0362    1.7426   22.8617 N   0  0  0  0  0  0  0  0  0  0  0  0
   13.9630    2.1262   22.9607 H   0  0  0  0  0  0  0  0  0  0  0  0
    8.7471   -0.5804   21.1205 C   0  0  0  0  0  0  0  0  0  0  0  0
    9.3437    0.0663   20.4875 H   0  0  0  0  0  0  0  0  0  0  0  0
    5.4404    0.6593   20.1344 C   0  0  0  0  0  0  0  0  0  0  0  0
    5.0170    0.6467   21.1385 H   0  0  0  0  0  0  0  0  0  0  0  0
    4.7986    1.3203   19.0856 C   0  0  0  0  0  0  0  0  0  0  0  0
    3.8648    1.8492   19.2358 H   0  0  0  0  0  0  0  0  0  0  0  0
  1  2  1  0
  2  3  2  0
  3  4  1  0
  4  5  1  0
  4  6  2  0
  6  7  1  0
  7  8  1  0
  8  9  1  0
  8 10  2  0
 10 11  1  0
 10 12  1  0
 12 13  2  0
 12 14  1  0
 14 15  1  0
 15 16  2  0
 16 17  1  0
 16 18  1  0
 18 19  1  0
 18 20  2  0
 20 21  1  0
 20 22  1  0
 22 23  2  0
 23 24  1  0
 24 25  1  0
 24 26  2  0
 26 27  1  0
 26 28  1  0
 28 29  1  0
 14 30  1  0
 30 31  1  0
  6 32  1  0
 32 33  1  0
 32 34  2  0
 34 35  1  0
 34  2  1  0
 30  7  2  0
 23 15  1  0
 28 22  1  0
M  END
>  <cnnaffinity>  (1) 
-6.1039

>  <filename>  (1) 
O=c1ccc(-c2cccnc2)cn1-c1cccc2[nH]ccc12

$$$$
