
     RDKit          3D

 42 45  0  0  0  0  0  0  0  0999 V2000
    5.6779   -1.7740   21.6222 H   0  0  0  0  0  0  0  0  0  0  0  0
    6.7272   -1.5351   21.7896 C   0  0  0  0  0  0  0  0  0  0  0  0
    7.3742   -0.7015   20.9627 C   0  0  0  0  0  0  0  0  0  0  0  0
    6.6603    0.0282   19.8822 C   0  0  0  0  0  0  0  0  0  0  0  0
    7.1759    0.0895   18.5723 C   0  0  0  0  0  0  0  0  0  0  0  0
    8.1224   -0.4007   18.3417 H   0  0  0  0  0  0  0  0  0  0  0  0
    6.5737    0.7004   17.5430 N   0  0  0  0  0  0  0  0  0  0  0  0
    5.4100    1.3190   17.7945 C   0  0  0  0  0  0  0  0  0  0  0  0
    4.9397    1.8224   16.9517 H   0  0  0  0  0  0  0  0  0  0  0  0
    4.8045    1.3318   19.0563 C   0  0  0  0  0  0  0  0  0  0  0  0
    3.8644    1.8525   19.1914 H   0  0  0  0  0  0  0  0  0  0  0  0
    5.4299    0.6705   20.1122 C   0  0  0  0  0  0  0  0  0  0  0  0
    4.9965    0.6682   21.1131 H   0  0  0  0  0  0  0  0  0  0  0  0
    8.8895   -0.6068   21.0878 C   0  0  0  0  0  0  0  0  0  0  0  0
    9.2639    0.2632   20.5462 H   0  0  0  0  0  0  0  0  0  0  0  0
    9.3134   -1.4942   20.5956 H   0  0  0  0  0  0  0  0  0  0  0  0
    9.4005   -0.5685   22.5528 C   0  0  0  0  0  0  0  0  0  0  0  0
   10.4024   -1.0202   22.5883 H   0  0  0  0  0  0  0  0  0  0  0  0
    9.5237    0.4762   22.8706 H   0  0  0  0  0  0  0  0  0  0  0  0
    8.4656   -1.2578   23.5845 C   0  0  2  0  0  0  0  0  0  0  0  0
    7.8635   -0.4666   24.0458 H   0  0  0  0  0  0  0  0  0  0  0  0
    9.2613   -1.9052   24.7320 C   0  0  0  0  0  0  0  0  0  0  0  0
    9.8658   -2.7439   24.3739 H   0  0  0  0  0  0  0  0  0  0  0  0
    9.9589   -1.1813   25.1657 H   0  0  0  0  0  0  0  0  0  0  0  0
    8.3877   -2.3883   25.7927 N   0  0  0  0  0  0  0  0  0  0  0  0
    7.6616   -1.5348   26.6187 C   0  0  0  0  0  0  0  0  0  0  0  0
    7.8721   -0.3518   26.7366 O   0  0  0  0  0  0  0  0  0  0  0  0
    6.6413   -2.3770   27.3020 C   0  0  0  0  0  0  0  0  0  0  0  0
    5.6987   -2.0444   28.2764 C   0  0  0  0  0  0  0  0  0  0  0  0
    5.5401   -1.0108   28.5819 H   0  0  0  0  0  0  0  0  0  0  0  0
    5.0091   -3.0994   28.8811 C   0  0  0  0  0  0  0  0  0  0  0  0
    4.3307   -2.8911   29.7037 H   0  0  0  0  0  0  0  0  0  0  0  0
    5.2365   -4.4373   28.4905 C   0  0  0  0  0  0  0  0  0  0  0  0
    4.7030   -5.2404   28.9891 H   0  0  0  0  0  0  0  0  0  0  0  0
    6.1369   -4.7513   27.4697 C   0  0  0  0  0  0  0  0  0  0  0  0
    6.3126   -5.7795   27.1605 H   0  0  0  0  0  0  0  0  0  0  0  0
    6.8283   -3.6927   26.8813 C   0  0  0  0  0  0  0  0  0  0  0  0
    7.9115   -3.6909   25.8619 C   0  0  0  0  0  0  0  0  0  0  0  0
    8.3228   -4.6033   25.1788 O   0  0  0  0  0  0  0  0  0  0  0  0
    7.4543   -2.2259   22.9163 C   0  0  0  0  0  0  0  0  0  0  0  0
    7.9860   -3.1130   22.5284 H   0  0  0  0  0  0  0  0  0  0  0  0
    6.7231   -2.5869   23.6479 H   0  0  0  0  0  0  0  0  0  0  0  0
  1  2  1  0
  2  3  2  0
  3  4  1  0
  4  5  2  0
  5  6  1  0
  5  7  1  0
  7  8  2  0
  8  9  1  0
  8 10  1  0
 10 11  1  0
 10 12  2  0
 12 13  1  0
  3 14  1  0
 14 15  1  0
 14 16  1  0
 14 17  1  0
 17 18  1  0
 17 19  1  0
 17 20  1  0
 20 21  1  1
 20 22  1  0
 22 23  1  0
 22 24  1  0
 22 25  1  0
 25 26  1  0
 26 27  2  0
 26 28  1  0
 28 29  2  0
 29 30  1  0
 29 31  1  0
 31 32  1  0
 31 33  2  0
 33 34  1  0
 33 35  1  0
 35 36  1  0
 35 37  2  0
 37 38  1  0
 38 39  2  0
 20 40  1  0
 40 41  1  0
 40 42  1  0
 40  2  1  0
 12  4  1  0
 38 25  1  0
 37 28  1  0
M  END
>  <cnnaffinity>  (1) 
-5.48188

>  <filename>  (1) 
O=C1c2ccccc2C(=O)N1C[C@@H]1CC=C(c2cccnc2)CC1

$$$$
