
     RDKit          3D

 26 27  0  0  0  0  0  0  0  0999 V2000
    4.9257    1.7841   16.9922 H   0  0  0  0  0  0  0  0  0  0  0  0
    5.4058    1.2891   17.8337 C   0  0  0  0  0  0  0  0  0  0  0  0
    6.5680    0.6752   17.5642 N   0  0  0  0  0  0  0  0  0  0  0  0
    7.2125    0.1026   18.5846 C   0  0  0  0  0  0  0  0  0  0  0  0
    8.1463   -0.3980   18.3311 H   0  0  0  0  0  0  0  0  0  0  0  0
    6.7175    0.0705   19.9020 C   0  0  0  0  0  0  0  0  0  0  0  0
    7.4724   -0.6645   20.9309 C   0  0  0  0  0  0  0  0  0  0  0  0
    8.7805   -0.4857   21.0134 N   0  0  0  0  0  0  0  0  0  0  0  0
    9.4773   -1.1315   22.0096 C   0  0  0  0  0  0  0  0  0  0  0  0
   10.9463   -0.8365   22.0754 C   0  0  0  0  0  0  0  0  0  0  0  0
   11.5080   -1.6708   22.5067 H   0  0  0  0  0  0  0  0  0  0  0  0
   11.3114   -0.6229   21.0713 H   0  0  0  0  0  0  0  0  0  0  0  0
   11.2458    0.3686   22.9428 C   0  0  0  0  0  0  0  0  0  0  0  0
   12.5739    0.5815   22.9904 F   0  0  0  0  0  0  0  0  0  0  0  0
   10.6693    1.4862   22.4882 F   0  0  0  0  0  0  0  0  0  0  0  0
   10.8278    0.1790   24.2107 F   0  0  0  0  0  0  0  0  0  0  0  0
    8.8841   -1.9374   22.9379 C   0  0  0  0  0  0  0  0  0  0  0  0
    9.4426   -2.4206   23.7353 H   0  0  0  0  0  0  0  0  0  0  0  0
    7.5258   -2.1381   22.8610 N   0  0  0  0  0  0  0  0  0  0  0  0
    6.9630   -2.7592   23.4262 H   0  0  0  0  0  0  0  0  0  0  0  0
    6.7465   -1.6585   21.8176 C   0  0  0  0  0  0  0  0  0  0  0  0
    5.6233   -2.1249   21.7167 O   0  0  0  0  0  0  0  0  0  0  0  0
    5.4719    0.6712   20.1560 C   0  0  0  0  0  0  0  0  0  0  0  0
    5.0113    0.6091   21.1453 H   0  0  0  0  0  0  0  0  0  0  0  0
    4.8220    1.3111   19.1029 C   0  0  0  0  0  0  0  0  0  0  0  0
    3.8840    1.8299   19.2503 H   0  0  0  0  0  0  0  0  0  0  0  0
  1  2  1  0
  2  3  2  0
  3  4  1  0
  4  5  1  0
  4  6  2  0
  6  7  1  0
  7  8  2  0
  8  9  1  0
  9 10  1  0
 10 11  1  0
 10 12  1  0
 10 13  1  0
 13 14  1  0
 13 15  1  0
 13 16  1  0
  9 17  2  0
 17 18  1  0
 17 19  1  0
 19 20  1  0
 19 21  1  0
 21 22  2  0
  6 23  1  0
 23 24  1  0
 23 25  2  0
 25 26  1  0
 25  2  1  0
 21  7  1  0
M  END
>  <cnnaffinity>  (1) 
-5.52014

>  <filename>  (1) 
O=c1[nH]cc(CC(F)(F)F)nc1-c1cccnc1

$$$$
