
     RDKit          3D

 30 32  0  0  0  0  0  0  0  0999 V2000
   10.6201    1.4990   26.3542 H   0  0  0  0  0  0  0  0  0  0  0  0
   10.5247    0.5582   26.1654 O   0  0  0  0  0  0  0  0  0  0  0  0
    9.0003    0.5756   25.7298 P   0  0  0  0  0  0  0  0  0  0  0  0
    8.9293    1.4849   24.5640 O   0  0  0  0  0  0  0  0  0  0  0  0
    8.5174    1.3424   27.0329 O   0  0  0  0  0  0  0  0  0  0  0  0
    9.3808    1.6622   27.3528 H   0  0  0  0  0  0  0  0  0  0  0  0
    8.1357   -1.1049   25.3793 C   0  0  0  0  0  0  0  0  0  0  0  0
    6.7717   -1.0013   25.3289 F   0  0  0  0  0  0  0  0  0  0  0  0
    8.4227   -2.0105   26.3688 F   0  0  0  0  0  0  0  0  0  0  0  0
    8.5944   -1.6520   24.0887 N   0  0  0  0  0  0  0  0  0  0  0  0
    9.8785   -2.1664   23.8302 C   0  0  0  0  0  0  0  0  0  0  0  0
   10.5774   -2.5168   24.5861 H   0  0  0  0  0  0  0  0  0  0  0  0
   10.1217   -2.1654   22.4610 C   0  0  0  0  0  0  0  0  0  0  0  0
   11.0126   -2.4982   21.9391 H   0  0  0  0  0  0  0  0  0  0  0  0
    8.9953   -1.6313   21.8651 N   0  0  0  0  0  0  0  0  0  0  0  0
    8.6036   -1.2634   20.6164 N   0  0  0  0  0  0  0  0  0  0  0  0
    7.4482   -0.6534   20.8450 C   0  0  0  0  0  0  0  0  0  0  0  0
    6.6866    0.0025   19.8002 C   0  0  0  0  0  0  0  0  0  0  0  0
    7.1951   -0.0074   18.4988 C   0  0  0  0  0  0  0  0  0  0  0  0
    8.1384   -0.5090   18.3095 H   0  0  0  0  0  0  0  0  0  0  0  0
    6.5873    0.5946   17.4649 N   0  0  0  0  0  0  0  0  0  0  0  0
    5.4365    1.2478   17.7026 C   0  0  0  0  0  0  0  0  0  0  0  0
    4.9432    1.7652   16.8838 H   0  0  0  0  0  0  0  0  0  0  0  0
    4.8679    1.3081   18.9786 C   0  0  0  0  0  0  0  0  0  0  0  0
    3.9413    1.8500   19.1127 H   0  0  0  0  0  0  0  0  0  0  0  0
    5.4952    0.6874   20.0567 C   0  0  0  0  0  0  0  0  0  0  0  0
    5.0690    0.7529   21.0583 H   0  0  0  0  0  0  0  0  0  0  0  0
    7.0815   -0.6473   22.2638 C   0  0  0  0  0  0  0  0  0  0  0  0
    6.2101   -0.2057   22.7316 H   0  0  0  0  0  0  0  0  0  0  0  0
    8.1247   -1.2862   22.8374 C   0  0  0  0  0  0  0  0  0  0  0  0
  1  2  1  0
  2  3  1  0
  3  4  2  0
  3  5  1  0
  5  6  1  0
  3  7  1  0
  7  8  1  0
  7  9  1  0
  7 10  1  0
 10 11  1  0
 11 12  1  0
 11 13  2  0
 13 14  1  0
 13 15  1  0
 15 16  1  0
 16 17  2  0
 17 18  1  0
 18 19  2  0
 19 20  1  0
 19 21  1  0
 21 22  2  0
 22 23  1  0
 22 24  1  0
 24 25  1  0
 24 26  2  0
 26 27  1  0
 17 28  1  0
 28 29  1  0
 28 30  2  0
 30 10  1  0
 30 15  1  0
 26 18  1  0
M  END
>  <cnnaffinity>  (1) 
-5.06363

>  <filename>  (1) 
O=P(O)(O)C(F)(F)n1ccn2nc(-c3cccnc3)cc12

$$$$
