
     RDKit          3D

 30 31  0  0  0  0  0  0  0  0999 V2000
   11.4277   -3.5007   24.4918 H   0  0  0  0  0  0  0  0  0  0  0  0
   10.9863   -3.3516   23.6466 O   0  0  0  0  0  0  0  0  0  0  0  0
    9.5815   -2.8992   24.2064 P   0  0  0  0  0  0  0  0  0  0  0  0
    9.8407   -1.7445   25.0804 O   0  0  0  0  0  0  0  0  0  0  0  0
    9.2585   -4.1125   25.1672 O   0  0  0  0  0  0  0  0  0  0  0  0
   10.0375   -4.0891   25.7358 H   0  0  0  0  0  0  0  0  0  0  0  0
    8.3104   -2.4895   22.9099 C   0  0  0  0  0  0  0  0  0  0  0  0
    8.1095   -3.4754   21.9773 F   0  0  0  0  0  0  0  0  0  0  0  0
    7.0799   -2.1733   23.4217 F   0  0  0  0  0  0  0  0  0  0  0  0
    8.9347   -1.2945   22.2697 C   0  0  0  0  0  0  0  0  0  0  0  0
   10.1659   -0.8949   22.4682 N   0  0  0  0  0  0  0  0  0  0  0  0
   10.4726    0.2573   21.5945 C   0  0  0  0  0  0  0  0  0  0  0  0
   10.6841    1.1438   22.1996 H   0  0  0  0  0  0  0  0  0  0  0  0
   11.3693    0.0540   21.0015 H   0  0  0  0  0  0  0  0  0  0  0  0
    9.2390    0.4793   20.7063 C   0  0  0  0  0  0  0  0  0  0  0  0
    8.8575    1.5002   20.7958 H   0  0  0  0  0  0  0  0  0  0  0  0
    9.4413    0.2704   19.6543 H   0  0  0  0  0  0  0  0  0  0  0  0
    8.2674   -0.4970   21.2653 C   0  0  0  0  0  0  0  0  0  0  0  0
    6.9334   -0.5781   20.9093 C   0  0  0  0  0  0  0  0  0  0  0  0
    6.2696   -1.2260   21.4790 H   0  0  0  0  0  0  0  0  0  0  0  0
    6.3772    0.1687   19.7747 C   0  0  0  0  0  0  0  0  0  0  0  0
    7.1201    0.3291   18.5913 C   0  0  0  0  0  0  0  0  0  0  0  0
    8.1101   -0.1139   18.5344 H   0  0  0  0  0  0  0  0  0  0  0  0
    6.6575    0.9773   17.5054 N   0  0  0  0  0  0  0  0  0  0  0  0
    5.4264    1.5164   17.5712 C   0  0  0  0  0  0  0  0  0  0  0  0
    5.0478    2.0639   16.7125 H   0  0  0  0  0  0  0  0  0  0  0  0
    4.6164    1.3849   18.7043 C   0  0  0  0  0  0  0  0  0  0  0  0
    3.6340    1.8420   18.7040 H   0  0  0  0  0  0  0  0  0  0  0  0
    5.0860    0.6955   19.8239 C   0  0  0  0  0  0  0  0  0  0  0  0
    4.4751    0.5971   20.7196 H   0  0  0  0  0  0  0  0  0  0  0  0
  1  2  1  0
  2  3  1  0
  3  4  2  0
  3  5  1  0
  5  6  1  0
  3  7  1  0
  7  8  1  0
  7  9  1  0
  7 10  1  0
 10 11  2  0
 11 12  1  0
 12 13  1  0
 12 14  1  0
 12 15  1  0
 15 16  1  0
 15 17  1  0
 15 18  1  0
 18 19  2  3
 19 20  1  0
 19 21  1  0
 21 22  2  0
 22 23  1  0
 22 24  1  0
 24 25  2  0
 25 26  1  0
 25 27  1  0
 27 28  1  0
 27 29  2  0
 29 30  1  0
 18 10  1  0
 29 21  1  0
M  END
>  <cnnaffinity>  (1) 
-4.95498

>  <filename>  (1) 
O=P(O)(O)C(F)(F)C1=NCCC1=Cc1cccnc1

$$$$
