
     RDKit          3D

 34 35  0  0  0  0  0  0  0  0999 V2000
    7.4580    1.2200   25.0875 H   0  0  0  0  0  0  0  0  0  0  0  0
    7.1365    2.1170   24.8227 O   0  0  0  0  0  0  0  0  0  0  0  0
    6.9527    1.5752   23.3759 P   0  0  0  0  0  0  0  0  0  0  0  0
    5.6632    1.9334   22.7559 O   0  0  0  0  0  0  0  0  0  0  0  0
    6.9723    0.5838   24.5666 O   0  0  0  0  0  0  0  0  0  0  0  0
    6.6476    1.3409   25.1252 H   0  0  0  0  0  0  0  0  0  0  0  0
    8.2752    1.4633   21.9754 C   0  0  0  0  0  0  0  0  0  0  0  0
    7.8895    2.1005   20.8253 F   0  0  0  0  0  0  0  0  0  0  0  0
    9.4478    2.0698   22.3512 F   0  0  0  0  0  0  0  0  0  0  0  0
    8.5540   -0.0351   21.6465 C   0  0  2  0  0  0  0  0  0  0  0  0
    7.2702   -0.7347   21.1409 C   0  0  0  0  0  0  0  0  0  0  0  0
    7.5136   -1.7576   20.8356 H   0  0  0  0  0  0  0  0  0  0  0  0
    6.5499   -0.8125   21.9639 H   0  0  0  0  0  0  0  0  0  0  0  0
    6.6450    0.0018   19.9686 C   0  0  0  0  0  0  0  0  0  0  0  0
    7.2489    0.0063   18.6943 C   0  0  0  0  0  0  0  0  0  0  0  0
    8.1849   -0.5285   18.5536 H   0  0  0  0  0  0  0  0  0  0  0  0
    6.7217    0.6471   17.6311 N   0  0  0  0  0  0  0  0  0  0  0  0
    5.5714    1.3234   17.8052 C   0  0  0  0  0  0  0  0  0  0  0  0
    5.1371    1.8583   16.9645 H   0  0  0  0  0  0  0  0  0  0  0  0
    4.9120    1.3670   19.0369 C   0  0  0  0  0  0  0  0  0  0  0  0
    3.9923    1.9315   19.1285 H   0  0  0  0  0  0  0  0  0  0  0  0
    5.4499    0.7026   20.1375 C   0  0  0  0  0  0  0  0  0  0  0  0
    4.9527    0.7277   21.1058 H   0  0  0  0  0  0  0  0  0  0  0  0
    9.1643   -0.7576   22.8699 C   0  0  0  0  0  0  0  0  0  0  0  0
    8.5485   -1.6030   23.1969 H   0  0  0  0  0  0  0  0  0  0  0  0
    9.2530   -0.0663   23.7151 H   0  0  0  0  0  0  0  0  0  0  0  0
   10.5023   -1.1994   22.4524 N   0  0  0  0  0  0  0  0  0  0  0  0
   10.4655   -2.1577   22.1031 H   0  0  0  0  0  0  0  0  0  0  0  0
   10.9420   -0.3073   21.3839 C   0  0  0  0  0  0  0  0  0  0  0  0
   11.2694    0.6565   21.7854 H   0  0  0  0  0  0  0  0  0  0  0  0
   11.7606   -0.7364   20.7954 H   0  0  0  0  0  0  0  0  0  0  0  0
    9.6544   -0.1546   20.5945 C   0  0  0  0  0  0  0  0  0  0  0  0
    9.6541    0.7190   19.9411 H   0  0  0  0  0  0  0  0  0  0  0  0
    9.5030   -1.0490   19.9862 H   0  0  0  0  0  0  0  0  0  0  0  0
  1  2  1  0
  2  3  1  0
  3  4  2  0
  3  5  1  0
  5  6  1  0
  3  7  1  0
  7  8  1  0
  7  9  1  0
 10  7  1  1
 10 11  1  0
 11 12  1  0
 11 13  1  0
 11 14  1  0
 14 15  2  0
 15 16  1  0
 15 17  1  0
 17 18  2  0
 18 19  1  0
 18 20  1  0
 20 21  1  0
 20 22  2  0
 22 23  1  0
 10 24  1  0
 24 25  1  0
 24 26  1  0
 24 27  1  0
 27 28  1  0
 27 29  1  0
 29 30  1  0
 29 31  1  0
 29 32  1  0
 32 33  1  0
 32 34  1  0
 32 10  1  0
 22 14  1  0
M  END
>  <cnnaffinity>  (1) 
-4.58327

>  <filename>  (1) 
O=P(O)(O)C(F)(F)[C@@]1(Cc2cccnc2)CCNC1

$$$$
