
     RDKit          3D

 34 35  0  0  0  0  0  0  0  0999 V2000
    9.5111   -3.4612   26.5776 H   0  0  0  0  0  0  0  0  0  0  0  0
    9.4685   -2.7036   25.9344 O   0  0  0  0  0  0  0  0  0  0  0  0
    8.7519   -3.7114   25.0360 P   0  0  0  0  0  0  0  0  0  0  0  0
    7.3246   -3.7820   25.2614 O   0  0  0  0  0  0  0  0  0  0  0  0
    9.7406   -4.2368   26.0737 O   0  0  0  0  0  0  0  0  0  0  0  0
   10.1548   -3.3376   26.0656 H   0  0  0  0  0  0  0  0  0  0  0  0
    8.9290   -4.0993   23.2866 C   0  0  0  0  0  0  0  0  0  0  0  0
    9.1402   -5.1566   23.2299 H   0  0  0  0  0  0  0  0  0  0  0  0
    7.9654   -3.6616   22.1456 N   0  0  0  0  0  0  0  0  0  0  0  0
    7.4895   -4.3440   21.5314 H   0  0  0  0  0  0  0  0  0  0  0  0
    7.7655   -2.3299   21.8187 C   0  0  0  0  0  0  0  0  0  0  0  0
    7.2420   -1.8443   20.6513 C   0  0  0  0  0  0  0  0  0  0  0  0
    6.9082   -2.4495   19.8190 H   0  0  0  0  0  0  0  0  0  0  0  0
    7.1452   -0.4553   20.7398 N   0  0  0  0  0  0  0  0  0  0  0  0
    6.5366    0.3308   19.7460 C   0  0  0  0  0  0  0  0  0  0  0  0
    6.9907    0.2460   18.4134 C   0  0  0  0  0  0  0  0  0  0  0  0
    7.8822   -0.3462   18.2237 H   0  0  0  0  0  0  0  0  0  0  0  0
    6.3832    0.8508   17.3743 N   0  0  0  0  0  0  0  0  0  0  0  0
    5.2854    1.5806   17.6394 C   0  0  0  0  0  0  0  0  0  0  0  0
    4.7774    2.0569   16.8097 H   0  0  0  0  0  0  0  0  0  0  0  0
    4.7832    1.7440   18.9369 C   0  0  0  0  0  0  0  0  0  0  0  0
    3.8915    2.3435   19.0795 H   0  0  0  0  0  0  0  0  0  0  0  0
    5.4233    1.1316   20.0203 C   0  0  0  0  0  0  0  0  0  0  0  0
    5.0413    1.2344   21.0358 H   0  0  0  0  0  0  0  0  0  0  0  0
    7.5293   -0.1153   22.0406 C   0  0  0  0  0  0  0  0  0  0  0  0
    7.4866    1.3514   22.8270 S   0  0  0  0  0  0  0  0  0  0  0  0
    8.0123   -1.2589   22.6446 N   0  0  0  0  0  0  0  0  0  0  0  0
    8.0274   -1.3521   23.6524 H   0  0  0  0  0  0  0  0  0  0  0  0
   10.4267   -3.2785   23.6482 P   0  0  0  0  0  0  0  0  0  0  0  0
   11.2418   -2.6048   22.6549 O   0  0  0  0  0  0  0  0  0  0  0  0
   10.4014   -1.8815   24.0868 O   0  0  0  0  0  0  0  0  0  0  0  0
   11.0044   -1.8416   23.2790 H   0  0  0  0  0  0  0  0  0  0  0  0
   11.3001   -4.2238   24.5123 O   0  0  0  0  0  0  0  0  0  0  0  0
   12.0693   -3.6425   24.5998 H   0  0  0  0  0  0  0  0  0  0  0  0
  1  2  1  0
  2  3  1  0
  3  4  2  0
  3  5  1  0
  5  6  1  0
  3  7  1  0
  7  8  1  0
  7  9  1  0
  9 10  1  0
  9 11  1  0
 11 12  2  0
 12 13  1  0
 12 14  1  0
 14 15  1  0
 15 16  2  0
 16 17  1  0
 16 18  1  0
 18 19  2  0
 19 20  1  0
 19 21  1  0
 21 22  1  0
 21 23  2  0
 23 24  1  0
 14 25  1  0
 25 26  2  0
 25 27  1  0
 27 28  1  0
  7 29  1  0
 29 30  2  0
 29 31  1  0
 31 32  1  0
 29 33  1  0
 33 34  1  0
 27 11  1  0
 23 15  1  0
M  END
>  <cnnaffinity>  (1) 
-5.00282

>  <filename>  (1) 
O=P(O)(O)C(Nc1cn(-c2cccnc2)c(=S)[nH]1)P(=O)(O)O

$$$$
