
     RDKit          3D

 28 29  0  0  0  0  0  0  0  0999 V2000
    7.8903   -1.1079   26.5114 H   0  0  0  0  0  0  0  0  0  0  0  0
    8.6613   -0.6279   26.1004 O   0  0  0  0  0  0  0  0  0  0  0  0
    8.6884   -1.7938   25.0739 P   0  0  0  0  0  0  0  0  0  0  0  0
    9.2442   -3.0858   25.5233 O   0  0  0  0  0  0  0  0  0  0  0  0
    7.3428   -1.3814   25.7605 O   0  0  0  0  0  0  0  0  0  0  0  0
    7.7229   -0.4931   25.9859 H   0  0  0  0  0  0  0  0  0  0  0  0
    9.1880   -1.6180   23.1809 C   0  0  0  0  0  0  0  0  0  0  0  0
   10.4396   -2.1230   22.9601 F   0  0  0  0  0  0  0  0  0  0  0  0
    9.2353   -0.3028   22.8034 F   0  0  0  0  0  0  0  0  0  0  0  0
    8.2644   -2.3537   22.2138 C   0  0  0  0  0  0  0  0  0  0  0  0
    7.4468   -1.7900   21.2907 C   0  0  0  0  0  0  0  0  0  0  0  0
    7.2971   -0.4139   21.1240 N   0  0  0  0  0  0  0  0  0  0  0  0
    7.3583    0.1490   21.9754 H   0  0  0  0  0  0  0  0  0  0  0  0
    6.6640    0.1334   19.9965 C   0  0  0  0  0  0  0  0  0  0  0  0
    7.1078   -0.1220   18.6757 C   0  0  0  0  0  0  0  0  0  0  0  0
    7.9737   -0.7651   18.5534 H   0  0  0  0  0  0  0  0  0  0  0  0
    6.5316    0.4016   17.5694 N   0  0  0  0  0  0  0  0  0  0  0  0
    5.4579    1.1969   17.7433 C   0  0  0  0  0  0  0  0  0  0  0  0
    4.9733    1.6228   16.8703 H   0  0  0  0  0  0  0  0  0  0  0  0
    4.9466    1.4919   19.0146 C   0  0  0  0  0  0  0  0  0  0  0  0
    4.0791    2.1379   19.0956 H   0  0  0  0  0  0  0  0  0  0  0  0
    5.5622    0.9702   20.1594 C   0  0  0  0  0  0  0  0  0  0  0  0
    5.1930    1.1882   21.1587 H   0  0  0  0  0  0  0  0  0  0  0  0
    6.7709   -2.8976   20.6277 C   0  0  0  0  0  0  0  0  0  0  0  0
    6.0269   -2.7769   19.8497 H   0  0  0  0  0  0  0  0  0  0  0  0
    7.1709   -4.0571   21.1060 N   0  0  0  0  0  0  0  0  0  0  0  0
    8.0936   -3.7291   22.0593 N   0  0  0  0  0  0  0  0  0  0  0  0
    8.5844   -4.4306   22.6184 H   0  0  0  0  0  0  0  0  0  0  0  0
  1  2  1  0
  2  3  1  0
  3  4  2  0
  3  5  1  0
  5  6  1  0
  3  7  1  0
  7  8  1  0
  7  9  1  0
  7 10  1  0
 10 11  2  0
 11 12  1  0
 12 13  1  0
 12 14  1  0
 14 15  2  0
 15 16  1  0
 15 17  1  0
 17 18  2  0
 18 19  1  0
 18 20  1  0
 20 21  1  0
 20 22  2  0
 22 23  1  0
 11 24  1  0
 24 25  1  0
 24 26  2  0
 26 27  1  0
 27 28  1  0
 27 10  1  0
 22 14  1  0
M  END
>  <cnnaffinity>  (1) 
-4.69547

>  <filename>  (1) 
O=P(O)(O)C(F)(F)c1[nH]ncc1Nc1cccnc1

$$$$
