
     RDKit          3D

 26 27  0  0  0  0  0  0  0  0999 V2000
    5.7086   -5.4254   20.6419 H   0  0  0  0  0  0  0  0  0  0  0  0
    6.5383   -5.0872   21.0094 O   0  0  0  0  0  0  0  0  0  0  0  0
    6.1797   -3.5731   20.9055 P   0  0  0  0  0  0  0  0  0  0  0  0
    5.5073   -3.4915   19.6024 O   0  0  0  0  0  0  0  0  0  0  0  0
    5.0885   -3.4899   22.0200 O   0  0  0  0  0  0  0  0  0  0  0  0
    4.6560   -4.3343   21.8309 H   0  0  0  0  0  0  0  0  0  0  0  0
    7.5600   -2.3969   21.0190 C   0  0  0  0  0  0  0  0  0  0  0  0
    7.6068   -1.9405   20.0384 H   0  0  0  0  0  0  0  0  0  0  0  0
    8.4787   -2.9519   21.1910 H   0  0  0  0  0  0  0  0  0  0  0  0
    7.4280   -1.3250   22.0659 C   0  0  0  0  0  0  0  0  0  0  0  0
    6.8426   -0.0911   21.8718 C   0  0  0  0  0  0  0  0  0  0  0  0
    6.4155    0.4282   20.5623 C   0  0  0  0  0  0  0  0  0  0  0  0
    7.1380    0.1031   19.3977 C   0  0  0  0  0  0  0  0  0  0  0  0
    8.0742   -0.4401   19.4885 H   0  0  0  0  0  0  0  0  0  0  0  0
    6.7588    0.4613   18.1582 N   0  0  0  0  0  0  0  0  0  0  0  0
    5.6522    1.2085   18.0328 C   0  0  0  0  0  0  0  0  0  0  0  0
    5.3202    1.4947   17.0369 H   0  0  0  0  0  0  0  0  0  0  0  0
    4.9278    1.6540   19.1427 C   0  0  0  0  0  0  0  0  0  0  0  0
    4.0645    2.2877   18.9879 H   0  0  0  0  0  0  0  0  0  0  0  0
    5.3108    1.2730   20.4319 C   0  0  0  0  0  0  0  0  0  0  0  0
    4.7580    1.6003   21.3100 H   0  0  0  0  0  0  0  0  0  0  0  0
    6.7161    0.7951   23.3925 S   0  0  0  0  0  0  0  0  0  0  0  0
    7.6185   -0.4557   24.2428 C   0  0  0  0  0  0  0  0  0  0  0  0
    7.8998   -0.3842   25.2920 H   0  0  0  0  0  0  0  0  0  0  0  0
    7.9381   -1.5062   23.4148 C   0  0  0  0  0  0  0  0  0  0  0  0
    8.5368   -2.3617   23.7139 H   0  0  0  0  0  0  0  0  0  0  0  0
  1  2  1  0
  2  3  1  0
  3  4  2  0
  3  5  1  0
  5  6  1  0
  3  7  1  0
  7  8  1  0
  7  9  1  0
  7 10  1  0
 10 11  2  0
 11 12  1  0
 12 13  2  0
 13 14  1  0
 13 15  1  0
 15 16  2  0
 16 17  1  0
 16 18  1  0
 18 19  1  0
 18 20  2  0
 20 21  1  0
 11 22  1  0
 22 23  1  0
 23 24  1  0
 23 25  2  0
 25 26  1  0
 25 10  1  0
 20 12  1  0
M  END
>  <cnnaffinity>  (1) 
-4.54716

>  <filename>  (1) 
O=P(O)(O)Cc1ccsc1-c1cccnc1

$$$$
