
     RDKit          3D

 26 27  0  0  0  0  0  0  0  0999 V2000
   10.4036    0.5878   24.9433 H   0  0  0  0  0  0  0  0  0  0  0  0
    9.8355   -0.0545   24.4895 O   0  0  0  0  0  0  0  0  0  0  0  0
   10.8227   -0.2903   23.3068 P   0  0  0  0  0  0  0  0  0  0  0  0
   12.1051   -0.0116   23.9736 O   0  0  0  0  0  0  0  0  0  0  0  0
   10.5678    0.9501   22.3754 O   0  0  0  0  0  0  0  0  0  0  0  0
   10.6778    1.6277   23.0524 H   0  0  0  0  0  0  0  0  0  0  0  0
   10.6487   -1.8892   22.4345 C   0  0  0  0  0  0  0  0  0  0  0  0
   11.4974   -2.0244   21.3698 F   0  0  0  0  0  0  0  0  0  0  0  0
   10.7517   -2.9957   23.2448 F   0  0  0  0  0  0  0  0  0  0  0  0
    9.2562   -1.5355   22.0176 C   0  0  0  0  0  0  0  0  0  0  0  0
    8.2699   -1.4012   22.8756 N   0  0  0  0  0  0  0  0  0  0  0  0
    7.1923   -0.8734   22.1694 C   0  0  0  0  0  0  0  0  0  0  0  0
    6.2214   -0.6359   22.5986 H   0  0  0  0  0  0  0  0  0  0  0  0
    7.5501   -0.6407   20.8668 C   0  0  0  0  0  0  0  0  0  0  0  0
    6.7869   -0.0037   19.7916 C   0  0  0  0  0  0  0  0  0  0  0  0
    7.3203    0.0991   18.4944 C   0  0  0  0  0  0  0  0  0  0  0  0
    8.3019   -0.3319   18.3036 H   0  0  0  0  0  0  0  0  0  0  0  0
    6.6812    0.7169   17.4815 N   0  0  0  0  0  0  0  0  0  0  0  0
    5.4812    1.2684   17.7417 C   0  0  0  0  0  0  0  0  0  0  0  0
    4.9716    1.7928   16.9414 H   0  0  0  0  0  0  0  0  0  0  0  0
    4.8794    1.2023   19.0012 C   0  0  0  0  0  0  0  0  0  0  0  0
    3.9179    1.6787   19.1539 H   0  0  0  0  0  0  0  0  0  0  0  0
    5.5311    0.5540   20.0490 C   0  0  0  0  0  0  0  0  0  0  0  0
    5.0931    0.5046   21.0434 H   0  0  0  0  0  0  0  0  0  0  0  0
    8.8515   -1.0819   20.7764 N   0  0  0  0  0  0  0  0  0  0  0  0
    9.4332   -1.0401   19.9423 H   0  0  0  0  0  0  0  0  0  0  0  0
  1  2  1  0
  2  3  1  0
  3  4  2  0
  3  5  1  0
  5  6  1  0
  3  7  1  0
  7  8  1  0
  7  9  1  0
  7 10  1  0
 10 11  2  0
 11 12  1  0
 12 13  1  0
 12 14  2  0
 14 15  1  0
 15 16  2  0
 16 17  1  0
 16 18  1  0
 18 19  2  0
 19 20  1  0
 19 21  1  0
 21 22  1  0
 21 23  2  0
 23 24  1  0
 14 25  1  0
 25 26  1  0
 25 10  1  0
 23 15  1  0
M  END
>  <cnnaffinity>  (1) 
-4.56585

>  <filename>  (1) 
O=P(O)(O)C(F)(F)c1ncc(-c2cccnc2)[nH]1

$$$$
