
     RDKit          3D

 24 25  0  0  0  0  0  0  0  0999 V2000
   10.4091    1.0551   24.3954 H   0  0  0  0  0  0  0  0  0  0  0  0
    9.9546    1.0268   23.5445 O   0  0  0  0  0  0  0  0  0  0  0  0
    8.4749    1.2698   24.0422 P   0  0  0  0  0  0  0  0  0  0  0  0
    8.4320    2.5985   24.6767 O   0  0  0  0  0  0  0  0  0  0  0  0
    8.4709    0.2355   25.2366 O   0  0  0  0  0  0  0  0  0  0  0  0
    9.1798    0.6082   25.7791 H   0  0  0  0  0  0  0  0  0  0  0  0
    7.1611    1.0342   22.7145 C   0  0  0  0  0  0  0  0  0  0  0  0
    5.8792    0.9450   23.1901 F   0  0  0  0  0  0  0  0  0  0  0  0
    7.1761    2.0218   21.7646 F   0  0  0  0  0  0  0  0  0  0  0  0
    7.5748   -0.2659   22.1095 C   0  0  0  0  0  0  0  0  0  0  0  0
    8.2518   -1.1975   22.7290 N   0  0  0  0  0  0  0  0  0  0  0  0
    8.4875   -2.1799   21.8110 N   0  0  0  0  0  0  0  0  0  0  0  0
    7.9902   -1.8707   20.6674 N   0  0  0  0  0  0  0  0  0  0  0  0
    7.3726   -0.6789   20.8059 N   0  0  0  0  0  0  0  0  0  0  0  0
    6.6826   -0.0090   19.7758 C   0  0  0  0  0  0  0  0  0  0  0  0
    7.0771   -0.1519   18.4303 C   0  0  0  0  0  0  0  0  0  0  0  0
    7.9256   -0.7875   18.1923 H   0  0  0  0  0  0  0  0  0  0  0  0
    6.4790    0.4947   17.4080 N   0  0  0  0  0  0  0  0  0  0  0  0
    5.4360    1.2975   17.6825 C   0  0  0  0  0  0  0  0  0  0  0  0
    4.9510    1.8363   16.8709 H   0  0  0  0  0  0  0  0  0  0  0  0
    4.9503    1.4572   18.9838 C   0  0  0  0  0  0  0  0  0  0  0  0
    4.0912    2.0983   19.1488 H   0  0  0  0  0  0  0  0  0  0  0  0
    5.5810    0.8100   20.0496 C   0  0  0  0  0  0  0  0  0  0  0  0
    5.2115    0.9383   21.0656 H   0  0  0  0  0  0  0  0  0  0  0  0
  1  2  1  0
  2  3  1  0
  3  4  2  0
  3  5  1  0
  5  6  1  0
  3  7  1  0
  7  8  1  0
  7  9  1  0
  7 10  1  0
 10 11  2  0
 11 12  1  0
 12 13  2  0
 13 14  1  0
 14 15  1  0
 15 16  2  0
 16 17  1  0
 16 18  1  0
 18 19  2  0
 19 20  1  0
 19 21  1  0
 21 22  1  0
 21 23  2  0
 23 24  1  0
 14 10  1  0
 23 15  1  0
M  END
>  <cnnaffinity>  (1) 
-4.48173

>  <filename>  (1) 
O=P(O)(O)C(F)(F)c1nnnn1-c1cccnc1

$$$$
