
     RDKit          3D

 41 43  0  0  0  0  0  0  0  0999 V2000
    4.8899    1.9057   16.8127 H   0  0  0  0  0  0  0  0  0  0  0  0
    5.3065    1.4170   17.6913 C   0  0  0  0  0  0  0  0  0  0  0  0
    6.4616    0.7633   17.5093 N   0  0  0  0  0  0  0  0  0  0  0  0
    7.0140    0.1796   18.5830 C   0  0  0  0  0  0  0  0  0  0  0  0
    7.9614   -0.3199   18.3817 H   0  0  0  0  0  0  0  0  0  0  0  0
    6.4630    0.1925   19.8816 C   0  0  0  0  0  0  0  0  0  0  0  0
    7.1074   -0.4973   21.0920 C   0  0  1  0  0  0  0  0  0  0  0  0
    6.6785   -0.0276   21.9865 H   0  0  0  0  0  0  0  0  0  0  0  0
    6.7301   -2.0036   21.2122 C   0  0  0  0  0  0  0  0  0  0  0  0
    6.6847   -2.4685   20.2085 H   0  0  0  0  0  0  0  0  0  0  0  0
    5.7256   -2.0816   21.6430 H   0  0  0  0  0  0  0  0  0  0  0  0
    7.6902   -2.6536   22.0956 N   0  0  0  0  0  0  0  0  0  0  0  0
    7.3449   -3.5501   22.4151 H   0  0  0  0  0  0  0  0  0  0  0  0
    9.0088   -2.8143   21.4841 C   0  0  0  0  0  0  0  0  0  0  0  0
    9.0201   -3.6497   20.7678 H   0  0  0  0  0  0  0  0  0  0  0  0
    9.7165   -3.0667   22.2832 H   0  0  0  0  0  0  0  0  0  0  0  0
    9.4417   -1.5303   20.7521 C   0  0  0  0  0  0  0  0  0  0  0  0
    9.2862   -1.6292   19.6748 H   0  0  0  0  0  0  0  0  0  0  0  0
   10.5081   -1.3524   20.8995 H   0  0  0  0  0  0  0  0  0  0  0  0
    8.6572   -0.2996   21.2187 C   0  0  2  0  0  0  0  0  0  0  0  0
    8.9676    0.5651   20.6167 H   0  0  0  0  0  0  0  0  0  0  0  0
    9.0540   -0.0875   22.6032 N   0  0  0  0  0  0  0  0  0  0  0  0
    8.7671   -0.7056   23.3396 H   0  0  0  0  0  0  0  0  0  0  0  0
    9.2843    1.3784   23.2660 S   0  0  0  0  0  0  0  0  0  0  0  0
   10.2539    2.0613   22.4380 O   0  0  0  0  0  0  0  0  0  0  0  0
    9.5070    1.0282   24.6561 O   0  0  0  0  0  0  0  0  0  0  0  0
    7.7249    2.2177   23.1404 C   0  0  0  0  0  0  0  0  0  0  0  0
    7.5127    3.1722   22.1317 C   0  0  0  0  0  0  0  0  0  0  0  0
    8.3226    3.4796   21.4703 H   0  0  0  0  0  0  0  0  0  0  0  0
    6.2470    3.7424   21.9954 C   0  0  0  0  0  0  0  0  0  0  0  0
    6.0475    4.4553   21.1997 H   0  0  0  0  0  0  0  0  0  0  0  0
    5.2093    3.4023   22.8693 C   0  0  0  0  0  0  0  0  0  0  0  0
    4.2449    3.8885   22.7598 H   0  0  0  0  0  0  0  0  0  0  0  0
    5.4364    2.4529   23.8720 C   0  0  0  0  0  0  0  0  0  0  0  0
    4.6282    2.1735   24.5397 H   0  0  0  0  0  0  0  0  0  0  0  0
    6.6916    1.8702   24.0285 C   0  0  0  0  0  0  0  0  0  0  0  0
    6.8433    1.1635   24.8456 H   0  0  0  0  0  0  0  0  0  0  0  0
    5.2426    0.8708   20.0323 C   0  0  0  0  0  0  0  0  0  0  0  0
    4.7752    0.9198   21.0184 H   0  0  0  0  0  0  0  0  0  0  0  0
    4.6514    1.4894   18.9254 C   0  0  0  0  0  0  0  0  0  0  0  0
    3.7149    2.0349   19.0018 H   0  0  0  0  0  0  0  0  0  0  0  0
  1  2  1  0
  2  3  2  0
  3  4  1  0
  4  5  1  0
  4  6  2  0
  6  7  1  0
  7  8  1  1
  7  9  1  0
  9 10  1  0
  9 11  1  0
  9 12  1  0
 12 13  1  0
 12 14  1  0
 14 15  1  0
 14 16  1  0
 14 17  1  0
 17 18  1  0
 17 19  1  0
 17 20  1  0
 20 21  1  6
 20 22  1  0
 22 23  1  0
 22 24  1  0
 24 25  2  0
 24 26  2  0
 24 27  1  0
 27 28  2  0
 28 29  1  0
 28 30  1  0
 30 31  1  0
 30 32  2  0
 32 33  1  0
 32 34  1  0
 34 35  1  0
 34 36  2  0
 36 37  1  0
  6 38  1  0
 38 39  1  0
 38 40  2  0
 40 41  1  0
 40  2  1  0
 20  7  1  0
 36 27  1  0
M  END
>  <cnnaffinity>  (1) 
-5.0383

>  <filename>  (1) 
O=S(=O)(N[C@H]1CCNC[C@@H]1c1cccnc1)c1ccccc1

$$$$
