
     RDKit          3D

 24 25  0  0  0  0  0  0  0  0999 V2000
    5.0549    1.7393   16.9966 H   0  0  0  0  0  0  0  0  0  0  0  0
    5.4892    1.2568   17.8732 C   0  0  0  0  0  0  0  0  0  0  0  0
    6.6532    0.6172   17.6895 N   0  0  0  0  0  0  0  0  0  0  0  0
    7.2150    0.0208   18.7358 C   0  0  0  0  0  0  0  0  0  0  0  0
    8.1429   -0.5170   18.5471 H   0  0  0  0  0  0  0  0  0  0  0  0
    6.6379    0.0629   19.9895 C   0  0  0  0  0  0  0  0  0  0  0  0
    7.4463   -0.8703   21.1959 S   0  0  0  0  0  0  0  0  0  0  0  0
    6.8223   -0.5809   22.4714 O   0  0  0  0  0  0  0  0  0  0  0  0
    7.4962   -2.2300   20.6759 O   0  0  0  0  0  0  0  0  0  0  0  0
    9.0961   -0.2148   21.1875 C   0  0  0  0  0  0  0  0  0  0  0  0
   10.1492   -1.1119   20.9794 C   0  0  0  0  0  0  0  0  0  0  0  0
    9.9353   -2.1340   20.6707 H   0  0  0  0  0  0  0  0  0  0  0  0
   11.4589   -0.7060   21.2144 C   0  0  0  0  0  0  0  0  0  0  0  0
   12.2636   -1.4193   21.1059 H   0  0  0  0  0  0  0  0  0  0  0  0
   11.7306    0.6081   21.6098 C   0  0  0  0  0  0  0  0  0  0  0  0
   12.7523    0.9096   21.8300 H   0  0  0  0  0  0  0  0  0  0  0  0
   10.6868    1.5273   21.7185 C   0  0  0  0  0  0  0  0  0  0  0  0
   10.8755    2.5587   21.9891 H   0  0  0  0  0  0  0  0  0  0  0  0
    9.3690    1.1280   21.4844 C   0  0  0  0  0  0  0  0  0  0  0  0
    8.1296    2.3297   21.5912 Cl  0  0  0  0  0  0  0  0  0  0  0  0
    5.4268    0.7095   20.2141 C   0  0  0  0  0  0  0  0  0  0  0  0
    4.9702    0.7204   21.2040 H   0  0  0  0  0  0  0  0  0  0  0  0
    4.8437    1.3197   19.1106 C   0  0  0  0  0  0  0  0  0  0  0  0
    3.9032    1.8410   19.1982 H   0  0  0  0  0  0  0  0  0  0  0  0
  1  2  1  0
  2  3  2  0
  3  4  1  0
  4  5  1  0
  4  6  2  0
  6  7  1  0
  7  8  2  0
  7  9  2  0
  7 10  1  0
 10 11  2  0
 11 12  1  0
 11 13  1  0
 13 14  1  0
 13 15  2  0
 15 16  1  0
 15 17  1  0
 17 18  1  0
 17 19  2  0
 19 20  1  0
  6 21  1  0
 21 22  1  0
 21 23  2  0
 23 24  1  0
 23  2  1  0
 19 10  1  0
M  END
>  <cnnaffinity>  (1) 
-4.58035

>  <filename>  (1) 
O=S(=O)(c1cccnc1)c1ccccc1Cl

$$$$
