
     RDKit          3D

 37 39  0  0  0  0  0  0  0  0999 V2000
   13.6548    4.9495   23.2349 H   0  0  0  0  0  0  0  0  0  0  0  0
   12.5698    5.0027   23.1827 C   0  0  0  0  0  0  0  0  0  0  0  0
   11.9439    3.8591   22.8972 N   0  0  0  0  0  0  0  0  0  0  0  0
   10.6089    3.9028   22.8237 C   0  0  0  0  0  0  0  0  0  0  0  0
    9.9436    2.7219   22.5297 N   0  0  0  0  0  0  0  0  0  0  0  0
    8.8499    2.2477   23.3902 C   0  0  0  0  0  0  0  0  0  0  0  0
    9.2399    1.6282   24.2161 H   0  0  0  0  0  0  0  0  0  0  0  0
    8.3058    3.0890   23.8364 H   0  0  0  0  0  0  0  0  0  0  0  0
    7.8286    1.4011   22.5978 C   0  0  0  0  0  0  0  0  0  0  0  0
    7.2882    2.0753   21.9145 H   0  0  0  0  0  0  0  0  0  0  0  0
    7.1119    0.9722   23.3023 H   0  0  0  0  0  0  0  0  0  0  0  0
    8.4942    0.2982   21.8710 N   0  0  0  0  0  0  0  0  0  0  0  0
    7.5141   -0.8625   21.1727 S   0  0  0  0  0  0  0  0  0  0  0  0
    6.5736   -1.2873   22.1871 O   0  0  0  0  0  0  0  0  0  0  0  0
    8.4146   -1.7744   20.4956 O   0  0  0  0  0  0  0  0  0  0  0  0
    6.6324    0.0147   19.9648 C   0  0  0  0  0  0  0  0  0  0  0  0
    7.2039    0.0108   18.7048 C   0  0  0  0  0  0  0  0  0  0  0  0
    8.1407   -0.5096   18.5060 H   0  0  0  0  0  0  0  0  0  0  0  0
    6.6266    0.6236   17.6721 N   0  0  0  0  0  0  0  0  0  0  0  0
    5.4656    1.2637   17.8819 C   0  0  0  0  0  0  0  0  0  0  0  0
    5.0218    1.7574   17.0177 H   0  0  0  0  0  0  0  0  0  0  0  0
    4.8239    1.2974   19.1252 C   0  0  0  0  0  0  0  0  0  0  0  0
    3.8897    1.8357   19.2366 H   0  0  0  0  0  0  0  0  0  0  0  0
    5.4155    0.6561   20.2094 C   0  0  0  0  0  0  0  0  0  0  0  0
    4.9496    0.6545   21.1991 H   0  0  0  0  0  0  0  0  0  0  0  0
    9.6326    0.7559   21.0534 C   0  0  0  0  0  0  0  0  0  0  0  0
   10.1570   -0.1106   20.6463 H   0  0  0  0  0  0  0  0  0  0  0  0
    9.2414    1.3425   20.2251 H   0  0  0  0  0  0  0  0  0  0  0  0
   10.6344    1.6265   21.8410 C   0  0  0  0  0  0  0  0  0  0  0  0
   11.1810    0.9864   22.5521 H   0  0  0  0  0  0  0  0  0  0  0  0
   11.3642    2.0304   21.1275 H   0  0  0  0  0  0  0  0  0  0  0  0
    9.8552    5.0816   22.9963 C   0  0  0  0  0  0  0  0  0  0  0  0
    8.7817    5.0153   22.8525 H   0  0  0  0  0  0  0  0  0  0  0  0
   10.5327    6.2657   23.2510 C   0  0  0  0  0  0  0  0  0  0  0  0
    9.9832    7.2017   23.3331 H   0  0  0  0  0  0  0  0  0  0  0  0
   11.9278    6.2194   23.3841 C   0  0  0  0  0  0  0  0  0  0  0  0
   12.5167    7.1008   23.6013 H   0  0  0  0  0  0  0  0  0  0  0  0
  1  2  1  0
  2  3  2  0
  3  4  1  0
  4  5  1  0
  5  6  1  0
  6  7  1  0
  6  8  1  0
  6  9  1  0
  9 10  1  0
  9 11  1  0
  9 12  1  0
 12 13  1  0
 13 14  2  0
 13 15  2  0
 13 16  1  0
 16 17  2  0
 17 18  1  0
 17 19  1  0
 19 20  2  0
 20 21  1  0
 20 22  1  0
 22 23  1  0
 22 24  2  0
 24 25  1  0
 12 26  1  0
 26 27  1  0
 26 28  1  0
 26 29  1  0
 29 30  1  0
 29 31  1  0
  4 32  2  0
 32 33  1  0
 32 34  1  0
 34 35  1  0
 34 36  2  0
 36 37  1  0
 36  2  1  0
 29  5  1  0
 24 16  1  0
M  END
>  <cnnaffinity>  (1) 
-4.797

>  <filename>  (1) 
O=S(=O)(c1cccnc1)N1CCN(c2ccccn2)CC1

$$$$
