
     RDKit          3D

 27 28  0  0  0  0  0  0  0  0999 V2000
    9.5927   -3.3490   24.4620 H   0  0  0  0  0  0  0  0  0  0  0  0
    8.9094   -3.7761   23.7313 C   0  0  0  0  0  0  0  0  0  0  0  0
    8.4275   -2.9313   22.8219 N   0  0  0  0  0  0  0  0  0  0  0  0
    7.5540   -3.3663   21.9427 C   0  0  0  0  0  0  0  0  0  0  0  0
    6.9697   -2.5109   21.0311 O   0  0  0  0  0  0  0  0  0  0  0  0
    7.5389   -0.9968   21.2094 S   0  0  0  0  0  0  0  0  0  0  0  0
    7.0893   -0.5014   22.4770 O   0  0  0  0  0  0  0  0  0  0  0  0
    8.9081   -1.0297   20.7653 O   0  0  0  0  0  0  0  0  0  0  0  0
    6.5998   -0.1941   19.9993 C   0  0  0  0  0  0  0  0  0  0  0  0
    7.2072   -0.1503   18.7565 C   0  0  0  0  0  0  0  0  0  0  0  0
    8.1802   -0.6123   18.5926 H   0  0  0  0  0  0  0  0  0  0  0  0
    6.6609    0.5135   17.7422 N   0  0  0  0  0  0  0  0  0  0  0  0
    5.5125    1.1698   17.9562 C   0  0  0  0  0  0  0  0  0  0  0  0
    5.0982    1.7103   17.1043 H   0  0  0  0  0  0  0  0  0  0  0  0
    4.8677    1.2009   19.1966 C   0  0  0  0  0  0  0  0  0  0  0  0
    3.9645    1.7837   19.3130 H   0  0  0  0  0  0  0  0  0  0  0  0
    5.4232    0.5121   20.2679 C   0  0  0  0  0  0  0  0  0  0  0  0
    4.9886    0.5552   21.2692 H   0  0  0  0  0  0  0  0  0  0  0  0
    7.1556   -4.7023   21.8784 C   0  0  0  0  0  0  0  0  0  0  0  0
    6.0489   -5.0279   20.9456 C   0  0  0  0  0  0  0  0  0  0  0  0
    6.3177   -4.7491   19.6643 F   0  0  0  0  0  0  0  0  0  0  0  0
    5.7209   -6.3363   20.9787 F   0  0  0  0  0  0  0  0  0  0  0  0
    4.9569   -4.3390   21.3139 F   0  0  0  0  0  0  0  0  0  0  0  0
    7.6466   -5.6036   22.8288 C   0  0  0  0  0  0  0  0  0  0  0  0
    7.3157   -6.6439   22.8430 H   0  0  0  0  0  0  0  0  0  0  0  0
    8.5498   -5.1262   23.7756 C   0  0  0  0  0  0  0  0  0  0  0  0
    8.9611   -5.7619   24.5525 H   0  0  0  0  0  0  0  0  0  0  0  0
  1  2  1  0
  2  3  2  0
  3  4  1  0
  4  5  1  0
  5  6  1  0
  6  7  2  0
  6  8  2  0
  6  9  1  0
  9 10  2  0
 10 11  1  0
 10 12  1  0
 12 13  2  0
 13 14  1  0
 13 15  1  0
 15 16  1  0
 15 17  2  0
 17 18  1  0
  4 19  2  0
 19 20  1  0
 20 21  1  0
 20 22  1  0
 20 23  1  0
 19 24  1  0
 24 25  1  0
 24 26  2  0
 26 27  1  0
 26  2  1  0
 17  9  1  0
M  END
>  <cnnaffinity>  (1) 
-4.55682

>  <filename>  (1) 
O=S(=O)(Oc1ncccc1C(F)(F)F)c1cccnc1

$$$$
