
     RDKit          3D

 37 39  0  0  0  0  0  0  0  0999 V2000
    5.8419   -1.6107   22.0949 H   0  0  0  0  0  0  0  0  0  0  0  0
    6.8854   -1.3510   21.9482 C   0  0  0  0  0  0  0  0  0  0  0  0
    7.4287   -0.7244   20.9060 C   0  0  0  0  0  0  0  0  0  0  0  0
    6.6964    0.0036   19.8558 C   0  0  0  0  0  0  0  0  0  0  0  0
    7.1954    0.0758   18.5423 C   0  0  0  0  0  0  0  0  0  0  0  0
    8.1398   -0.4133   18.3036 H   0  0  0  0  0  0  0  0  0  0  0  0
    6.5884    0.6977   17.5270 N   0  0  0  0  0  0  0  0  0  0  0  0
    5.4233    1.3119   17.7914 C   0  0  0  0  0  0  0  0  0  0  0  0
    4.9487    1.8219   16.9555 H   0  0  0  0  0  0  0  0  0  0  0  0
    4.8280    1.3127   19.0585 C   0  0  0  0  0  0  0  0  0  0  0  0
    3.8875    1.8358   19.2055 H   0  0  0  0  0  0  0  0  0  0  0  0
    5.4676    0.6504   20.1058 C   0  0  0  0  0  0  0  0  0  0  0  0
    5.0415    0.6493   21.1108 H   0  0  0  0  0  0  0  0  0  0  0  0
    8.9429   -0.9161   20.9208 C   0  0  0  0  0  0  0  0  0  0  0  0
    9.2357   -1.6119   20.1259 H   0  0  0  0  0  0  0  0  0  0  0  0
    9.4735    0.0237   20.7461 H   0  0  0  0  0  0  0  0  0  0  0  0
    9.2496   -1.5262   22.3141 C   0  0  0  0  0  0  0  0  0  0  0  0
    9.7701   -0.8077   22.9545 H   0  0  0  0  0  0  0  0  0  0  0  0
    9.8744   -2.4207   22.2632 H   0  0  0  0  0  0  0  0  0  0  0  0
    7.8711   -1.8554   22.9449 C   0  0  2  0  0  0  0  0  0  0  0  0
    7.7415   -1.3487   23.9136 H   0  0  0  0  0  0  0  0  0  0  0  0
    7.5508   -3.2638   23.1341 N   0  0  0  0  0  0  0  0  0  0  0  0
    7.7210   -3.8712   22.3457 H   0  0  0  0  0  0  0  0  0  0  0  0
    8.3029   -4.1425   24.3137 S   0  0  0  0  0  0  0  0  0  0  0  0
    9.7049   -3.7740   24.4034 O   0  0  0  0  0  0  0  0  0  0  0  0
    7.8967   -5.4832   23.9430 O   0  0  0  0  0  0  0  0  0  0  0  0
    7.4659   -3.5356   25.7446 C   0  0  0  0  0  0  0  0  0  0  0  0
    6.1604   -3.9527   26.0208 C   0  0  0  0  0  0  0  0  0  0  0  0
    5.6787   -4.7519   25.4568 H   0  0  0  0  0  0  0  0  0  0  0  0
    5.4394   -3.2772   27.0089 C   0  0  0  0  0  0  0  0  0  0  0  0
    4.4235   -3.5838   27.2145 H   0  0  0  0  0  0  0  0  0  0  0  0
    5.9870   -2.1927   27.7015 C   0  0  0  0  0  0  0  0  0  0  0  0
    5.3887   -1.6686   28.4462 H   0  0  0  0  0  0  0  0  0  0  0  0
    7.3092   -1.8194   27.4369 C   0  0  0  0  0  0  0  0  0  0  0  0
    7.7714   -0.9973   27.9719 H   0  0  0  0  0  0  0  0  0  0  0  0
    8.0581   -2.4933   26.4724 C   0  0  0  0  0  0  0  0  0  0  0  0
    9.0785   -2.1714   26.2753 H   0  0  0  0  0  0  0  0  0  0  0  0
  1  2  1  0
  2  3  2  0
  3  4  1  0
  4  5  2  0
  5  6  1  0
  5  7  1  0
  7  8  2  0
  8  9  1  0
  8 10  1  0
 10 11  1  0
 10 12  2  0
 12 13  1  0
  3 14  1  0
 14 15  1  0
 14 16  1  0
 14 17  1  0
 17 18  1  0
 17 19  1  0
 17 20  1  0
 20 21  1  1
 20 22  1  0
 22 23  1  0
 22 24  1  0
 24 25  2  0
 24 26  2  0
 24 27  1  0
 27 28  2  0
 28 29  1  0
 28 30  1  0
 30 31  1  0
 30 32  2  0
 32 33  1  0
 32 34  1  0
 34 35  1  0
 34 36  2  0
 36 37  1  0
 20  2  1  0
 36 27  1  0
 12  4  1  0
M  END
>  <cnnaffinity>  (1) 
-5.48819

>  <filename>  (1) 
O=S(=O)(N[C@@H]1C=C(c2cccnc2)CC1)c1ccccc1

$$$$
