
     RDKit          3D

 36 38  0  0  0  0  0  0  0  0999 V2000
    4.9150    1.4913   16.9339 H   0  0  0  0  0  0  0  0  0  0  0  0
    5.4212    1.1733   17.8402 C   0  0  0  0  0  0  0  0  0  0  0  0
    6.6090    0.5665   17.6812 N   0  0  0  0  0  0  0  0  0  0  0  0
    7.2431    0.1538   18.7879 C   0  0  0  0  0  0  0  0  0  0  0  0
    8.2164   -0.3136   18.6578 H   0  0  0  0  0  0  0  0  0  0  0  0
    6.7361    0.2833   20.1079 C   0  0  0  0  0  0  0  0  0  0  0  0
    7.3955   -0.1992   21.2475 N   0  0  0  0  0  0  0  0  0  0  0  0
    8.5169   -1.1328   21.1642 C   0  0  0  0  0  0  0  0  0  0  0  0
    9.4288   -0.6540   20.7898 H   0  0  0  0  0  0  0  0  0  0  0  0
    8.2677   -1.9750   20.5041 H   0  0  0  0  0  0  0  0  0  0  0  0
    8.6137   -1.6191   22.6070 C   0  0  0  0  0  0  0  0  0  0  0  0
    9.2191   -0.9635   23.2415 H   0  0  0  0  0  0  0  0  0  0  0  0
    8.9542   -2.6535   22.6908 H   0  0  0  0  0  0  0  0  0  0  0  0
    7.2544   -1.5649   23.0472 O   0  0  0  0  0  0  0  0  0  0  0  0
    6.6626   -0.4492   22.4607 C   0  0  1  0  0  0  0  0  0  0  0  0
    5.6084   -0.6686   22.2654 H   0  0  0  0  0  0  0  0  0  0  0  0
    6.8436    0.8077   23.1720 N   0  0  0  0  0  0  0  0  0  0  0  0
    7.8370    0.9790   23.0625 H   0  0  0  0  0  0  0  0  0  0  0  0
    6.7320    0.5610   24.7918 S   0  0  0  0  0  0  0  0  0  0  0  0
    8.0414    0.0507   25.1607 O   0  0  0  0  0  0  0  0  0  0  0  0
    5.4986   -0.1415   25.0562 O   0  0  0  0  0  0  0  0  0  0  0  0
    6.6179    2.2439   25.3279 C   0  0  0  0  0  0  0  0  0  0  0  0
    7.5712    2.7050   26.2502 C   0  0  0  0  0  0  0  0  0  0  0  0
    8.3844    2.0542   26.5735 H   0  0  0  0  0  0  0  0  0  0  0  0
    7.4758    4.0095   26.7276 C   0  0  0  0  0  0  0  0  0  0  0  0
    8.2310    4.3678   27.4170 H   0  0  0  0  0  0  0  0  0  0  0  0
    6.4516    4.8595   26.3012 C   0  0  0  0  0  0  0  0  0  0  0  0
    6.3763    5.8672   26.7062 H   0  0  0  0  0  0  0  0  0  0  0  0
    5.5211    4.3983   25.3629 C   0  0  0  0  0  0  0  0  0  0  0  0
    4.7558    5.0773   24.9952 H   0  0  0  0  0  0  0  0  0  0  0  0
    5.5988    3.0950   24.8642 C   0  0  0  0  0  0  0  0  0  0  0  0
    4.8785    2.7824   24.1074 H   0  0  0  0  0  0  0  0  0  0  0  0
    5.5115    0.9735   20.2428 C   0  0  0  0  0  0  0  0  0  0  0  0
    5.1306    1.1787   21.2421 H   0  0  0  0  0  0  0  0  0  0  0  0
    4.8461    1.4109   19.0962 C   0  0  0  0  0  0  0  0  0  0  0  0
    3.8913    1.9237   19.1709 H   0  0  0  0  0  0  0  0  0  0  0  0
  1  2  1  0
  2  3  2  0
  3  4  1  0
  4  5  1  0
  4  6  2  0
  6  7  1  0
  7  8  1  0
  8  9  1  0
  8 10  1  0
  8 11  1  0
 11 12  1  0
 11 13  1  0
 11 14  1  0
 14 15  1  0
 15 16  1  6
 15 17  1  0
 17 18  1  0
 17 19  1  0
 19 20  2  0
 19 21  2  0
 19 22  1  0
 22 23  2  0
 23 24  1  0
 23 25  1  0
 25 26  1  0
 25 27  2  0
 27 28  1  0
 27 29  1  0
 29 30  1  0
 29 31  2  0
 31 32  1  0
  6 33  1  0
 33 34  1  0
 33 35  2  0
 35 36  1  0
 35  2  1  0
 15  7  1  0
 31 22  1  0
M  END
>  <cnnaffinity>  (1) 
-4.62617

>  <filename>  (1) 
O=S(=O)(N[C@@H]1OCCN1c1cccnc1)c1ccccc1

$$$$
