
     RDKit          3D

 26 27  0  0  0  0  0  0  0  0999 V2000
    4.9567    1.7652   17.0108 H   0  0  0  0  0  0  0  0  0  0  0  0
    5.4190    1.2696   17.8618 C   0  0  0  0  0  0  0  0  0  0  0  0
    6.5809    0.6479   17.6196 N   0  0  0  0  0  0  0  0  0  0  0  0
    7.1897    0.0400   18.6340 C   0  0  0  0  0  0  0  0  0  0  0  0
    8.1452   -0.4326   18.4086 H   0  0  0  0  0  0  0  0  0  0  0  0
    6.6241    0.0107   19.9000 C   0  0  0  0  0  0  0  0  0  0  0  0
    7.5473   -0.7726   21.1613 S   0  0  0  0  0  0  0  0  0  0  0  0
    7.1350   -0.1280   22.4027 O   0  0  0  0  0  0  0  0  0  0  0  0
    8.9296   -0.7740   20.6980 O   0  0  0  0  0  0  0  0  0  0  0  0
    6.9279   -2.5388   21.2172 C   0  0  0  0  0  0  0  0  0  0  0  0
    5.8925   -2.3975   21.5631 H   0  0  0  0  0  0  0  0  0  0  0  0
    6.9286   -2.8239   20.1655 H   0  0  0  0  0  0  0  0  0  0  0  0
    7.6716   -3.4800   22.0428 N   0  0  0  0  0  0  0  0  0  0  0  0
    7.5656   -4.4687   21.8184 H   0  0  0  0  0  0  0  0  0  0  0  0
    7.5502   -3.2440   23.4579 C   0  0  0  0  0  0  0  0  0  0  0  0
    6.5270   -3.0987   23.8414 H   0  0  0  0  0  0  0  0  0  0  0  0
    8.5445   -3.9307   24.3332 C   0  0  0  0  0  0  0  0  0  0  0  0
    8.1973   -4.3356   25.2816 H   0  0  0  0  0  0  0  0  0  0  0  0
    9.3033   -4.5328   23.8334 H   0  0  0  0  0  0  0  0  0  0  0  0
    8.6219   -2.4397   24.1501 C   0  0  0  0  0  0  0  0  0  0  0  0
    8.3204   -1.7883   24.9694 H   0  0  0  0  0  0  0  0  0  0  0  0
    9.4255   -2.0420   23.5313 H   0  0  0  0  0  0  0  0  0  0  0  0
    5.4155    0.6522   20.1825 C   0  0  0  0  0  0  0  0  0  0  0  0
    4.9821    0.6619   21.1853 H   0  0  0  0  0  0  0  0  0  0  0  0
    4.8062    1.2976   19.1156 C   0  0  0  0  0  0  0  0  0  0  0  0
    3.8809    1.8383   19.2511 H   0  0  0  0  0  0  0  0  0  0  0  0
  1  2  1  0
  2  3  2  0
  3  4  1  0
  4  5  1  0
  4  6  2  0
  6  7  1  0
  7  8  2  0
  7  9  2  0
  7 10  1  0
 10 11  1  0
 10 12  1  0
 10 13  1  0
 13 14  1  0
 13 15  1  0
 15 16  1  0
 15 17  1  0
 17 18  1  0
 17 19  1  0
 17 20  1  0
 20 21  1  0
 20 22  1  0
  6 23  1  0
 23 24  1  0
 23 25  2  0
 25 26  1  0
 25  2  1  0
 20 15  1  0
M  END
>  <cnnaffinity>  (1) 
-4.15573

>  <filename>  (1) 
O=S(=O)(CNC1CC1)c1cccnc1

$$$$
