
     RDKit          3D

 37 39  0  0  0  0  0  0  0  0999 V2000
    5.6059   -1.6021   21.8872 H   0  0  0  0  0  0  0  0  0  0  0  0
    6.6733   -1.5323   21.8793 C   0  0  0  0  0  0  0  0  0  0  0  0
    7.3360   -0.7659   21.0037 C   0  0  0  0  0  0  0  0  0  0  0  0
    6.6868    0.0123   19.9350 C   0  0  0  0  0  0  0  0  0  0  0  0
    7.2210    0.0641   18.6331 C   0  0  0  0  0  0  0  0  0  0  0  0
    8.1594   -0.4374   18.4068 H   0  0  0  0  0  0  0  0  0  0  0  0
    6.6337    0.6788   17.5999 N   0  0  0  0  0  0  0  0  0  0  0  0
    5.4658    1.2965   17.8377 C   0  0  0  0  0  0  0  0  0  0  0  0
    5.0007    1.7888   16.9859 H   0  0  0  0  0  0  0  0  0  0  0  0
    4.8449    1.3230   19.0936 C   0  0  0  0  0  0  0  0  0  0  0  0
    3.9041    1.8519   19.2183 H   0  0  0  0  0  0  0  0  0  0  0  0
    5.4609    0.6676   20.1604 C   0  0  0  0  0  0  0  0  0  0  0  0
    5.0169    0.6810   21.1597 H   0  0  0  0  0  0  0  0  0  0  0  0
    8.7263   -0.7493   21.0717 N   0  0  0  0  0  0  0  0  0  0  0  0
    9.2799   -0.0923   20.5517 H   0  0  0  0  0  0  0  0  0  0  0  0
    9.4539   -1.4626   21.9699 C   0  0  0  0  0  0  0  0  0  0  0  0
   11.0939   -1.2996   22.0397 S   0  0  0  0  0  0  0  0  0  0  0  0
    8.7743   -2.2917   22.7902 N   0  0  0  0  0  0  0  0  0  0  0  0
    9.3057   -2.4989   23.6245 H   0  0  0  0  0  0  0  0  0  0  0  0
    7.3510   -2.2055   23.0032 C   0  0  1  0  0  0  0  0  0  0  0  0
    6.9028   -3.1951   23.1859 H   0  0  0  0  0  0  0  0  0  0  0  0
    7.2379   -1.3226   24.1793 N   0  0  0  0  0  0  0  0  0  0  0  0
    8.0741   -0.7588   24.1206 H   0  0  0  0  0  0  0  0  0  0  0  0
    7.6984   -2.1541   25.5504 S   0  0  0  0  0  0  0  0  0  0  0  0
    7.0831   -3.4636   25.4998 O   0  0  0  0  0  0  0  0  0  0  0  0
    9.1491   -1.9635   25.5378 O   0  0  0  0  0  0  0  0  0  0  0  0
    7.0142   -1.2263   26.8893 C   0  0  0  0  0  0  0  0  0  0  0  0
    5.7504   -1.5552   27.4121 C   0  0  0  0  0  0  0  0  0  0  0  0
    5.1471   -2.3586   26.9921 H   0  0  0  0  0  0  0  0  0  0  0  0
    5.2600   -0.8438   28.5120 C   0  0  0  0  0  0  0  0  0  0  0  0
    4.2871   -1.0972   28.9274 H   0  0  0  0  0  0  0  0  0  0  0  0
    6.0152    0.1800   29.0942 C   0  0  0  0  0  0  0  0  0  0  0  0
    5.6283    0.7269   29.9522 H   0  0  0  0  0  0  0  0  0  0  0  0
    7.2736    0.4950   28.5695 C   0  0  0  0  0  0  0  0  0  0  0  0
    7.8781    1.2728   29.0280 H   0  0  0  0  0  0  0  0  0  0  0  0
    7.7853   -0.2100   27.4788 C   0  0  0  0  0  0  0  0  0  0  0  0
    8.7862    0.0194   27.1151 H   0  0  0  0  0  0  0  0  0  0  0  0
  1  2  1  0
  2  3  2  0
  3  4  1  0
  4  5  2  0
  5  6  1  0
  5  7  1  0
  7  8  2  0
  8  9  1  0
  8 10  1  0
 10 11  1  0
 10 12  2  0
 12 13  1  0
  3 14  1  0
 14 15  1  0
 14 16  1  0
 16 17  2  0
 16 18  1  0
 18 19  1  0
 18 20  1  0
 20 21  1  1
 20 22  1  0
 22 23  1  0
 22 24  1  0
 24 25  2  0
 24 26  2  0
 24 27  1  0
 27 28  2  0
 28 29  1  0
 28 30  1  0
 30 31  1  0
 30 32  2  0
 32 33  1  0
 32 34  1  0
 34 35  1  0
 34 36  2  0
 36 37  1  0
 20  2  1  0
 36 27  1  0
 12  4  1  0
M  END
>  <cnnaffinity>  (1) 
-5.0491

>  <filename>  (1) 
O=S(=O)(N[C@H]1C=C(c2cccnc2)NC(=S)N1)c1ccccc1

$$$$
