
     RDKit          3D

 30 31  0  0  0  0  0  0  0  0999 V2000
    5.0743    1.7232   17.0991 H   0  0  0  0  0  0  0  0  0  0  0  0
    5.4910    1.2165   17.9680 C   0  0  0  0  0  0  0  0  0  0  0  0
    6.6371    0.5529   17.7659 N   0  0  0  0  0  0  0  0  0  0  0  0
    7.1790   -0.0770   18.8004 C   0  0  0  0  0  0  0  0  0  0  0  0
    8.1022   -0.6160   18.6026 H   0  0  0  0  0  0  0  0  0  0  0  0
    6.6065   -0.0594   20.0633 C   0  0  0  0  0  0  0  0  0  0  0  0
    7.6364   -0.8337   21.2086 S   0  0  0  0  0  0  0  0  0  0  0  0
    8.3453    0.1286   22.0223 O   0  0  0  0  0  0  0  0  0  0  0  0
    8.3300   -1.9123   20.5306 O   0  0  0  0  0  0  0  0  0  0  0  0
    6.4836   -1.6374   22.1131 N   0  0  0  0  0  0  0  0  0  0  0  0
    6.6009   -2.4771   21.5493 H   0  0  0  0  0  0  0  0  0  0  0  0
    7.0603   -2.0720   23.3789 C   0  0  0  0  0  0  0  0  0  0  0  0
    7.7490   -1.3525   23.8518 H   0  0  0  0  0  0  0  0  0  0  0  0
    6.2490   -2.3126   24.0808 H   0  0  0  0  0  0  0  0  0  0  0  0
    7.7289   -3.2603   23.0105 O   0  0  0  0  0  0  0  0  0  0  0  0
    8.3204   -4.0524   23.9615 C   0  0  0  0  0  0  0  0  0  0  0  0
    8.7150   -5.3282   23.5274 C   0  0  0  0  0  0  0  0  0  0  0  0
    8.5057   -5.6050   22.4958 H   0  0  0  0  0  0  0  0  0  0  0  0
    9.4016   -6.1673   24.4074 C   0  0  0  0  0  0  0  0  0  0  0  0
    9.7768   -7.1299   24.0616 H   0  0  0  0  0  0  0  0  0  0  0  0
    9.6801   -5.7545   25.7151 C   0  0  0  0  0  0  0  0  0  0  0  0
   10.2331   -6.4093   26.3795 H   0  0  0  0  0  0  0  0  0  0  0  0
    9.2521   -4.4997   26.1534 C   0  0  0  0  0  0  0  0  0  0  0  0
    9.4453   -4.1750   27.1741 H   0  0  0  0  0  0  0  0  0  0  0  0
    8.5530   -3.6498   25.2831 C   0  0  0  0  0  0  0  0  0  0  0  0
    8.1574   -2.7011   25.6269 H   0  0  0  0  0  0  0  0  0  0  0  0
    5.3950    0.6036   20.3014 C   0  0  0  0  0  0  0  0  0  0  0  0
    4.8937    0.6152   21.2737 H   0  0  0  0  0  0  0  0  0  0  0  0
    4.8375    1.2603   19.2046 C   0  0  0  0  0  0  0  0  0  0  0  0
    3.9109    1.8152   19.2837 H   0  0  0  0  0  0  0  0  0  0  0  0
  1  2  1  0
  2  3  2  0
  3  4  1  0
  4  5  1  0
  4  6  2  0
  6  7  1  0
  7  8  2  0
  7  9  2  0
  7 10  1  0
 10 11  1  0
 10 12  1  0
 12 13  1  0
 12 14  1  0
 12 15  1  0
 15 16  1  0
 16 17  2  0
 17 18  1  0
 17 19  1  0
 19 20  1  0
 19 21  2  0
 21 22  1  0
 21 23  1  0
 23 24  1  0
 23 25  2  0
 25 26  1  0
  6 27  1  0
 27 28  1  0
 27 29  2  0
 29 30  1  0
 29  2  1  0
 25 16  1  0
M  END
>  <cnnaffinity>  (1) 
-4.21108

>  <filename>  (1) 
O=S(=O)(NCOc1ccccc1)c1cccnc1

$$$$
