
     RDKit          3D

 36 38  0  0  0  0  0  0  0  0999 V2000
    5.0424    1.7449   16.9896 H   0  0  0  0  0  0  0  0  0  0  0  0
    5.4821    1.2448   17.8493 C   0  0  0  0  0  0  0  0  0  0  0  0
    6.6377    0.5995   17.6216 N   0  0  0  0  0  0  0  0  0  0  0  0
    7.2091   -0.0186   18.6615 C   0  0  0  0  0  0  0  0  0  0  0  0
    8.1633   -0.5061   18.4684 H   0  0  0  0  0  0  0  0  0  0  0  0
    6.6555   -0.0324   19.9477 C   0  0  0  0  0  0  0  0  0  0  0  0
    7.4001   -0.7079   21.0673 C   0  0  2  0  0  0  0  0  0  0  0  0
    6.9041   -0.4661   22.0246 H   0  0  0  0  0  0  0  0  0  0  0  0
    8.7258   -0.2321   21.0547 O   0  0  0  0  0  0  0  0  0  0  0  0
    9.5239   -1.1974   21.7074 C   0  0  0  0  0  0  0  0  0  0  0  0
   10.5551   -1.0898   21.3585 H   0  0  0  0  0  0  0  0  0  0  0  0
    9.5055   -1.0294   22.7936 H   0  0  0  0  0  0  0  0  0  0  0  0
    8.8971   -2.5498   21.3601 C   0  0  0  0  0  0  0  0  0  0  0  0
    8.8989   -3.2211   22.2302 H   0  0  0  0  0  0  0  0  0  0  0  0
    9.4229   -3.0741   20.5572 H   0  0  0  0  0  0  0  0  0  0  0  0
    7.5297   -2.1783   20.9645 N   0  0  0  0  0  0  0  0  0  0  0  0
    6.4430   -3.0278   21.5134 N   0  0  0  0  0  0  0  0  0  0  0  0
    6.7854   -3.4608   22.3791 H   0  0  0  0  0  0  0  0  0  0  0  0
    6.0439   -4.6035   20.8511 S   0  0  0  0  0  0  0  0  0  0  0  0
    5.5399   -4.4919   19.5005 O   0  0  0  0  0  0  0  0  0  0  0  0
    7.1998   -5.4268   21.1864 O   0  0  0  0  0  0  0  0  0  0  0  0
    4.7269   -5.0694   21.9711 C   0  0  0  0  0  0  0  0  0  0  0  0
    4.3198   -6.4056   21.8486 C   0  0  0  0  0  0  0  0  0  0  0  0
    4.8819   -7.1114   21.2379 H   0  0  0  0  0  0  0  0  0  0  0  0
    3.1716   -6.8499   22.4994 C   0  0  0  0  0  0  0  0  0  0  0  0
    2.8359   -7.8662   22.3493 H   0  0  0  0  0  0  0  0  0  0  0  0
    2.4634   -6.0041   23.3518 C   0  0  0  0  0  0  0  0  0  0  0  0
    1.5710   -6.3577   23.8683 H   0  0  0  0  0  0  0  0  0  0  0  0
    2.9352   -4.7087   23.5598 C   0  0  0  0  0  0  0  0  0  0  0  0
    2.4066   -4.0793   24.2657 H   0  0  0  0  0  0  0  0  0  0  0  0
    4.0653   -4.2255   22.8857 C   0  0  0  0  0  0  0  0  0  0  0  0
    4.4063   -3.2090   23.0865 H   0  0  0  0  0  0  0  0  0  0  0  0
    5.4540    0.6441   20.1731 C   0  0  0  0  0  0  0  0  0  0  0  0
    5.0120    0.6779   21.1725 H   0  0  0  0  0  0  0  0  0  0  0  0
    4.8485    1.2919   19.0955 C   0  0  0  0  0  0  0  0  0  0  0  0
    3.9194    1.8417   19.2081 H   0  0  0  0  0  0  0  0  0  0  0  0
  1  2  1  0
  2  3  2  0
  3  4  1  0
  4  5  1  0
  4  6  2  0
  6  7  1  0
  7  8  1  1
  7  9  1  0
  9 10  1  0
 10 11  1  0
 10 12  1  0
 10 13  1  0
 13 14  1  0
 13 15  1  0
 13 16  1  0
 16 17  1  0
 17 18  1  0
 17 19  1  0
 19 20  2  0
 19 21  2  0
 19 22  1  0
 22 23  2  0
 23 24  1  0
 23 25  1  0
 25 26  1  0
 25 27  2  0
 27 28  1  0
 27 29  1  0
 29 30  1  0
 29 31  2  0
 31 32  1  0
  6 33  1  0
 33 34  1  0
 33 35  2  0
 35 36  1  0
 35  2  1  0
 16  7  1  0
 31 22  1  0
M  END
>  <cnnaffinity>  (1) 
-5.39634

>  <filename>  (1) 
O=S(=O)(NN1CCO[C@H]1c1cccnc1)c1ccccc1

$$$$
