
     RDKit          3D

 36 38  0  0  0  0  0  0  0  0999 V2000
    4.9442    1.7852   16.9737 H   0  0  0  0  0  0  0  0  0  0  0  0
    5.3984    1.3107   17.8424 C   0  0  0  0  0  0  0  0  0  0  0  0
    6.5542    0.6635   17.6281 N   0  0  0  0  0  0  0  0  0  0  0  0
    7.1207    0.0526   18.6763 C   0  0  0  0  0  0  0  0  0  0  0  0
    8.0637   -0.4489   18.4657 H   0  0  0  0  0  0  0  0  0  0  0  0
    6.5895    0.0537   19.9843 C   0  0  0  0  0  0  0  0  0  0  0  0
    7.2603   -0.7003   21.0760 C   0  0  0  0  0  0  0  0  0  0  0  0
    7.6500   -2.0212   21.1086 C   0  0  0  0  0  0  0  0  0  0  0  0
    7.3614   -2.7868   20.4138 H   0  0  0  0  0  0  0  0  0  0  0  0
    8.4464   -2.1518   22.2625 C   0  0  0  0  0  0  0  0  0  0  0  0
    8.9586   -3.0324   22.6355 H   0  0  0  0  0  0  0  0  0  0  0  0
    8.5299   -1.0070   22.9196 N   0  0  0  0  0  0  0  0  0  0  0  0
    7.7751   -0.1314   22.2092 N   0  0  0  0  0  0  0  0  0  0  0  0
    7.4839    1.1873   22.7427 C   0  0  0  0  0  0  0  0  0  0  0  0
    7.4634    1.8901   21.9051 H   0  0  0  0  0  0  0  0  0  0  0  0
    8.3286    1.4313   23.3950 H   0  0  0  0  0  0  0  0  0  0  0  0
    6.1890    1.2349   23.4368 N   0  0  0  0  0  0  0  0  0  0  0  0
    6.0056    0.6480   24.2390 H   0  0  0  0  0  0  0  0  0  0  0  0
    5.5214    2.6656   23.8981 S   0  0  0  0  0  0  0  0  0  0  0  0
    5.2480    3.4144   22.6950 O   0  0  0  0  0  0  0  0  0  0  0  0
    4.5069    2.2085   24.8266 O   0  0  0  0  0  0  0  0  0  0  0  0
    6.8353    3.4650   24.7940 C   0  0  0  0  0  0  0  0  0  0  0  0
    7.7003    4.3776   24.1622 C   0  0  0  0  0  0  0  0  0  0  0  0
    7.5882    4.6446   23.1120 H   0  0  0  0  0  0  0  0  0  0  0  0
    8.7405    4.9565   24.8961 C   0  0  0  0  0  0  0  0  0  0  0  0
    9.4173    5.6596   24.4138 H   0  0  0  0  0  0  0  0  0  0  0  0
    8.9159    4.6447   26.2492 C   0  0  0  0  0  0  0  0  0  0  0  0
    9.7175    5.1073   26.8214 H   0  0  0  0  0  0  0  0  0  0  0  0
    8.0461    3.7349   26.8611 C   0  0  0  0  0  0  0  0  0  0  0  0
    8.1446    3.4843   27.9099 H   0  0  0  0  0  0  0  0  0  0  0  0
    7.0148    3.1345   26.1430 C   0  0  0  0  0  0  0  0  0  0  0  0
    6.3698    2.4136   26.6436 H   0  0  0  0  0  0  0  0  0  0  0  0
    5.4029    0.7728   20.1883 C   0  0  0  0  0  0  0  0  0  0  0  0
    4.9966    0.8542   21.1981 H   0  0  0  0  0  0  0  0  0  0  0  0
    4.7839    1.3822   19.0951 C   0  0  0  0  0  0  0  0  0  0  0  0
    3.8462    1.9147   19.1985 H   0  0  0  0  0  0  0  0  0  0  0  0
  1  2  1  0
  2  3  2  0
  3  4  1  0
  4  5  1  0
  4  6  2  0
  6  7  1  0
  7  8  2  0
  8  9  1  0
  8 10  1  0
 10 11  1  0
 10 12  2  0
 12 13  1  0
 13 14  1  0
 14 15  1  0
 14 16  1  0
 14 17  1  0
 17 18  1  0
 17 19  1  0
 19 20  2  0
 19 21  2  0
 19 22  1  0
 22 23  2  0
 23 24  1  0
 23 25  1  0
 25 26  1  0
 25 27  2  0
 27 28  1  0
 27 29  1  0
 29 30  1  0
 29 31  2  0
 31 32  1  0
  6 33  1  0
 33 34  1  0
 33 35  2  0
 35 36  1  0
 35  2  1  0
 13  7  1  0
 31 22  1  0
M  END
>  <cnnaffinity>  (1) 
-4.86647

>  <filename>  (1) 
O=S(=O)(NCn1nccc1-c1cccnc1)c1ccccc1

$$$$
