
     RDKit          3D

 28 30  0  0  0  0  0  0  0  0999 V2000
    4.9451    1.7678   17.0396 H   0  0  0  0  0  0  0  0  0  0  0  0
    5.4165    1.2604   17.8747 C   0  0  0  0  0  0  0  0  0  0  0  0
    6.5753    0.6348   17.6071 N   0  0  0  0  0  0  0  0  0  0  0  0
    7.2052    0.0460   18.6288 C   0  0  0  0  0  0  0  0  0  0  0  0
    8.1510   -0.4475   18.4115 H   0  0  0  0  0  0  0  0  0  0  0  0
    6.7105    0.0534   19.9533 C   0  0  0  0  0  0  0  0  0  0  0  0
    7.5925   -0.4014   20.9357 O   0  0  0  0  0  0  0  0  0  0  0  0
    7.1183   -0.9865   22.4056 S   0  0  0  0  0  0  0  0  0  0  0  0
    8.3376   -1.4858   22.9901 O   0  0  0  0  0  0  0  0  0  0  0  0
    6.0281   -1.9133   22.1743 O   0  0  0  0  0  0  0  0  0  0  0  0
    6.7967    0.7713   23.1710 C   0  0  0  0  0  0  0  0  0  0  0  0
    6.0285    1.0999   24.1746 N   0  0  0  0  0  0  0  0  0  0  0  0
    6.2792    2.4481   24.4137 C   0  0  0  0  0  0  0  0  0  0  0  0
    5.7422    3.3135   25.3815 C   0  0  0  0  0  0  0  0  0  0  0  0
    5.0305    2.9219   26.0993 H   0  0  0  0  0  0  0  0  0  0  0  0
    6.1433    4.6465   25.3802 C   0  0  0  0  0  0  0  0  0  0  0  0
    5.7258    5.3352   26.1084 H   0  0  0  0  0  0  0  0  0  0  0  0
    7.0821    5.1239   24.4336 C   0  0  0  0  0  0  0  0  0  0  0  0
    7.3661    6.1723   24.4494 H   0  0  0  0  0  0  0  0  0  0  0  0
    7.6386    4.2728   23.4816 C   0  0  0  0  0  0  0  0  0  0  0  0
    8.3568    4.6446   22.7546 H   0  0  0  0  0  0  0  0  0  0  0  0
    7.2238    2.9347   23.4955 C   0  0  0  0  0  0  0  0  0  0  0  0
    7.5485    1.8462   22.7183 N   0  0  0  0  0  0  0  0  0  0  0  0
    8.2159    1.9130   21.9632 H   0  0  0  0  0  0  0  0  0  0  0  0
    5.4677    0.6313   20.2142 C   0  0  0  0  0  0  0  0  0  0  0  0
    4.9979    0.5994   21.1989 H   0  0  0  0  0  0  0  0  0  0  0  0
    4.8267    1.2735   19.1408 C   0  0  0  0  0  0  0  0  0  0  0  0
    3.8940    1.8043   19.2858 H   0  0  0  0  0  0  0  0  0  0  0  0
  1  2  1  0
  2  3  2  0
  3  4  1  0
  4  5  1  0
  4  6  2  0
  6  7  1  0
  7  8  1  0
  8  9  2  0
  8 10  2  0
  8 11  1  0
 11 12  2  0
 12 13  1  0
 13 14  2  0
 14 15  1  0
 14 16  1  0
 16 17  1  0
 16 18  2  0
 18 19  1  0
 18 20  1  0
 20 21  1  0
 20 22  2  0
 22 23  1  0
 23 24  1  0
  6 25  1  0
 25 26  1  0
 25 27  2  0
 27 28  1  0
 27  2  1  0
 23 11  1  0
 22 13  1  0
M  END
>  <cnnaffinity>  (1) 
-4.79463

>  <filename>  (1) 
O=S(=O)(Oc1cccnc1)c1nc2ccccc2[nH]1

$$$$
