
     RDKit          3D

 23 24  0  0  0  0  0  0  0  0999 V2000
    5.0193    1.7726   16.9633 H   0  0  0  0  0  0  0  0  0  0  0  0
    5.4512    1.2751   17.8276 C   0  0  0  0  0  0  0  0  0  0  0  0
    6.6203    0.6480   17.6269 N   0  0  0  0  0  0  0  0  0  0  0  0
    7.1672    0.0235   18.6662 C   0  0  0  0  0  0  0  0  0  0  0  0
    8.1262   -0.4549   18.4807 H   0  0  0  0  0  0  0  0  0  0  0  0
    6.5623    0.0080   19.9139 C   0  0  0  0  0  0  0  0  0  0  0  0
    7.4908   -0.7984   21.1276 S   0  0  0  0  0  0  0  0  0  0  0  0
    8.8971   -0.5614   20.8576 O   0  0  0  0  0  0  0  0  0  0  0  0
    6.9943   -2.1154   21.4519 O   0  0  0  0  0  0  0  0  0  0  0  0
    6.9922    0.0513   22.5189 N   0  0  0  0  0  0  0  0  0  0  0  0
    7.2034   -0.7079   23.1550 H   0  0  0  0  0  0  0  0  0  0  0  0
    7.6295    1.2730   22.8939 N   0  0  0  0  0  0  0  0  0  0  0  0
    7.3994    2.0423   24.0209 C   0  0  0  0  0  0  0  0  0  0  0  0
    6.8819    1.6536   24.8904 H   0  0  0  0  0  0  0  0  0  0  0  0
    7.8819    3.2478   23.8954 N   0  0  0  0  0  0  0  0  0  0  0  0
    8.4187    3.2863   22.6221 C   0  0  0  0  0  0  0  0  0  0  0  0
    8.8577    4.1918   22.2237 H   0  0  0  0  0  0  0  0  0  0  0  0
    8.2674    2.0930   21.9871 C   0  0  0  0  0  0  0  0  0  0  0  0
    8.5431    1.7469   21.0022 H   0  0  0  0  0  0  0  0  0  0  0  0
    5.3648    0.6857   20.1598 C   0  0  0  0  0  0  0  0  0  0  0  0
    4.9253    0.7533   21.1607 H   0  0  0  0  0  0  0  0  0  0  0  0
    4.7945    1.3254   19.0634 C   0  0  0  0  0  0  0  0  0  0  0  0
    3.8623    1.8704   19.1609 H   0  0  0  0  0  0  0  0  0  0  0  0
  1  2  1  0
  2  3  2  0
  3  4  1  0
  4  5  1  0
  4  6  2  0
  6  7  1  0
  7  8  2  0
  7  9  2  0
  7 10  1  0
 10 11  1  0
 10 12  1  0
 12 13  1  0
 13 14  1  0
 13 15  2  0
 15 16  1  0
 16 17  1  0
 16 18  2  0
 18 19  1  0
  6 20  1  0
 20 21  1  0
 20 22  2  0
 22 23  1  0
 22  2  1  0
 18 12  1  0
M  END
>  <cnnaffinity>  (1) 
-4.27284

>  <filename>  (1) 
O=S(=O)(Nn1ccnc1)c1cccnc1

$$$$
