
     RDKit          3D

 34 35  0  0  0  0  0  0  0  0999 V2000
    5.0320    1.7362   16.9992 H   0  0  0  0  0  0  0  0  0  0  0  0
    5.4650    1.2526   17.8730 C   0  0  0  0  0  0  0  0  0  0  0  0
    6.6295    0.6223   17.6717 N   0  0  0  0  0  0  0  0  0  0  0  0
    7.2029    0.0206   18.7086 C   0  0  0  0  0  0  0  0  0  0  0  0
    8.1686   -0.4487   18.5375 H   0  0  0  0  0  0  0  0  0  0  0  0
    6.6213    0.0352   19.9646 C   0  0  0  0  0  0  0  0  0  0  0  0
    7.5528   -0.7702   21.1862 S   0  0  0  0  0  0  0  0  0  0  0  0
    8.9161   -0.8749   20.7110 O   0  0  0  0  0  0  0  0  0  0  0  0
    7.2449   -0.1179   22.4446 O   0  0  0  0  0  0  0  0  0  0  0  0
    6.9611   -2.2658   21.1437 O   0  0  0  0  0  0  0  0  0  0  0  0
    5.5838   -2.5898   21.2444 O   0  0  0  0  0  0  0  0  0  0  0  0
    5.4686   -3.6225   22.2169 C   0  0  0  0  0  0  0  0  0  0  0  0
    6.0647   -4.4883   21.8944 H   0  0  0  0  0  0  0  0  0  0  0  0
    4.4040   -3.8825   22.2268 H   0  0  0  0  0  0  0  0  0  0  0  0
    5.9502   -3.1494   23.5957 C   0  0  0  0  0  0  0  0  0  0  0  0
    5.6357   -2.1177   23.7805 H   0  0  0  0  0  0  0  0  0  0  0  0
    7.0538   -3.1062   23.5700 H   0  0  0  0  0  0  0  0  0  0  0  0
    5.4568   -4.0371   24.6341 N   0  0  0  0  0  0  0  0  0  0  0  0
    6.1978   -5.2854   24.7780 C   0  0  0  0  0  0  0  0  0  0  0  0
    5.8662   -6.0273   24.0359 H   0  0  0  0  0  0  0  0  0  0  0  0
    7.2788   -5.1311   24.6086 H   0  0  0  0  0  0  0  0  0  0  0  0
    5.9509   -5.7733   26.2198 C   0  0  0  0  0  0  0  0  0  0  0  0
    6.9030   -6.0131   26.7089 H   0  0  0  0  0  0  0  0  0  0  0  0
    5.3435   -6.6847   26.2341 H   0  0  0  0  0  0  0  0  0  0  0  0
    5.2137   -4.6187   26.9324 C   0  0  0  0  0  0  0  0  0  0  0  0
    5.6969   -4.3386   27.8748 H   0  0  0  0  0  0  0  0  0  0  0  0
    4.1811   -4.9000   27.1665 H   0  0  0  0  0  0  0  0  0  0  0  0
    5.2382   -3.4422   25.9452 C   0  0  0  0  0  0  0  0  0  0  0  0
    4.2938   -2.8818   25.9493 H   0  0  0  0  0  0  0  0  0  0  0  0
    6.0353   -2.7272   26.2108 H   0  0  0  0  0  0  0  0  0  0  0  0
    5.3987    0.6677   20.2078 C   0  0  0  0  0  0  0  0  0  0  0  0
    4.9340    0.7137   21.1957 H   0  0  0  0  0  0  0  0  0  0  0  0
    4.8155    1.2912   19.1102 C   0  0  0  0  0  0  0  0  0  0  0  0
    3.8790    1.8238   19.1956 H   0  0  0  0  0  0  0  0  0  0  0  0
  1  2  1  0
  2  3  2  0
  3  4  1  0
  4  5  1  0
  4  6  2  0
  6  7  1  0
  7  8  2  0
  7  9  2  0
  7 10  1  0
 10 11  1  0
 11 12  1  0
 12 13  1  0
 12 14  1  0
 12 15  1  0
 15 16  1  0
 15 17  1  0
 15 18  1  0
 18 19  1  0
 19 20  1  0
 19 21  1  0
 19 22  1  0
 22 23  1  0
 22 24  1  0
 22 25  1  0
 25 26  1  0
 25 27  1  0
 25 28  1  0
 28 29  1  0
 28 30  1  0
  6 31  1  0
 31 32  1  0
 31 33  2  0
 33 34  1  0
 33  2  1  0
 28 18  1  0
M  END
>  <cnnaffinity>  (1) 
-4.43028

>  <filename>  (1) 
O=S(=O)(OOCCN1CCCC1)c1cccnc1

$$$$
