
     RDKit          3D

 38 40  0  0  0  0  0  0  0  0999 V2000
    6.1461    5.8026   27.9115 H   0  0  0  0  0  0  0  0  0  0  0  0
    6.9986    5.3917   27.3783 C   0  0  0  0  0  0  0  0  0  0  0  0
    6.7122    4.3564   26.5825 N   0  0  0  0  0  0  0  0  0  0  0  0
    7.7138    3.8645   25.8580 C   0  0  0  0  0  0  0  0  0  0  0  0
    7.4393    2.8225   24.9828 N   0  0  0  0  0  0  0  0  0  0  0  0
    7.8220    3.0001   23.5797 C   0  0  0  0  0  0  0  0  0  0  0  0
    7.0045    3.4831   23.0147 H   0  0  0  0  0  0  0  0  0  0  0  0
    8.7010    3.6471   23.4925 H   0  0  0  0  0  0  0  0  0  0  0  0
    8.1515    1.6463   22.9349 C   0  0  0  0  0  0  0  0  0  0  0  0
    9.0567    1.2392   23.4042 H   0  0  0  0  0  0  0  0  0  0  0  0
    8.3621    1.8389   21.8804 H   0  0  0  0  0  0  0  0  0  0  0  0
    7.0024    0.6982   23.0631 N   0  0  0  0  0  0  0  0  0  0  0  0
    7.3570   -0.8055   22.3952 S   0  0  0  0  0  0  0  0  0  0  0  0
    6.1685   -1.6006   22.2884 O   0  0  0  0  0  0  0  0  0  0  0  0
    8.5562   -1.2819   23.0217 O   0  0  0  0  0  0  0  0  0  0  0  0
    7.8027   -0.3451   20.9037 O   0  0  0  0  0  0  0  0  0  0  0  0
    6.8841    0.1276   19.9570 C   0  0  0  0  0  0  0  0  0  0  0  0
    7.3133    0.0957   18.6115 C   0  0  0  0  0  0  0  0  0  0  0  0
    8.2583   -0.3884   18.3720 H   0  0  0  0  0  0  0  0  0  0  0  0
    6.6104    0.6228   17.6016 N   0  0  0  0  0  0  0  0  0  0  0  0
    5.4307    1.1905   17.9085 C   0  0  0  0  0  0  0  0  0  0  0  0
    4.8803    1.6193   17.0752 H   0  0  0  0  0  0  0  0  0  0  0  0
    4.9070    1.2294   19.2067 C   0  0  0  0  0  0  0  0  0  0  0  0
    3.9369    1.6850   19.3777 H   0  0  0  0  0  0  0  0  0  0  0  0
    5.6445    0.6817   20.2696 C   0  0  0  0  0  0  0  0  0  0  0  0
    5.2674    0.6973   21.2941 H   0  0  0  0  0  0  0  0  0  0  0  0
    6.4946    0.5886   24.4624 C   0  0  0  0  0  0  0  0  0  0  0  0
    5.5489    0.0407   24.4318 H   0  0  0  0  0  0  0  0  0  0  0  0
    7.1876    0.0401   25.1143 H   0  0  0  0  0  0  0  0  0  0  0  0
    6.2362    1.9852   25.0918 C   0  0  0  0  0  0  0  0  0  0  0  0
    5.9458    1.8662   26.1409 H   0  0  0  0  0  0  0  0  0  0  0  0
    5.3873    2.4500   24.5621 H   0  0  0  0  0  0  0  0  0  0  0  0
    9.0339    4.3586   25.9151 C   0  0  0  0  0  0  0  0  0  0  0  0
    9.7671    3.8866   25.2732 H   0  0  0  0  0  0  0  0  0  0  0  0
    9.3276    5.3929   26.7888 C   0  0  0  0  0  0  0  0  0  0  0  0
   10.3468    5.7786   26.8661 H   0  0  0  0  0  0  0  0  0  0  0  0
    8.2747    5.9347   27.5399 C   0  0  0  0  0  0  0  0  0  0  0  0
    8.4223    6.7545   28.2298 H   0  0  0  0  0  0  0  0  0  0  0  0
  1  2  1  0
  2  3  2  0
  3  4  1  0
  4  5  1  0
  5  6  1  0
  6  7  1  0
  6  8  1  0
  6  9  1  0
  9 10  1  0
  9 11  1  0
  9 12  1  0
 12 13  1  0
 13 14  2  0
 13 15  2  0
 13 16  1  0
 16 17  1  0
 17 18  2  0
 18 19  1  0
 18 20  1  0
 20 21  2  0
 21 22  1  0
 21 23  1  0
 23 24  1  0
 23 25  2  0
 25 26  1  0
 12 27  1  0
 27 28  1  0
 27 29  1  0
 27 30  1  0
 30 31  1  0
 30 32  1  0
  4 33  2  0
 33 34  1  0
 33 35  1  0
 35 36  1  0
 35 37  2  0
 37 38  1  0
 37  2  1  0
 30  5  1  0
 25 17  1  0
M  END
>  <cnnaffinity>  (1) 
-4.59247

>  <filename>  (1) 
O=S(=O)(Oc1cccnc1)N1CCN(c2ccccn2)CC1

$$$$
