
     RDKit          3D

 43 46  0  0  0  0  0  0  0  0999 V2000
    5.0685    1.7729   17.0950 H   0  0  0  0  0  0  0  0  0  0  0  0
    5.5689    1.3674   17.9701 C   0  0  0  0  0  0  0  0  0  0  0  0
    6.8046    0.8855   17.7739 N   0  0  0  0  0  0  0  0  0  0  0  0
    7.4364    0.3704   18.8349 C   0  0  0  0  0  0  0  0  0  0  0  0
    8.4640    0.0569   18.6449 H   0  0  0  0  0  0  0  0  0  0  0  0
    6.8677    0.2187   20.1101 C   0  0  0  0  0  0  0  0  0  0  0  0
    7.6641   -0.4496   21.2296 C   0  0  2  0  0  0  0  0  0  0  0  0
    8.3702    0.7502   21.7615 N   0  0  0  0  0  0  0  0  0  0  0  0
    7.6675    1.3534   22.1841 H   0  0  0  0  0  0  0  0  0  0  0  0
    9.3303    0.6897   23.1255 S   0  0  0  0  0  0  0  0  0  0  0  0
    8.3681    0.9440   24.1914 O   0  0  0  0  0  0  0  0  0  0  0  0
   10.1867   -0.4806   23.1402 O   0  0  0  0  0  0  0  0  0  0  0  0
   10.3441    2.1276   22.9092 C   0  0  0  0  0  0  0  0  0  0  0  0
   11.0187    2.3938   21.7042 C   0  0  0  0  0  0  0  0  0  0  0  0
   10.8703    1.7951   20.8041 H   0  0  0  0  0  0  0  0  0  0  0  0
   11.9007    3.4792   21.6539 C   0  0  0  0  0  0  0  0  0  0  0  0
   12.4103    3.7125   20.7241 H   0  0  0  0  0  0  0  0  0  0  0  0
   12.1099    4.2839   22.7804 C   0  0  0  0  0  0  0  0  0  0  0  0
   12.8173    5.1076   22.7345 H   0  0  0  0  0  0  0  0  0  0  0  0
   11.4174    4.0178   23.9653 C   0  0  0  0  0  0  0  0  0  0  0  0
   11.5605    4.6445   24.8383 H   0  0  0  0  0  0  0  0  0  0  0  0
   10.5341    2.9405   24.0376 C   0  0  0  0  0  0  0  0  0  0  0  0
    9.9927    2.7380   24.9608 H   0  0  0  0  0  0  0  0  0  0  0  0
    8.6526   -1.5644   20.7786 C   0  0  0  0  0  0  0  0  0  0  0  0
    8.7163   -1.6518   19.6981 H   0  0  0  0  0  0  0  0  0  0  0  0
    9.6551   -1.3223   21.1337 H   0  0  0  0  0  0  0  0  0  0  0  0
    8.1433   -2.8629   21.4474 C   0  0  2  0  0  0  0  0  0  0  0  0
    8.8918   -3.6610   21.4475 H   0  0  0  0  0  0  0  0  0  0  0  0
    6.7586   -3.2878   20.9033 C   0  0  0  0  0  0  0  0  0  0  0  0
    6.6626   -3.3408   19.8183 H   0  0  0  0  0  0  0  0  0  0  0  0
    6.5107   -4.2882   21.2774 H   0  0  0  0  0  0  0  0  0  0  0  0
    5.8124   -2.2061   21.4928 C   0  0  0  0  0  0  0  0  0  0  0  0
    5.0719   -2.6614   22.1581 H   0  0  0  0  0  0  0  0  0  0  0  0
    5.2765   -1.6670   20.7110 H   0  0  0  0  0  0  0  0  0  0  0  0
    6.7824   -1.2631   22.2613 C   0  0  1  0  0  0  0  0  0  0  0  0
    6.3065   -0.6131   23.0036 H   0  0  0  0  0  0  0  0  0  0  0  0
    7.7398   -2.3313   22.8337 C   0  0  0  0  0  0  0  0  0  0  0  0
    7.2190   -3.0757   23.4519 H   0  0  0  0  0  0  0  0  0  0  0  0
    8.5670   -1.9329   23.4212 H   0  0  0  0  0  0  0  0  0  0  0  0
    5.6089    0.8152   20.3126 C   0  0  0  0  0  0  0  0  0  0  0  0
    5.1406    0.8318   21.3015 H   0  0  0  0  0  0  0  0  0  0  0  0
    4.9476    1.3845   19.2224 C   0  0  0  0  0  0  0  0  0  0  0  0
    3.9687    1.8375   19.3270 H   0  0  0  0  0  0  0  0  0  0  0  0
  1  2  1  0
  2  3  2  0
  3  4  1  0
  4  5  1  0
  4  6  2  0
  6  7  1  0
  7  8  1  1
  8  9  1  0
  8 10  1  0
 10 11  2  0
 10 12  2  0
 10 13  1  0
 13 14  2  0
 14 15  1  0
 14 16  1  0
 16 17  1  0
 16 18  2  0
 18 19  1  0
 18 20  1  0
 20 21  1  0
 20 22  2  0
 22 23  1  0
  7 24  1  0
 24 25  1  0
 24 26  1  0
 24 27  1  0
 27 28  1  1
 27 29  1  0
 29 30  1  0
 29 31  1  0
 29 32  1  0
 32 33  1  0
 32 34  1  0
 32 35  1  0
 35 36  1  1
 35 37  1  0
 37 38  1  0
 37 39  1  0
  6 40  1  0
 40 41  1  0
 40 42  2  0
 42 43  1  0
 42  2  1  0
 35  7  1  0
 22 13  1  0
 37 27  1  0
M  END
>  <cnnaffinity>  (1) 
-5.12798

>  <filename>  (1) 
O=S(=O)(N[C@@]1(c2cccnc2)C[C@@H]2CC[C@H]1C2)c1ccccc1

$$$$
