
     RDKit          3D

 39 41  0  0  0  0  0  0  0  0999 V2000
    6.6530   -1.6449   22.0279 O   0  0  0  0  0  0  0  0  0  0  0  0
    7.5088   -0.8421   21.1881 S   0  0  0  0  0  0  0  0  0  0  0  0
    8.6992   -1.4401   20.6078 O   0  0  0  0  0  0  0  0  0  0  0  0
    7.9617    0.4074   22.1746 N   0  0  0  0  0  0  0  0  0  0  0  0
    8.7714    1.4983   21.6445 C   0  0  0  0  0  0  0  0  0  0  0  0
   10.0737    0.9514   21.0664 C   0  0  0  0  0  0  0  0  0  0  0  0
   11.1366    2.0183   20.9376 C   0  0  0  0  0  0  0  0  0  0  0  0
   11.3749    2.6900   22.2087 N   0  0  0  0  0  0  0  0  0  0  0  0
   12.4188    3.5424   22.3014 C   0  0  0  0  0  0  0  0  0  0  0  0
   12.9804    4.1233   21.1518 C   0  0  0  0  0  0  0  0  0  0  0  0
   14.1098    4.8672   21.3589 C   0  0  0  0  0  0  0  0  0  0  0  0
   14.6414    5.0907   22.5629 N   0  0  0  0  0  0  0  0  0  0  0  0
   13.9941    4.5272   23.5687 C   0  0  0  0  0  0  0  0  0  0  0  0
   12.8972    3.7912   23.5229 N   0  0  0  0  0  0  0  0  0  0  0  0
   14.4116    4.6956   24.5544 H   0  0  0  0  0  0  0  0  0  0  0  0
   14.6175    5.3304   20.5170 H   0  0  0  0  0  0  0  0  0  0  0  0
   12.5488    3.9966   20.1752 H   0  0  0  0  0  0  0  0  0  0  0  0
   10.4357    2.4806   23.3101 C   0  0  0  0  0  0  0  0  0  0  0  0
    9.0103    2.5356   22.7569 C   0  0  0  0  0  0  0  0  0  0  0  0
    8.2794    2.3905   23.5557 H   0  0  0  0  0  0  0  0  0  0  0  0
    8.8548    3.5400   22.3452 H   0  0  0  0  0  0  0  0  0  0  0  0
   10.6593    1.5117   23.7778 H   0  0  0  0  0  0  0  0  0  0  0  0
   10.5930    3.2456   24.0724 H   0  0  0  0  0  0  0  0  0  0  0  0
   10.8626    2.7721   20.1990 H   0  0  0  0  0  0  0  0  0  0  0  0
   12.0719    1.5681   20.5907 H   0  0  0  0  0  0  0  0  0  0  0  0
    9.8384    0.4861   20.1126 H   0  0  0  0  0  0  0  0  0  0  0  0
   10.4594    0.1635   21.7205 H   0  0  0  0  0  0  0  0  0  0  0  0
    8.1965    1.9820   20.8434 H   0  0  0  0  0  0  0  0  0  0  0  0
    8.4533   -0.1410   22.8718 H   0  0  0  0  0  0  0  0  0  0  0  0
    6.6256    0.0039   19.9786 C   0  0  0  0  0  0  0  0  0  0  0  0
    5.4187    0.6678   20.2291 C   0  0  0  0  0  0  0  0  0  0  0  0
    4.8404    1.3070   19.1353 C   0  0  0  0  0  0  0  0  0  0  0  0
    5.4900    1.2750   17.8967 C   0  0  0  0  0  0  0  0  0  0  0  0
    6.6526    0.6400   17.6927 N   0  0  0  0  0  0  0  0  0  0  0  0
    7.2172    0.0156   18.7244 C   0  0  0  0  0  0  0  0  0  0  0  0
    8.1634   -0.4828   18.5125 H   0  0  0  0  0  0  0  0  0  0  0  0
    5.0534    1.7673   17.0304 H   0  0  0  0  0  0  0  0  0  0  0  0
    3.9101    1.8536   19.2266 H   0  0  0  0  0  0  0  0  0  0  0  0
    4.9440    0.7110   21.2157 H   0  0  0  0  0  0  0  0  0  0  0  0
  1  2  2  0
  2  3  2  0
  2  4  1  0
  4  5  1  0
  5  6  1  0
  6  7  1  0
  7  8  1  0
  8  9  1  0
  9 10  2  0
 10 11  1  0
 11 12  2  0
 12 13  1  0
 13 14  2  0
 13 15  1  0
 11 16  1  0
 10 17  1  0
  8 18  1  0
 18 19  1  0
 19 20  1  0
 19 21  1  0
 18 22  1  0
 18 23  1  0
  7 24  1  0
  7 25  1  0
  6 26  1  0
  6 27  1  0
  5 28  1  0
  4 29  1  0
  2 30  1  0
 30 31  2  0
 31 32  1  0
 32 33  2  0
 33 34  1  0
 34 35  2  0
 35 36  1  0
 33 37  1  0
 32 38  1  0
 31 39  1  0
 19  5  1  0
 35 30  1  0
 14  9  1  0
M  END
>  <cnnaffinity>  (1) 
-5.32872

>  <filename>  (1) 
O=S(=O)(NC1CCN(c2ccncn2)CC1)c1cccnc1

$$$$
