
     RDKit          3D

 26 27  0  0  0  0  0  0  0  0999 V2000
    9.8898   -3.6841   23.9319 H   0  0  0  0  0  0  0  0  0  0  0  0
   10.2415   -2.9726   23.1829 C   0  0  0  0  0  0  0  0  0  0  0  0
    9.3483   -2.1813   22.6203 N   0  0  0  0  0  0  0  0  0  0  0  0
    9.8131   -1.3563   21.6929 C   0  0  0  0  0  0  0  0  0  0  0  0
    8.9796   -0.6368   20.8852 O   0  0  0  0  0  0  0  0  0  0  0  0
    7.4252   -0.9343   21.2293 S   0  0  0  0  0  0  0  0  0  0  0  0
    7.1218   -0.3711   22.5164 O   0  0  0  0  0  0  0  0  0  0  0  0
    7.1198   -2.2970   20.8760 O   0  0  0  0  0  0  0  0  0  0  0  0
    6.7982    0.1059   20.0013 C   0  0  0  0  0  0  0  0  0  0  0  0
    7.3784   -0.0274   18.7483 C   0  0  0  0  0  0  0  0  0  0  0  0
    8.3200   -0.5461   18.5708 H   0  0  0  0  0  0  0  0  0  0  0  0
    6.8041    0.4978   17.6681 N   0  0  0  0  0  0  0  0  0  0  0  0
    5.6495    1.1611   17.8228 C   0  0  0  0  0  0  0  0  0  0  0  0
    5.2045    1.5648   16.9155 H   0  0  0  0  0  0  0  0  0  0  0  0
    5.0208    1.3444   19.0590 C   0  0  0  0  0  0  0  0  0  0  0  0
    4.0858    1.8891   19.1126 H   0  0  0  0  0  0  0  0  0  0  0  0
    5.6116    0.8193   20.1991 C   0  0  0  0  0  0  0  0  0  0  0  0
    5.1668    0.9428   21.1921 H   0  0  0  0  0  0  0  0  0  0  0  0
   11.0859   -1.1335   21.3843 N   0  0  0  0  0  0  0  0  0  0  0  0
   11.9901   -1.9315   21.9541 C   0  0  0  0  0  0  0  0  0  0  0  0
   13.4908   -1.7129   21.5829 C   0  0  0  0  0  0  0  0  0  0  0  0
   13.9539   -0.5706   22.1165 F   0  0  0  0  0  0  0  0  0  0  0  0
   14.2726   -2.6978   22.0517 F   0  0  0  0  0  0  0  0  0  0  0  0
   13.7013   -1.6718   20.2609 F   0  0  0  0  0  0  0  0  0  0  0  0
   11.5910   -2.9193   22.8554 C   0  0  0  0  0  0  0  0  0  0  0  0
   12.2867   -3.6010   23.3128 H   0  0  0  0  0  0  0  0  0  0  0  0
  1  2  1  0
  2  3  2  0
  3  4  1  0
  4  5  1  0
  5  6  1  0
  6  7  2  0
  6  8  2  0
  6  9  1  0
  9 10  2  0
 10 11  1  0
 10 12  1  0
 12 13  2  0
 13 14  1  0
 13 15  1  0
 15 16  1  0
 15 17  2  0
 17 18  1  0
  4 19  2  0
 19 20  1  0
 20 21  1  0
 21 22  1  0
 21 23  1  0
 21 24  1  0
 20 25  2  0
 25 26  1  0
 25  2  1  0
 17  9  1  0
M  END
>  <cnnaffinity>  (1) 
-5.35501

>  <filename>  (1) 
O=S(=O)(Oc1nccc(C(F)(F)F)n1)c1cccnc1

$$$$
