
     RDKit          3D

 33 35  0  0  0  0  0  0  0  0999 V2000
    6.8237   -2.0113   21.5437 O   0  0  0  0  0  0  0  0  0  0  0  0
    7.5262   -0.8124   21.1408 S   0  0  0  0  0  0  0  0  0  0  0  0
    8.9246   -0.8286   20.7548 O   0  0  0  0  0  0  0  0  0  0  0  0
    7.2610    0.1314   22.4617 N   0  0  0  0  0  0  0  0  0  0  0  0
    7.7538    1.4364   22.6684 C   0  0  0  0  0  0  0  0  0  0  0  0
    8.5295    2.1183   21.7604 C   0  0  0  0  0  0  0  0  0  0  0  0
    8.7205    3.3535   22.2881 N   0  0  0  0  0  0  0  0  0  0  0  0
    8.1295    3.5256   23.4763 N   0  0  0  0  0  0  0  0  0  0  0  0
    7.5090    2.3704   23.7366 C   0  0  0  0  0  0  0  0  0  0  0  0
    6.6963    2.1627   24.9645 C   0  0  0  0  0  0  0  0  0  0  0  0
    7.0914    2.7252   26.1953 C   0  0  0  0  0  0  0  0  0  0  0  0
    6.3302    2.5189   27.3479 C   0  0  0  0  0  0  0  0  0  0  0  0
    5.1574    1.7573   27.2936 C   0  0  0  0  0  0  0  0  0  0  0  0
    4.7494    1.2003   26.0774 C   0  0  0  0  0  0  0  0  0  0  0  0
    5.5109    1.3994   24.9242 C   0  0  0  0  0  0  0  0  0  0  0  0
    5.1895    0.9591   23.9826 H   0  0  0  0  0  0  0  0  0  0  0  0
    3.8419    0.6059   26.0227 H   0  0  0  0  0  0  0  0  0  0  0  0
    4.5642    1.6049   28.1913 H   0  0  0  0  0  0  0  0  0  0  0  0
    6.6498    2.9597   28.2891 H   0  0  0  0  0  0  0  0  0  0  0  0
    7.9995    3.3221   26.2446 H   0  0  0  0  0  0  0  0  0  0  0  0
    9.2375    4.1278   21.8878 H   0  0  0  0  0  0  0  0  0  0  0  0
    8.9511    1.7901   20.8247 H   0  0  0  0  0  0  0  0  0  0  0  0
    7.0778   -0.5660   23.1668 H   0  0  0  0  0  0  0  0  0  0  0  0
    6.6399    0.0405   19.9409 C   0  0  0  0  0  0  0  0  0  0  0  0
    5.4215    0.6674   20.2080 C   0  0  0  0  0  0  0  0  0  0  0  0
    4.8180    1.3017   19.1335 C   0  0  0  0  0  0  0  0  0  0  0  0
    5.4386    1.2625   17.8814 C   0  0  0  0  0  0  0  0  0  0  0  0
    6.6017    0.6384   17.6497 N   0  0  0  0  0  0  0  0  0  0  0  0
    7.2017    0.0364   18.6734 C   0  0  0  0  0  0  0  0  0  0  0  0
    8.1460   -0.4576   18.4419 H   0  0  0  0  0  0  0  0  0  0  0  0
    4.9807    1.7485   17.0256 H   0  0  0  0  0  0  0  0  0  0  0  0
    3.8827    1.8311   19.2555 H   0  0  0  0  0  0  0  0  0  0  0  0
    4.9409    0.6680   21.1914 H   0  0  0  0  0  0  0  0  0  0  0  0
  1  2  2  0
  2  3  2  0
  2  4  1  0
  4  5  1  0
  5  6  2  0
  6  7  1  0
  7  8  1  0
  8  9  2  0
  9 10  1  0
 10 11  2  0
 11 12  1  0
 12 13  2  0
 13 14  1  0
 14 15  2  0
 15 16  1  0
 14 17  1  0
 13 18  1  0
 12 19  1  0
 11 20  1  0
  7 21  1  0
  6 22  1  0
  4 23  1  0
  2 24  1  0
 24 25  2  0
 25 26  1  0
 26 27  2  0
 27 28  1  0
 28 29  2  0
 29 30  1  0
 27 31  1  0
 26 32  1  0
 25 33  1  0
  9  5  1  0
 15 10  1  0
 29 24  1  0
M  END
>  <cnnaffinity>  (1) 
-4.96738

>  <filename>  (1) 
O=S(=O)(Nc1c[nH]nc1-c1ccccc1)c1cccnc1

$$$$
