
     RDKit          3D

 27 28  0  0  0  0  0  0  0  0999 V2000
    4.9236    1.7099   16.9492 H   0  0  0  0  0  0  0  0  0  0  0  0
    5.4411    1.2547   17.7955 C   0  0  0  0  0  0  0  0  0  0  0  0
    6.6153    0.6516   17.5413 N   0  0  0  0  0  0  0  0  0  0  0  0
    7.2913    0.1085   18.5733 C   0  0  0  0  0  0  0  0  0  0  0  0
    8.2235   -0.4101   18.3552 H   0  0  0  0  0  0  0  0  0  0  0  0
    6.8172    0.1638   19.9010 C   0  0  0  0  0  0  0  0  0  0  0  0
    7.6230   -0.3129   20.9760 O   0  0  0  0  0  0  0  0  0  0  0  0
    6.8153   -0.9195   22.3053 S   0  0  0  0  0  0  0  0  0  0  0  0
    5.8549   -1.8608   21.7769 O   0  0  0  0  0  0  0  0  0  0  0  0
    6.3876    0.1975   23.1208 O   0  0  0  0  0  0  0  0  0  0  0  0
    8.2048   -1.8554   23.1616 C   0  0  0  0  0  0  0  0  0  0  0  0
    8.9311   -1.1317   24.0073 N   0  0  0  0  0  0  0  0  0  0  0  0
    9.8447   -1.7098   24.8003 C   0  0  0  0  0  0  0  0  0  0  0  0
   10.3790   -1.0558   25.4880 H   0  0  0  0  0  0  0  0  0  0  0  0
   10.0838   -3.0791   24.7754 C   0  0  0  0  0  0  0  0  0  0  0  0
   10.7955   -3.5379   25.4464 H   0  0  0  0  0  0  0  0  0  0  0  0
    9.3554   -3.8613   23.8896 C   0  0  0  0  0  0  0  0  0  0  0  0
    9.5309   -4.9357   23.8508 H   0  0  0  0  0  0  0  0  0  0  0  0
    8.4079   -3.2658   23.0435 C   0  0  0  0  0  0  0  0  0  0  0  0
    7.5796   -4.1841   22.1667 C   0  0  0  0  0  0  0  0  0  0  0  0
    8.1349   -5.4051   22.0216 F   0  0  0  0  0  0  0  0  0  0  0  0
    6.3647   -4.3604   22.6994 F   0  0  0  0  0  0  0  0  0  0  0  0
    7.4365   -3.6846   20.9357 F   0  0  0  0  0  0  0  0  0  0  0  0
    5.5671    0.7279   20.1440 C   0  0  0  0  0  0  0  0  0  0  0  0
    5.1497    0.7203   21.1460 H   0  0  0  0  0  0  0  0  0  0  0  0
    4.8721    1.2944   19.0711 C   0  0  0  0  0  0  0  0  0  0  0  0
    3.9078    1.7571   19.2387 H   0  0  0  0  0  0  0  0  0  0  0  0
  1  2  1  0
  2  3  2  0
  3  4  1  0
  4  5  1  0
  4  6  2  0
  6  7  1  0
  7  8  1  0
  8  9  2  0
  8 10  2  0
  8 11  1  0
 11 12  2  0
 12 13  1  0
 13 14  1  0
 13 15  2  0
 15 16  1  0
 15 17  1  0
 17 18  1  0
 17 19  2  0
 19 20  1  0
 20 21  1  0
 20 22  1  0
 20 23  1  0
  6 24  1  0
 24 25  1  0
 24 26  2  0
 26 27  1  0
 26  2  1  0
 19 11  1  0
M  END
>  <cnnaffinity>  (1) 
-4.77922

>  <filename>  (1) 
O=S(=O)(Oc1cccnc1)c1ncccc1C(F)(F)F

$$$$
