
     RDKit          3D

 32 34  0  0  0  0  0  0  0  0999 V2000
    4.9214    1.8197   16.9737 H   0  0  0  0  0  0  0  0  0  0  0  0
    5.3942    1.2928   17.7997 C   0  0  0  0  0  0  0  0  0  0  0  0
    6.5333    0.6452   17.5095 N   0  0  0  0  0  0  0  0  0  0  0  0
    7.1353   -0.0019   18.5126 C   0  0  0  0  0  0  0  0  0  0  0  0
    8.0530   -0.5222   18.2388 H   0  0  0  0  0  0  0  0  0  0  0  0
    6.6658   -0.0419   19.8489 C   0  0  0  0  0  0  0  0  0  0  0  0
    7.4836   -0.6922   20.9080 C   0  0  0  0  0  0  0  0  0  0  0  0
    8.8234   -0.5443   21.1840 C   0  0  0  0  0  0  0  0  0  0  0  0
    9.5172    0.1539   20.7393 H   0  0  0  0  0  0  0  0  0  0  0  0
    9.1967   -1.4032   22.1660 N   0  0  0  0  0  0  0  0  0  0  0  0
    8.1517   -2.0827   22.5318 N   0  0  0  0  0  0  0  0  0  0  0  0
    7.1122   -1.6356   21.8252 N   0  0  0  0  0  0  0  0  0  0  0  0
    5.8616   -2.2855   21.9233 N   0  0  0  0  0  0  0  0  0  0  0  0
    5.1631   -1.5900   22.1592 H   0  0  0  0  0  0  0  0  0  0  0  0
    5.5865   -3.1247   23.3910 S   0  0  0  0  0  0  0  0  0  0  0  0
    4.1988   -3.5001   23.2181 O   0  0  0  0  0  0  0  0  0  0  0  0
    6.0341   -2.2871   24.4844 O   0  0  0  0  0  0  0  0  0  0  0  0
    6.6551   -4.5012   23.2063 C   0  0  0  0  0  0  0  0  0  0  0  0
    7.4236   -4.9252   24.2943 C   0  0  0  0  0  0  0  0  0  0  0  0
    7.3475   -4.4062   25.2513 H   0  0  0  0  0  0  0  0  0  0  0  0
    8.2917   -6.0034   24.1142 C   0  0  0  0  0  0  0  0  0  0  0  0
    8.8896   -6.3547   24.9515 H   0  0  0  0  0  0  0  0  0  0  0  0
    8.3892   -6.6363   22.8684 C   0  0  0  0  0  0  0  0  0  0  0  0
    9.0907   -7.4548   22.7398 H   0  0  0  0  0  0  0  0  0  0  0  0
    7.5955   -6.1964   21.8010 C   0  0  0  0  0  0  0  0  0  0  0  0
    7.6270   -6.6204   20.8075 H   0  0  0  0  0  0  0  0  0  0  0  0
    6.7320   -5.1232   21.9598 C   0  0  0  0  0  0  0  0  0  0  0  0
    6.1348   -4.7839   21.1156 H   0  0  0  0  0  0  0  0  0  0  0  0
    5.4640    0.6332   20.1167 C   0  0  0  0  0  0  0  0  0  0  0  0
    5.0613    0.6654   21.1310 H   0  0  0  0  0  0  0  0  0  0  0  0
    4.8212    1.3084   19.0729 C   0  0  0  0  0  0  0  0  0  0  0  0
    3.8982    1.8555   19.2331 H   0  0  0  0  0  0  0  0  0  0  0  0
  1  2  1  0
  2  3  2  0
  3  4  1  0
  4  5  1  0
  4  6  2  0
  6  7  1  0
  7  8  2  0
  8  9  1  0
  8 10  1  0
 10 11  2  0
 11 12  1  0
 12 13  1  0
 13 14  1  0
 13 15  1  0
 15 16  2  0
 15 17  2  0
 15 18  1  0
 18 19  2  0
 19 20  1  0
 19 21  1  0
 21 22  1  0
 21 23  2  0
 23 24  1  0
 23 25  1  0
 25 26  1  0
 25 27  2  0
 27 28  1  0
  6 29  1  0
 29 30  1  0
 29 31  2  0
 31 32  1  0
 31  2  1  0
 12  7  1  0
 27 18  1  0
M  END
>  <cnnaffinity>  (1) 
-4.91912

>  <filename>  (1) 
O=S(=O)(Nn1nncc1-c1cccnc1)c1ccccc1

$$$$
