
     RDKit          3D

 32 34  0  0  0  0  0  0  0  0999 V2000
   10.0149   -1.5167   22.4551 H   0  0  0  0  0  0  0  0  0  0  0  0
    9.0183   -1.3933   22.0503 C   0  0  0  0  0  0  0  0  0  0  0  0
    8.7543   -0.5706   20.9985 N   0  0  0  0  0  0  0  0  0  0  0  0
    7.4531   -0.6699   20.8526 C   0  0  0  0  0  0  0  0  0  0  0  0
    6.6776    0.0547   19.8353 C   0  0  0  0  0  0  0  0  0  0  0  0
    7.2568    0.1659   18.5598 C   0  0  0  0  0  0  0  0  0  0  0  0
    8.2387   -0.2576   18.3529 H   0  0  0  0  0  0  0  0  0  0  0  0
    6.6681    0.7696   17.5260 N   0  0  0  0  0  0  0  0  0  0  0  0
    5.4692    1.3343   17.7366 C   0  0  0  0  0  0  0  0  0  0  0  0
    5.0054    1.8169   16.8768 H   0  0  0  0  0  0  0  0  0  0  0  0
    4.8285    1.3281   18.9774 C   0  0  0  0  0  0  0  0  0  0  0  0
    3.8751    1.8307   19.0853 H   0  0  0  0  0  0  0  0  0  0  0  0
    5.4401    0.6825   20.0534 C   0  0  0  0  0  0  0  0  0  0  0  0
    4.9826    0.7025   21.0451 H   0  0  0  0  0  0  0  0  0  0  0  0
    6.9707   -1.5496   21.8102 N   0  0  0  0  0  0  0  0  0  0  0  0
    5.7755   -2.3073   21.9077 N   0  0  0  0  0  0  0  0  0  0  0  0
    4.9832   -1.7052   22.0921 H   0  0  0  0  0  0  0  0  0  0  0  0
    5.5608   -3.1357   23.4033 S   0  0  0  0  0  0  0  0  0  0  0  0
    4.1839   -3.5674   23.2647 O   0  0  0  0  0  0  0  0  0  0  0  0
    5.9855   -2.2920   24.4992 O   0  0  0  0  0  0  0  0  0  0  0  0
    6.6743   -4.4767   23.2056 C   0  0  0  0  0  0  0  0  0  0  0  0
    6.7946   -5.0823   21.9536 C   0  0  0  0  0  0  0  0  0  0  0  0
    6.2505   -4.7203   21.0848 H   0  0  0  0  0  0  0  0  0  0  0  0
    7.6497   -6.1646   21.8060 C   0  0  0  0  0  0  0  0  0  0  0  0
    7.6714   -6.5966   20.8135 H   0  0  0  0  0  0  0  0  0  0  0  0
    8.4141   -6.6252   22.8882 C   0  0  0  0  0  0  0  0  0  0  0  0
    9.1048   -7.4595   22.7716 H   0  0  0  0  0  0  0  0  0  0  0  0
    8.2999   -5.9853   24.1325 C   0  0  0  0  0  0  0  0  0  0  0  0
    8.8729   -6.3429   24.9867 H   0  0  0  0  0  0  0  0  0  0  0  0
    7.4325   -4.9014   24.3005 C   0  0  0  0  0  0  0  0  0  0  0  0
    7.3554   -4.3778   25.2556 H   0  0  0  0  0  0  0  0  0  0  0  0
    7.9793   -2.0332   22.5408 N   0  0  0  0  0  0  0  0  0  0  0  0
  1  2  1  0
  2  3  1  0
  3  4  2  0
  4  5  1  0
  5  6  2  0
  6  7  1  0
  6  8  1  0
  8  9  2  0
  9 10  1  0
  9 11  1  0
 11 12  1  0
 11 13  2  0
 13 14  1  0
  4 15  1  0
 15 16  1  0
 16 17  1  0
 16 18  1  0
 18 19  2  0
 18 20  2  0
 18 21  1  0
 21 22  2  0
 22 23  1  0
 22 24  1  0
 24 25  1  0
 24 26  2  0
 26 27  1  0
 26 28  1  0
 28 29  1  0
 28 30  2  0
 30 31  1  0
 15 32  1  0
 32  2  2  0
 13  5  1  0
 30 21  1  0
M  END
>  <cnnaffinity>  (1) 
-4.80376

>  <filename>  (1) 
O=S(=O)(Nn1ncnc1-c1cccnc1)c1ccccc1

$$$$
