
     RDKit          3D

 31 32  0  0  0  0  0  0  0  0999 V2000
    5.0178    1.7311   17.0441 H   0  0  0  0  0  0  0  0  0  0  0  0
    5.4499    1.2441   17.9144 C   0  0  0  0  0  0  0  0  0  0  0  0
    6.6101    0.6077   17.7016 N   0  0  0  0  0  0  0  0  0  0  0  0
    7.1969    0.0315   18.7411 C   0  0  0  0  0  0  0  0  0  0  0  0
    8.1481   -0.4502   18.5107 H   0  0  0  0  0  0  0  0  0  0  0  0
    6.6341    0.0680   20.0158 C   0  0  0  0  0  0  0  0  0  0  0  0
    7.5627   -0.8823   21.1025 S   0  0  0  0  0  0  0  0  0  0  0  0
    7.1366   -2.2655   21.0028 O   0  0  0  0  0  0  0  0  0  0  0  0
    8.9579   -0.5529   20.8902 O   0  0  0  0  0  0  0  0  0  0  0  0
    7.0794   -0.2978   22.5223 O   0  0  0  0  0  0  0  0  0  0  0  0
    7.7858   -0.8426   23.6844 C   0  0  0  0  0  0  0  0  0  0  0  0
    8.3042   -1.7780   23.4217 H   0  0  0  0  0  0  0  0  0  0  0  0
    6.7744   -1.1737   24.7889 C   0  0  0  0  0  0  0  0  0  0  0  0
    6.2107   -0.2688   25.0543 H   0  0  0  0  0  0  0  0  0  0  0  0
    6.0418   -1.8936   24.4039 H   0  0  0  0  0  0  0  0  0  0  0  0
    7.5161   -1.7270   26.0294 C   0  0  0  0  0  0  0  0  0  0  0  0
    7.9920   -2.6847   25.7630 H   0  0  0  0  0  0  0  0  0  0  0  0
    6.8114   -1.9609   26.8359 H   0  0  0  0  0  0  0  0  0  0  0  0
    8.5997   -0.7498   26.5278 C   0  0  0  0  0  0  0  0  0  0  0  0
    8.1195    0.1532   26.9337 H   0  0  0  0  0  0  0  0  0  0  0  0
    9.1541   -1.1855   27.3702 H   0  0  0  0  0  0  0  0  0  0  0  0
    9.5683   -0.3529   25.3952 C   0  0  0  0  0  0  0  0  0  0  0  0
   10.1548   -1.2355   25.0932 H   0  0  0  0  0  0  0  0  0  0  0  0
   10.2965    0.3819   25.7585 H   0  0  0  0  0  0  0  0  0  0  0  0
    8.8162    0.1822   24.1589 C   0  0  0  0  0  0  0  0  0  0  0  0
    8.2858    1.1128   24.4077 H   0  0  0  0  0  0  0  0  0  0  0  0
    9.4957    0.4117   23.3320 H   0  0  0  0  0  0  0  0  0  0  0  0
    5.4026    0.6811   20.2594 C   0  0  0  0  0  0  0  0  0  0  0  0
    4.9078    0.6950   21.2333 H   0  0  0  0  0  0  0  0  0  0  0  0
    4.8140    1.2963   19.1580 C   0  0  0  0  0  0  0  0  0  0  0  0
    3.8763    1.8289   19.2458 H   0  0  0  0  0  0  0  0  0  0  0  0
  1  2  1  0
  2  3  2  0
  3  4  1  0
  4  5  1  0
  4  6  2  0
  6  7  1  0
  7  8  2  0
  7  9  2  0
  7 10  1  0
 10 11  1  0
 11 12  1  0
 11 13  1  0
 13 14  1  0
 13 15  1  0
 13 16  1  0
 16 17  1  0
 16 18  1  0
 16 19  1  0
 19 20  1  0
 19 21  1  0
 19 22  1  0
 22 23  1  0
 22 24  1  0
 22 25  1  0
 25 26  1  0
 25 27  1  0
  6 28  1  0
 28 29  1  0
 28 30  2  0
 30 31  1  0
 30  2  1  0
 25 11  1  0
M  END
>  <cnnaffinity>  (1) 
-4.60115

>  <filename>  (1) 
O=S(=O)(OC1CCCCC1)c1cccnc1

$$$$
