
     RDKit          3D

 31 33  0  0  0  0  0  0  0  0999 V2000
    4.9330    1.7985   16.9823 H   0  0  0  0  0  0  0  0  0  0  0  0
    5.4022    1.3006   17.8297 C   0  0  0  0  0  0  0  0  0  0  0  0
    6.5624    0.6749   17.5806 N   0  0  0  0  0  0  0  0  0  0  0  0
    7.1613    0.0466   18.5952 C   0  0  0  0  0  0  0  0  0  0  0  0
    8.1070   -0.4446   18.3689 H   0  0  0  0  0  0  0  0  0  0  0  0
    6.6381    0.0117   19.8928 C   0  0  0  0  0  0  0  0  0  0  0  0
    7.3665   -0.7037   20.9371 C   0  0  0  0  0  0  0  0  0  0  0  0
    8.0232   -1.8354   20.8211 N   0  0  0  0  0  0  0  0  0  0  0  0
    8.4707   -2.1350   22.0634 N   0  0  0  0  0  0  0  0  0  0  0  0
    8.1395   -1.2305   22.9151 N   0  0  0  0  0  0  0  0  0  0  0  0
    7.4388   -0.3056   22.2367 N   0  0  0  0  0  0  0  0  0  0  0  0
    6.9348    0.8763   22.7950 N   0  0  0  0  0  0  0  0  0  0  0  0
    7.6711    2.0881   22.4022 C   0  0  0  0  0  0  0  0  0  0  0  0
    8.1137    1.9417   21.4077 H   0  0  0  0  0  0  0  0  0  0  0  0
    8.4998    2.3130   23.0940 H   0  0  0  0  0  0  0  0  0  0  0  0
    6.6542    3.2143   22.3103 C   0  0  0  0  0  0  0  0  0  0  0  0
    7.0894    4.2032   22.1668 H   0  0  0  0  0  0  0  0  0  0  0  0
    5.8854    3.0238   21.5576 H   0  0  0  0  0  0  0  0  0  0  0  0
    5.7809    3.3817   23.8349 S   0  0  0  0  0  0  0  0  0  0  0  0
    4.5597    4.1188   23.5676 O   0  0  0  0  0  0  0  0  0  0  0  0
    6.7605    3.8120   24.8264 O   0  0  0  0  0  0  0  0  0  0  0  0
    5.2966    1.7465   24.2931 C   0  0  0  0  0  0  0  0  0  0  0  0
    4.9080    1.8860   25.3008 H   0  0  0  0  0  0  0  0  0  0  0  0
    4.5005    1.4887   23.5938 H   0  0  0  0  0  0  0  0  0  0  0  0
    6.4683    0.7859   24.1862 C   0  0  0  0  0  0  0  0  0  0  0  0
    6.1223   -0.2349   24.3763 H   0  0  0  0  0  0  0  0  0  0  0  0
    7.2697    1.0116   24.9083 H   0  0  0  0  0  0  0  0  0  0  0  0
    5.4249    0.6703   20.1455 C   0  0  0  0  0  0  0  0  0  0  0  0
    4.9824    0.6622   21.1427 H   0  0  0  0  0  0  0  0  0  0  0  0
    4.7971    1.3235   19.0919 C   0  0  0  0  0  0  0  0  0  0  0  0
    3.8619    1.8547   19.2335 H   0  0  0  0  0  0  0  0  0  0  0  0
  1  2  1  0
  2  3  2  0
  3  4  1  0
  4  5  1  0
  4  6  2  0
  6  7  1  0
  7  8  2  0
  8  9  1  0
  9 10  2  0
 10 11  1  0
 11 12  1  0
 12 13  1  0
 13 14  1  0
 13 15  1  0
 13 16  1  0
 16 17  1  0
 16 18  1  0
 16 19  1  0
 19 20  2  0
 19 21  2  0
 19 22  1  0
 22 23  1  0
 22 24  1  0
 22 25  1  0
 25 26  1  0
 25 27  1  0
  6 28  1  0
 28 29  1  0
 28 30  2  0
 30 31  1  0
 30  2  1  0
 11  7  1  0
 25 12  1  0
M  END
>  <cnnaffinity>  (1) 
-4.68582

>  <filename>  (1) 
O=S1(=O)CCN(n2nnnc2-c2cccnc2)CC1

$$$$
