
     RDKit          3D

 31 32  0  0  0  0  0  0  0  0999 V2000
    4.9323    1.7920   17.0010 H   0  0  0  0  0  0  0  0  0  0  0  0
    5.4056    1.2875   17.8410 C   0  0  0  0  0  0  0  0  0  0  0  0
    6.5709    0.6683   17.5800 N   0  0  0  0  0  0  0  0  0  0  0  0
    7.1865    0.0456   18.5958 C   0  0  0  0  0  0  0  0  0  0  0  0
    8.1349   -0.4311   18.3503 H   0  0  0  0  0  0  0  0  0  0  0  0
    6.6933   -0.0243   19.9341 C   0  0  0  0  0  0  0  0  0  0  0  0
    7.3715   -0.6914   20.9529 N   0  0  0  0  0  0  0  0  0  0  0  0
    8.2512   -1.1542   20.7939 H   0  0  0  0  0  0  0  0  0  0  0  0
    6.9491   -0.8125   22.3186 C   0  0  0  0  0  0  0  0  0  0  0  0
    5.9691   -1.3155   22.3771 H   0  0  0  0  0  0  0  0  0  0  0  0
    6.8279    0.1827   22.7837 H   0  0  0  0  0  0  0  0  0  0  0  0
    7.9310   -1.5847   23.0529 N   0  0  0  0  0  0  0  0  0  0  0  0
    7.9777   -2.9825   22.6552 C   0  0  0  0  0  0  0  0  0  0  0  0
    8.6071   -3.1582   21.7608 H   0  0  0  0  0  0  0  0  0  0  0  0
    6.9608   -3.3278   22.4221 H   0  0  0  0  0  0  0  0  0  0  0  0
    8.4766   -3.7985   23.8233 C   0  0  0  0  0  0  0  0  0  0  0  0
    7.8400   -3.7424   24.7076 H   0  0  0  0  0  0  0  0  0  0  0  0
    8.7318   -4.8312   23.5819 H   0  0  0  0  0  0  0  0  0  0  0  0
   10.0177   -3.1616   24.3611 S   0  0  0  0  0  0  0  0  0  0  0  0
   10.2228   -3.7253   25.6854 O   0  0  0  0  0  0  0  0  0  0  0  0
   10.9711   -3.3566   23.2735 O   0  0  0  0  0  0  0  0  0  0  0  0
    9.8561   -1.4169   24.4996 C   0  0  0  0  0  0  0  0  0  0  0  0
   10.8935   -1.0953   24.6043 H   0  0  0  0  0  0  0  0  0  0  0  0
    9.2833   -1.2330   25.4092 H   0  0  0  0  0  0  0  0  0  0  0  0
    9.1987   -0.8946   23.2355 C   0  0  0  0  0  0  0  0  0  0  0  0
    9.8757   -1.0009   22.3638 H   0  0  0  0  0  0  0  0  0  0  0  0
    9.0150    0.1796   23.3754 H   0  0  0  0  0  0  0  0  0  0  0  0
    5.4657    0.6332   20.1650 C   0  0  0  0  0  0  0  0  0  0  0  0
    5.0287    0.6270   21.1612 H   0  0  0  0  0  0  0  0  0  0  0  0
    4.8217    1.2954   19.1112 C   0  0  0  0  0  0  0  0  0  0  0  0
    3.8841    1.8284   19.2649 H   0  0  0  0  0  0  0  0  0  0  0  0
  1  2  1  0
  2  3  2  0
  3  4  1  0
  4  5  1  0
  4  6  2  0
  6  7  1  0
  7  8  1  0
  7  9  1  0
  9 10  1  0
  9 11  1  0
  9 12  1  0
 12 13  1  0
 13 14  1  0
 13 15  1  0
 13 16  1  0
 16 17  1  0
 16 18  1  0
 16 19  1  0
 19 20  2  0
 19 21  2  0
 19 22  1  0
 22 23  1  0
 22 24  1  0
 22 25  1  0
 25 26  1  0
 25 27  1  0
  6 28  1  0
 28 29  1  0
 28 30  2  0
 30 31  1  0
 30  2  1  0
 25 12  1  0
M  END
>  <cnnaffinity>  (1) 
-4.60844

>  <filename>  (1) 
O=S1(=O)CCN(CNc2cccnc2)CC1

$$$$
