
     RDKit          3D

 34 36  0  0  0  0  0  0  0  0999 V2000
    5.0924    1.7908   16.6829 H   0  0  0  0  0  0  0  0  0  0  0  0
    5.4758    1.3075   17.5769 C   0  0  0  0  0  0  0  0  0  0  0  0
    6.6409    0.6539   17.4434 N   0  0  0  0  0  0  0  0  0  0  0  0
    7.1498    0.0826   18.5419 C   0  0  0  0  0  0  0  0  0  0  0  0
    8.1122   -0.4052   18.4055 H   0  0  0  0  0  0  0  0  0  0  0  0
    6.5372    0.1307   19.8114 C   0  0  0  0  0  0  0  0  0  0  0  0
    7.1312   -0.4642   21.0091 C   0  0  0  0  0  0  0  0  0  0  0  0
    7.1163   -0.0476   22.2998 C   0  0  0  0  0  0  0  0  0  0  0  0
    6.7961    0.8593   22.7880 H   0  0  0  0  0  0  0  0  0  0  0  0
    7.7420   -1.0164   23.0713 N   0  0  0  0  0  0  0  0  0  0  0  0
    8.0090   -0.7673   24.4354 N   0  0  0  0  0  0  0  0  0  0  0  0
    7.0515   -1.4374   25.3445 C   0  0  0  0  0  0  0  0  0  0  0  0
    6.8624   -2.4553   24.9753 H   0  0  0  0  0  0  0  0  0  0  0  0
    6.1096   -0.8757   25.3079 H   0  0  0  0  0  0  0  0  0  0  0  0
    7.5921   -1.5099   26.7752 C   0  0  0  0  0  0  0  0  0  0  0  0
    6.8311   -1.5302   27.5519 H   0  0  0  0  0  0  0  0  0  0  0  0
    8.3060   -2.3185   26.9461 H   0  0  0  0  0  0  0  0  0  0  0  0
    8.5119   -0.0622   27.2091 S   0  0  0  0  0  0  0  0  0  0  0  0
    9.2023   -0.3885   28.4451 O   0  0  0  0  0  0  0  0  0  0  0  0
    7.6035    1.0719   27.1024 O   0  0  0  0  0  0  0  0  0  0  0  0
    9.7302    0.0558   25.9194 C   0  0  0  0  0  0  0  0  0  0  0  0
   10.6876   -0.1260   26.4044 H   0  0  0  0  0  0  0  0  0  0  0  0
    9.6477    1.0974   25.6067 H   0  0  0  0  0  0  0  0  0  0  0  0
    9.4300   -0.9169   24.7824 C   0  0  0  0  0  0  0  0  0  0  0  0
    9.6630   -1.9679   25.0351 H   0  0  0  0  0  0  0  0  0  0  0  0
   10.0347   -0.6929   23.8976 H   0  0  0  0  0  0  0  0  0  0  0  0
    8.1478   -2.0682   22.2672 C   0  0  0  0  0  0  0  0  0  0  0  0
    8.8685   -3.5303   22.6289 S   0  0  0  0  0  0  0  0  0  0  0  0
    7.8089   -1.6770   21.0110 N   0  0  0  0  0  0  0  0  0  0  0  0
    8.0402   -2.2924   20.2507 H   0  0  0  0  0  0  0  0  0  0  0  0
    5.3046    0.7931   19.9161 C   0  0  0  0  0  0  0  0  0  0  0  0
    4.7913    0.8190   20.8806 H   0  0  0  0  0  0  0  0  0  0  0  0
    4.7672    1.3939   18.7818 C   0  0  0  0  0  0  0  0  0  0  0  0
    3.8331    1.9409   18.8232 H   0  0  0  0  0  0  0  0  0  0  0  0
  1  2  1  0
  2  3  2  0
  3  4  1  0
  4  5  1  0
  4  6  2  0
  6  7  1  0
  7  8  2  0
  8  9  1  0
  8 10  1  0
 10 11  1  0
 11 12  1  0
 12 13  1  0
 12 14  1  0
 12 15  1  0
 15 16  1  0
 15 17  1  0
 15 18  1  0
 18 19  2  0
 18 20  2  0
 18 21  1  0
 21 22  1  0
 21 23  1  0
 21 24  1  0
 24 25  1  0
 24 26  1  0
 10 27  1  0
 27 28  2  0
 27 29  1  0
 29 30  1  0
  6 31  1  0
 31 32  1  0
 31 33  2  0
 33 34  1  0
 33  2  1  0
 29  7  1  0
 24 11  1  0
M  END
>  <cnnaffinity>  (1) 
-5.12599

>  <filename>  (1) 
O=S1(=O)CCN(n2cc(-c3cccnc3)[nH]c2=S)CC1

$$$$
