
     RDKit          3D

 33 35  0  0  0  0  0  0  0  0999 V2000
    4.9539    1.8015   16.9681 H   0  0  0  0  0  0  0  0  0  0  0  0
    5.4142    1.3238   17.8328 C   0  0  0  0  0  0  0  0  0  0  0  0
    6.5910    0.7124   17.6224 N   0  0  0  0  0  0  0  0  0  0  0  0
    7.1635    0.1084   18.6726 C   0  0  0  0  0  0  0  0  0  0  0  0
    8.1214   -0.3688   18.4750 H   0  0  0  0  0  0  0  0  0  0  0  0
    6.6316    0.0666   19.9807 C   0  0  0  0  0  0  0  0  0  0  0  0
    7.3324   -0.6440   21.0884 C   0  0  0  0  0  0  0  0  0  0  0  0
    8.0469   -1.8101   21.1332 C   0  0  0  0  0  0  0  0  0  0  0  0
    8.2040   -2.5148   20.3412 H   0  0  0  0  0  0  0  0  0  0  0  0
    8.5676   -2.0792   22.3677 N   0  0  0  0  0  0  0  0  0  0  0  0
    8.1771   -1.0692   23.0988 C   0  0  0  0  0  0  0  0  0  0  0  0
    8.3797   -0.9464   24.1493 H   0  0  0  0  0  0  0  0  0  0  0  0
    7.4162   -0.1650   22.3950 N   0  0  0  0  0  0  0  0  0  0  0  0
    6.8418    1.0236   22.8582 N   0  0  0  0  0  0  0  0  0  0  0  0
    7.4583    2.2479   22.3467 C   0  0  0  0  0  0  0  0  0  0  0  0
    6.6758    3.0076   22.1997 H   0  0  0  0  0  0  0  0  0  0  0  0
    7.8755    2.0351   21.3516 H   0  0  0  0  0  0  0  0  0  0  0  0
    8.5750    2.7409   23.2633 C   0  0  0  0  0  0  0  0  0  0  0  0
    9.4239    2.0564   23.3006 H   0  0  0  0  0  0  0  0  0  0  0  0
    8.9017    3.7486   23.0054 H   0  0  0  0  0  0  0  0  0  0  0  0
    7.9399    2.9094   24.9058 S   0  0  0  0  0  0  0  0  0  0  0  0
    9.0586    3.1208   25.8113 O   0  0  0  0  0  0  0  0  0  0  0  0
    6.8360    3.8579   24.8085 O   0  0  0  0  0  0  0  0  0  0  0  0
    7.1920    1.3541   25.2945 C   0  0  0  0  0  0  0  0  0  0  0  0
    6.6824    1.5453   26.2368 H   0  0  0  0  0  0  0  0  0  0  0  0
    7.9968    0.6364   25.4554 H   0  0  0  0  0  0  0  0  0  0  0  0
    6.2180    0.9733   24.1758 C   0  0  0  0  0  0  0  0  0  0  0  0
    5.8388   -0.0453   24.3340 H   0  0  0  0  0  0  0  0  0  0  0  0
    5.3466    1.6416   24.1667 H   0  0  0  0  0  0  0  0  0  0  0  0
    5.4106    0.7403   20.1716 C   0  0  0  0  0  0  0  0  0  0  0  0
    4.9884    0.7827   21.1733 H   0  0  0  0  0  0  0  0  0  0  0  0
    4.7889    1.3555   19.0831 C   0  0  0  0  0  0  0  0  0  0  0  0
    3.8382    1.8644   19.1906 H   0  0  0  0  0  0  0  0  0  0  0  0
  1  2  1  0
  2  3  2  0
  3  4  1  0
  4  5  1  0
  4  6  2  0
  6  7  1  0
  7  8  2  0
  8  9  1  0
  8 10  1  0
 10 11  2  0
 11 12  1  0
 11 13  1  0
 13 14  1  0
 14 15  1  0
 15 16  1  0
 15 17  1  0
 15 18  1  0
 18 19  1  0
 18 20  1  0
 18 21  1  0
 21 22  2  0
 21 23  2  0
 21 24  1  0
 24 25  1  0
 24 26  1  0
 24 27  1  0
 27 28  1  0
 27 29  1  0
  6 30  1  0
 30 31  1  0
 30 32  2  0
 32 33  1  0
 32  2  1  0
 13  7  1  0
 27 14  1  0
M  END
>  <cnnaffinity>  (1) 
-4.77706

>  <filename>  (1) 
O=S1(=O)CCN(n2cncc2-c2cccnc2)CC1

$$$$
