
     RDKit          3D

 33 35  0  0  0  0  0  0  0  0999 V2000
   12.5824   -1.2116   21.3223 H   0  0  0  0  0  0  0  0  0  0  0  0
   11.6416   -1.3138   21.1187 O   0  0  0  0  0  0  0  0  0  0  0  0
   10.9256   -1.1645   22.3401 C   0  0  2  0  0  0  0  0  0  0  0  0
   11.1885   -1.9753   23.0425 H   0  0  0  0  0  0  0  0  0  0  0  0
    9.4238   -1.2796   22.0845 C   0  0  0  0  0  0  0  0  0  0  0  0
    8.7642   -2.0338   22.9740 N   0  0  0  0  0  0  0  0  0  0  0  0
    7.4382   -2.1888   22.8758 N   0  0  0  0  0  0  0  0  0  0  0  0
    6.7598   -1.5483   21.9213 C   0  0  0  0  0  0  0  0  0  0  0  0
    5.6997   -1.7679   21.9294 H   0  0  0  0  0  0  0  0  0  0  0  0
    7.3726   -0.7062   20.9546 C   0  0  0  0  0  0  0  0  0  0  0  0
    6.6234    0.0110   19.8759 C   0  0  0  0  0  0  0  0  0  0  0  0
    7.1474    0.0773   18.5661 C   0  0  0  0  0  0  0  0  0  0  0  0
    8.0941   -0.4135   18.3374 H   0  0  0  0  0  0  0  0  0  0  0  0
    6.5537    0.6952   17.5366 N   0  0  0  0  0  0  0  0  0  0  0  0
    5.3933    1.3209   17.7893 C   0  0  0  0  0  0  0  0  0  0  0  0
    4.9333    1.8332   16.9481 H   0  0  0  0  0  0  0  0  0  0  0  0
    4.7776    1.3345   19.0442 C   0  0  0  0  0  0  0  0  0  0  0  0
    3.8408    1.8676   19.1765 H   0  0  0  0  0  0  0  0  0  0  0  0
    5.3998    0.6688   20.1040 C   0  0  0  0  0  0  0  0  0  0  0  0
    4.9624    0.6942   21.1022 H   0  0  0  0  0  0  0  0  0  0  0  0
    8.7569   -0.5899   21.0498 C   0  0  0  0  0  0  0  0  0  0  0  0
    9.3235    0.0246   20.3509 H   0  0  0  0  0  0  0  0  0  0  0  0
   11.1892    0.1728   23.0279 C   0  0  0  0  0  0  0  0  0  0  0  0
   11.3864    1.3553   22.2961 C   0  0  0  0  0  0  0  0  0  0  0  0
   11.4028    1.3196   21.2102 H   0  0  0  0  0  0  0  0  0  0  0  0
   11.5643    2.5761   22.9497 C   0  0  0  0  0  0  0  0  0  0  0  0
   11.7610    3.4796   22.3737 H   0  0  0  0  0  0  0  0  0  0  0  0
   11.4908    2.6316   24.3455 C   0  0  0  0  0  0  0  0  0  0  0  0
   11.6823    3.5746   24.8454 H   0  0  0  0  0  0  0  0  0  0  0  0
   11.1902    1.4784   25.0797 C   0  0  0  0  0  0  0  0  0  0  0  0
   11.0418    1.5521   26.1526 H   0  0  0  0  0  0  0  0  0  0  0  0
   11.0769    0.2468   24.4253 C   0  0  0  0  0  0  0  0  0  0  0  0
   10.9035   -0.6655   24.9946 H   0  0  0  0  0  0  0  0  0  0  0  0
  1  2  1  0
  2  3  1  0
  3  4  1  1
  3  5  1  0
  5  6  2  0
  6  7  1  0
  7  8  2  0
  8  9  1  0
  8 10  1  0
 10 11  1  0
 11 12  2  0
 12 13  1  0
 12 14  1  0
 14 15  2  0
 15 16  1  0
 15 17  1  0
 17 18  1  0
 17 19  2  0
 19 20  1  0
 10 21  2  0
 21 22  1  0
  3 23  1  0
 23 24  2  0
 24 25  1  0
 24 26  1  0
 26 27  1  0
 26 28  2  0
 28 29  1  0
 28 30  1  0
 30 31  1  0
 30 32  2  0
 32 33  1  0
 21  5  1  0
 32 23  1  0
 19 11  1  0
M  END
>  <cnnaffinity>  (1) 
-5.06077

>  <filename>  (1) 
O[C@@H](c1ccccc1)c1cc(-c2cccnc2)cnn1

$$$$
