
     RDKit          3D

 32 33  0  0  0  0  0  0  0  0999 V2000
    6.5468   -0.5862   22.6436 H   0  0  0  0  0  0  0  0  0  0  0  0
    6.5952   -1.3009   21.9810 O   0  0  0  0  0  0  0  0  0  0  0  0
    7.4371   -0.8145   20.9680 C   0  0  1  0  0  0  0  0  0  0  0  0
    7.9192   -1.6959   20.5193 H   0  0  0  0  0  0  0  0  0  0  0  0
    6.6758   -0.0958   19.8704 C   0  0  0  0  0  0  0  0  0  0  0  0
    7.2423   -0.0113   18.5880 C   0  0  0  0  0  0  0  0  0  0  0  0
    8.1903   -0.5139   18.3808 H   0  0  0  0  0  0  0  0  0  0  0  0
    6.6993    0.6529   17.5609 N   0  0  0  0  0  0  0  0  0  0  0  0
    5.5355    1.2815   17.7868 C   0  0  0  0  0  0  0  0  0  0  0  0
    5.1089    1.8170   16.9417 H   0  0  0  0  0  0  0  0  0  0  0  0
    4.8762    1.2582   19.0201 C   0  0  0  0  0  0  0  0  0  0  0  0
    3.9401    1.7904   19.1441 H   0  0  0  0  0  0  0  0  0  0  0  0
    5.4515    0.5557   20.0792 C   0  0  0  0  0  0  0  0  0  0  0  0
    4.9703    0.5074   21.0590 H   0  0  0  0  0  0  0  0  0  0  0  0
    8.5362    0.0665   21.5677 C   0  0  0  0  0  0  0  0  0  0  0  0
    9.0831   -0.5539   22.2882 H   0  0  0  0  0  0  0  0  0  0  0  0
    9.2446    0.3527   20.7851 H   0  0  0  0  0  0  0  0  0  0  0  0
    8.0516    1.3388   22.2654 C   0  0  1  0  0  0  0  0  0  0  0  0
    7.4095    1.9131   21.5851 H   0  0  0  0  0  0  0  0  0  0  0  0
    7.2321    1.0146   23.3929 O   0  0  0  0  0  0  0  0  0  0  0  0
    7.8142    0.9798   24.1637 H   0  0  0  0  0  0  0  0  0  0  0  0
    9.2911    2.2571   22.6556 C   0  0  0  0  0  0  0  0  0  0  0  0
    9.2706    3.5702   22.2496 C   0  0  0  0  0  0  0  0  0  0  0  0
    8.4407    4.0121   21.7095 H   0  0  0  0  0  0  0  0  0  0  0  0
   11.8842    3.8057   23.3770 C   0  0  0  0  0  0  0  0  0  0  0  0
   10.6055    4.2258   22.5599 H   0  0  0  0  0  0  0  0  0  0  0  0
   11.7349    3.9540   23.1617 C   0  0  0  0  0  0  0  0  0  0  0  0
   12.5048    4.7847   23.5661 H   0  0  0  0  0  0  0  0  0  0  0  0
   11.7236    2.4836   23.3912 C   0  0  0  0  0  0  0  0  0  0  0  0
   12.5749    1.9483   23.8348 H   0  0  0  0  0  0  0  0  0  0  0  0
   10.3975    1.6967   23.2908 C   0  0  0  0  0  0  0  0  0  0  0  0
   10.4316    0.6568   23.6054 H   0  0  0  0  0  0  0  0  0  0  0  0
  1  2  1  0
  2  3  1  0
  3  4  1  6
  3  5  1  0
  5  6  2  0
  6  7  1  0
  6  8  1  0
  8  9  2  0
  9 10  1  0
  9 11  1  0
 11 12  1  0
 11 13  2  0
 13 14  1  0
  3 15  1  0
 15 16  1  0
 15 17  1  0
 15 18  1  0
 18 19  1  6
 18 20  1  0
 20 21  1  0
 18 22  1  0
 22 23  2  0
 23 24  1  0
 23 25  1  0
 25 26  1  0
 25 27  2  0
 27 28  1  0
 27 29  1  0
 29 30  1  0
 29 31  2  0
 31 32  1  0
 13  5  1  0
 31 22  1  0
M  END
>  <cnnaffinity>  (1) 
-4.02399

>  <filename>  (1) 
O[C@H](C[C@@H](O)c1cccnc1)c1ccccc1

$$$$
