
     RDKit          3D

 31 32  0  0  0  0  0  0  0  0999 V2000
    8.9159   -1.4885   21.3486 H   0  0  0  0  0  0  0  0  0  0  0  0
    8.6103   -0.5910   21.1619 O   0  0  0  0  0  0  0  0  0  0  0  0
    7.2397   -0.9134   21.1759 C   0  0  1  0  0  0  0  0  0  0  0  0
    6.7499   -0.6299   22.1335 H   0  0  0  0  0  0  0  0  0  0  0  0
    6.5545   -0.2291   20.0369 C   0  0  0  0  0  0  0  0  0  0  0  0
    7.1594   -0.2702   18.7753 C   0  0  0  0  0  0  0  0  0  0  0  0
    8.0947   -0.8088   18.6090 H   0  0  0  0  0  0  0  0  0  0  0  0
    6.6817    0.3689   17.6993 N   0  0  0  0  0  0  0  0  0  0  0  0
    5.5675    1.0981   17.8625 C   0  0  0  0  0  0  0  0  0  0  0  0
    5.2069    1.6309   16.9841 H   0  0  0  0  0  0  0  0  0  0  0  0
    4.8829    1.2033   19.0783 C   0  0  0  0  0  0  0  0  0  0  0  0
    4.0079    1.8405   19.1541 H   0  0  0  0  0  0  0  0  0  0  0  0
    5.3849    0.5212   20.1875 C   0  0  0  0  0  0  0  0  0  0  0  0
    4.8903    0.5861   21.1601 H   0  0  0  0  0  0  0  0  0  0  0  0
    7.3377   -2.3319   20.9971 N   0  0  0  0  0  0  0  0  0  0  0  0
    7.7497   -2.5418   20.1033 H   0  0  0  0  0  0  0  0  0  0  0  0
    6.2677   -3.2625   21.1040 C   0  0  1  0  0  0  0  0  0  0  0  0
    5.3192   -2.8726   20.6760 H   0  0  0  0  0  0  0  0  0  0  0  0
    6.7878   -4.2774   20.2736 O   0  0  0  0  0  0  0  0  0  0  0  0
    6.3046   -5.0876   20.4608 H   0  0  0  0  0  0  0  0  0  0  0  0
    5.9475   -3.7541   22.5088 C   0  0  0  0  0  0  0  0  0  0  0  0
    4.6020   -3.8740   22.8829 C   0  0  0  0  0  0  0  0  0  0  0  0
    3.8532   -3.5913   22.1582 H   0  0  0  0  0  0  0  0  0  0  0  0
    4.2336   -4.3169   24.1592 C   0  0  0  0  0  0  0  0  0  0  0  0
    3.1833   -4.3564   24.4412 H   0  0  0  0  0  0  0  0  0  0  0  0
    5.2277   -4.6936   25.0673 C   0  0  0  0  0  0  0  0  0  0  0  0
    4.9629   -5.0251   26.0721 H   0  0  0  0  0  0  0  0  0  0  0  0
    6.5728   -4.6343   24.6788 C   0  0  0  0  0  0  0  0  0  0  0  0
    7.3494   -4.9661   25.3615 H   0  0  0  0  0  0  0  0  0  0  0  0
    6.9387   -4.1537   23.4171 C   0  0  0  0  0  0  0  0  0  0  0  0
    7.9848   -4.0373   23.1465 H   0  0  0  0  0  0  0  0  0  0  0  0
  1  2  1  0
  2  3  1  0
  3  4  1  1
  3  5  1  0
  5  6  2  0
  6  7  1  0
  6  8  1  0
  8  9  2  0
  9 10  1  0
  9 11  1  0
 11 12  1  0
 11 13  2  0
 13 14  1  0
  3 15  1  0
 15 16  1  0
 15 17  1  0
 17 18  1  6
 17 19  1  0
 19 20  1  0
 17 21  1  0
 21 22  2  0
 22 23  1  0
 22 24  1  0
 24 25  1  0
 24 26  2  0
 26 27  1  0
 26 28  1  0
 28 29  1  0
 28 30  2  0
 30 31  1  0
 13  5  1  0
 30 21  1  0
M  END
>  <cnnaffinity>  (1) 
-3.99035

>  <filename>  (1) 
O[C@H](N[C@@H](O)c1cccnc1)c1ccccc1

$$$$
