
     RDKit          3D

 36 37  0  0  0  0  0  0  0  0999 V2000
    6.7512   -1.4774   22.5011 H   0  0  0  0  0  0  0  0  0  0  0  0
    6.2657   -1.6047   21.6669 O   0  0  0  0  0  0  0  0  0  0  0  0
    7.1898   -0.8771   20.9083 C   0  0  1  0  0  0  0  0  0  0  0  0
    7.9479   -1.5483   20.4650 H   0  0  0  0  0  0  0  0  0  0  0  0
    6.5259   -0.0784   19.8269 C   0  0  0  0  0  0  0  0  0  0  0  0
    7.1123   -0.0047   18.5638 C   0  0  0  0  0  0  0  0  0  0  0  0
    8.0405   -0.5337   18.3451 H   0  0  0  0  0  0  0  0  0  0  0  0
    6.6048    0.6863   17.5310 N   0  0  0  0  0  0  0  0  0  0  0  0
    5.4616    1.3509   17.7412 C   0  0  0  0  0  0  0  0  0  0  0  0
    5.0525    1.8957   16.8890 H   0  0  0  0  0  0  0  0  0  0  0  0
    4.7972    1.3565   18.9748 C   0  0  0  0  0  0  0  0  0  0  0  0
    3.8805    1.9237   19.0898 H   0  0  0  0  0  0  0  0  0  0  0  0
    5.3351    0.6312   20.0363 C   0  0  0  0  0  0  0  0  0  0  0  0
    4.8325    0.5974   21.0069 H   0  0  0  0  0  0  0  0  0  0  0  0
    7.7693   -0.0743   21.9669 N   0  0  0  0  0  0  0  0  0  0  0  0
    6.9792    0.4751   22.2889 H   0  0  0  0  0  0  0  0  0  0  0  0
    8.8733    0.7916   21.5830 C   0  0  0  0  0  0  0  0  0  0  0  0
    9.6722    0.1675   21.1459 H   0  0  0  0  0  0  0  0  0  0  0  0
    8.5735    1.5149   20.7948 H   0  0  0  0  0  0  0  0  0  0  0  0
    9.4756    1.5959   22.7439 C   0  0  0  0  0  0  0  0  0  0  0  0
    8.6448    2.0791   23.2903 H   0  0  0  0  0  0  0  0  0  0  0  0
   10.2969    0.7919   23.7729 C   0  0  0  0  0  0  0  0  0  0  0  0
    9.6750    0.0112   24.2340 H   0  0  0  0  0  0  0  0  0  0  0  0
   11.1291    0.2794   23.2572 H   0  0  0  0  0  0  0  0  0  0  0  0
   10.8929    1.7271   24.8473 C   0  0  0  0  0  0  0  0  0  0  0  0
   10.0854    2.1786   25.4380 H   0  0  0  0  0  0  0  0  0  0  0  0
   11.4944    1.1489   25.5585 H   0  0  0  0  0  0  0  0  0  0  0  0
   11.7475    2.8509   24.2262 C   0  0  0  0  0  0  0  0  0  0  0  0
   12.0349    3.5961   24.9705 H   0  0  0  0  0  0  0  0  0  0  0  0
   12.6694    2.4043   23.8240 H   0  0  0  0  0  0  0  0  0  0  0  0
   11.0260    3.6251   23.1156 C   0  0  0  0  0  0  0  0  0  0  0  0
   10.2980    4.3063   23.5710 H   0  0  0  0  0  0  0  0  0  0  0  0
   11.7493    4.2698   22.5981 H   0  0  0  0  0  0  0  0  0  0  0  0
   10.3379    2.7029   22.1101 C   0  0  0  0  0  0  0  0  0  0  0  0
    9.6536    3.2561   21.4646 H   0  0  0  0  0  0  0  0  0  0  0  0
   11.1079    2.2435   21.4614 H   0  0  0  0  0  0  0  0  0  0  0  0
  1  2  1  0
  2  3  1  0
  3  4  1  6
  3  5  1  0
  5  6  2  0
  6  7  1  0
  6  8  1  0
  8  9  2  0
  9 10  1  0
  9 11  1  0
 11 12  1  0
 11 13  2  0
 13 14  1  0
  3 15  1  0
 15 16  1  0
 15 17  1  0
 17 18  1  0
 17 19  1  0
 17 20  1  0
 20 21  1  0
 20 22  1  0
 22 23  1  0
 22 24  1  0
 22 25  1  0
 25 26  1  0
 25 27  1  0
 25 28  1  0
 28 29  1  0
 28 30  1  0
 28 31  1  0
 31 32  1  0
 31 33  1  0
 31 34  1  0
 34 35  1  0
 34 36  1  0
 13  5  1  0
 34 20  1  0
M  END
>  <cnnaffinity>  (1) 
-4.1975

>  <filename>  (1) 
O[C@H](NCC1CCCCC1)c1cccnc1

$$$$
