
     RDKit          3D

 50 54  0  0  0  0  0  0  0  0999 V2000
    7.9243    4.2530   22.2611 O   0  0  0  0  0  0  0  0  0  0  0  0
    7.5429    3.8761   23.5751 C   0  0  2  0  0  0  0  0  0  0  0  0
    7.5161    5.0985   24.4997 C   0  0  0  0  0  0  0  0  0  0  0  0
    7.2933    4.6954   25.9643 C   0  0  0  0  0  0  0  0  0  0  0  0
    8.3750    3.7064   26.4322 C   0  0  0  0  0  0  0  0  0  0  0  0
    8.4529    2.4642   25.5302 C   0  0  0  0  0  0  0  0  0  0  0  0
    8.5788    2.8410   24.0334 C   0  0  1  0  0  0  0  0  0  0  0  0
    8.5200    1.6430   23.1297 C   0  0  0  0  0  0  0  0  0  0  0  0
    7.4398    1.0913   22.6158 N   0  0  0  0  0  0  0  0  0  0  0  0
    7.9376    0.0593   21.8774 C   0  0  0  0  0  0  0  0  0  0  0  0
    7.1246   -0.8218   20.9569 C   0  0  0  0  0  0  0  0  0  0  0  0
    6.4992   -0.0984   19.7597 C   0  0  0  0  0  0  0  0  0  0  0  0
    5.3543    0.6902   19.9426 C   0  0  0  0  0  0  0  0  0  0  0  0
    4.8117    1.3696   18.8496 C   0  0  0  0  0  0  0  0  0  0  0  0
    5.4391    1.2516   17.6083 C   0  0  0  0  0  0  0  0  0  0  0  0
    6.5352    0.5058   17.4031 N   0  0  0  0  0  0  0  0  0  0  0  0
    7.0419   -0.1448   18.4596 C   0  0  0  0  0  0  0  0  0  0  0  0
    7.9411   -0.7321   18.2652 H   0  0  0  0  0  0  0  0  0  0  0  0
    5.0496    1.7871   16.7437 H   0  0  0  0  0  0  0  0  0  0  0  0
    3.9307    1.9938   18.9478 H   0  0  0  0  0  0  0  0  0  0  0  0
    4.9063    0.7797   20.9332 H   0  0  0  0  0  0  0  0  0  0  0  0
    7.7905   -1.6266   20.6224 H   0  0  0  0  0  0  0  0  0  0  0  0
    6.3387   -1.2823   21.5677 H   0  0  0  0  0  0  0  0  0  0  0  0
    9.2421   -0.0826   21.9356 N   0  0  0  0  0  0  0  0  0  0  0  0
    9.6327    0.9311   22.7680 N   0  0  0  0  0  0  0  0  0  0  0  0
   10.9093    1.5884   22.6173 C   0  0  0  0  0  0  0  0  0  0  0  0
   11.9307    1.4391   23.5965 C   0  0  0  0  0  0  0  0  0  0  0  0
   13.0567    2.2526   23.5585 C   0  0  0  0  0  0  0  0  0  0  0  0
   13.1214    3.2352   22.5511 C   0  0  0  0  0  0  0  0  0  0  0  0
   14.0222    4.2277   22.2998 N   0  0  0  0  0  0  0  0  0  0  0  0
   13.7139    4.9445   21.1953 N   0  0  0  0  0  0  0  0  0  0  0  0
   12.5985    4.4187   20.7280 C   0  0  0  0  0  0  0  0  0  0  0  0
   12.1518    3.3285   21.5309 C   0  0  0  0  0  0  0  0  0  0  0  0
   11.0288    2.4673   21.5528 C   0  0  0  0  0  0  0  0  0  0  0  0
   10.2450    2.5194   20.7999 H   0  0  0  0  0  0  0  0  0  0  0  0
   12.1361    4.8179   19.8371 H   0  0  0  0  0  0  0  0  0  0  0  0
   14.8317    4.4595   22.8501 H   0  0  0  0  0  0  0  0  0  0  0  0
   13.8571    2.1799   24.2780 H   0  0  0  0  0  0  0  0  0  0  0  0
   11.7940    0.6796   24.3643 H   0  0  0  0  0  0  0  0  0  0  0  0
    9.5523    3.3261   23.8910 H   0  0  0  0  0  0  0  0  0  0  0  0
    9.3146    1.8429   25.8096 H   0  0  0  0  0  0  0  0  0  0  0  0
    7.5532    1.8476   25.6673 H   0  0  0  0  0  0  0  0  0  0  0  0
    8.1870    3.4005   27.4685 H   0  0  0  0  0  0  0  0  0  0  0  0
    9.3492    4.2169   26.4338 H   0  0  0  0  0  0  0  0  0  0  0  0
    7.2812    5.5830   26.6092 H   0  0  0  0  0  0  0  0  0  0  0  0
    6.3002    4.2289   26.0581 H   0  0  0  0  0  0  0  0  0  0  0  0
    6.7327    5.7868   24.1545 H   0  0  0  0  0  0  0  0  0  0  0  0
    8.4749    5.6268   24.3922 H   0  0  0  0  0  0  0  0  0  0  0  0
    6.5498    3.3985   23.5851 H   0  0  0  0  0  0  0  0  0  0  0  0
    7.1620    4.6532   21.8278 H   0  0  0  0  0  0  0  0  0  0  0  0
  1  2  1  0
  2  3  1  0
  3  4  1  0
  4  5  1  0
  5  6  1  0
  6  7  1  0
  7  8  1  0
  8  9  2  0
  9 10  1  0
 10 11  1  0
 11 12  1  0
 12 13  2  0
 13 14  1  0
 14 15  2  0
 15 16  1  0
 16 17  2  0
 17 18  1  0
 15 19  1  0
 14 20  1  0
 13 21  1  0
 11 22  1  0
 11 23  1  0
 10 24  2  0
 24 25  1  0
 25 26  1  0
 26 27  2  0
 27 28  1  0
 28 29  2  0
 29 30  1  0
 30 31  1  0
 31 32  2  0
 32 33  1  0
 33 34  2  0
 34 35  1  0
 32 36  1  0
 30 37  1  0
 28 38  1  0
 27 39  1  0
  7 40  1  1
  6 41  1  0
  6 42  1  0
  5 43  1  0
  5 44  1  0
  4 45  1  0
  4 46  1  0
  3 47  1  0
  3 48  1  0
  2 49  1  6
  1 50  1  0
  7  2  1  0
 25  8  1  0
 34 26  1  0
 17 12  1  0
 33 29  1  0
M  END
>  <cnnaffinity>  (1) 
-6.52259

>  <filename>  (1) 
O[C@@H]1CCCC[C@H]1c1nc(Cc2cccnc2)nn1-c1ccc2[nH]ncc2c1

$$$$
