
     RDKit          3D

 39 42  0  0  0  0  0  0  0  0999 V2000
   10.0450    1.4127   21.2398 H   0  0  0  0  0  0  0  0  0  0  0  0
    9.5270    0.6982   20.8358 O   0  0  0  0  0  0  0  0  0  0  0  0
    8.5254    0.3636   21.7995 C   0  0  1  0  0  0  0  0  0  0  0  0
    8.9416   -0.2536   22.6159 H   0  0  0  0  0  0  0  0  0  0  0  0
    7.9590    1.6128   22.4342 C   0  0  0  0  0  0  0  0  0  0  0  0
    7.4695    1.8306   23.6984 C   0  0  0  0  0  0  0  0  0  0  0  0
    7.5400    1.1743   24.5566 H   0  0  0  0  0  0  0  0  0  0  0  0
    6.8132    3.1082   23.7049 C   0  0  0  0  0  0  0  0  0  0  0  0
    6.0465    3.8260   24.6508 C   0  0  0  0  0  0  0  0  0  0  0  0
    5.8730    3.3958   25.6329 H   0  0  0  0  0  0  0  0  0  0  0  0
    5.4810    5.0410   24.2836 C   0  0  0  0  0  0  0  0  0  0  0  0
    4.8776    5.5962   24.9974 H   0  0  0  0  0  0  0  0  0  0  0  0
    5.6590    5.5567   22.9735 C   0  0  0  0  0  0  0  0  0  0  0  0
    5.1916    6.4987   22.6985 H   0  0  0  0  0  0  0  0  0  0  0  0
    6.3938    4.8604   22.0194 C   0  0  0  0  0  0  0  0  0  0  0  0
    6.5106    5.2220   21.0015 H   0  0  0  0  0  0  0  0  0  0  0  0
    6.9634    3.6368   22.4046 C   0  0  0  0  0  0  0  0  0  0  0  0
    7.6900    2.7349   21.6660 N   0  0  0  0  0  0  0  0  0  0  0  0
    7.6636    2.7265   20.6577 H   0  0  0  0  0  0  0  0  0  0  0  0
    7.4254   -0.4971   21.0962 C   0  0  0  0  0  0  0  0  0  0  0  0
    6.6763    0.2469   19.9828 C   0  0  0  0  0  0  0  0  0  0  0  0
    7.2169    0.2773   18.6828 C   0  0  0  0  0  0  0  0  0  0  0  0
    8.1748   -0.2083   18.4863 H   0  0  0  0  0  0  0  0  0  0  0  0
    6.6107    0.8149   17.6162 N   0  0  0  0  0  0  0  0  0  0  0  0
    5.3993    1.3572   17.8122 C   0  0  0  0  0  0  0  0  0  0  0  0
    4.9166    1.7680   16.9299 H   0  0  0  0  0  0  0  0  0  0  0  0
    4.7599    1.3897   19.0564 C   0  0  0  0  0  0  0  0  0  0  0  0
    3.7726    1.8303   19.1478 H   0  0  0  0  0  0  0  0  0  0  0  0
    5.4185    0.8398   20.1594 C   0  0  0  0  0  0  0  0  0  0  0  0
    4.9757    0.8575   21.1570 H   0  0  0  0  0  0  0  0  0  0  0  0
    6.5338   -1.2816   22.1157 C   0  0  0  0  0  0  0  0  0  0  0  0
    6.4574   -0.8827   23.1374 H   0  0  0  0  0  0  0  0  0  0  0  0
    5.5356   -1.4044   21.6884 H   0  0  0  0  0  0  0  0  0  0  0  0
    7.3548   -2.5788   21.8814 C   0  0  0  0  0  0  0  0  0  0  0  0
    6.7764   -3.4976   21.7129 H   0  0  0  0  0  0  0  0  0  0  0  0
    8.1056   -2.7848   22.6499 H   0  0  0  0  0  0  0  0  0  0  0  0
    7.9200   -1.8981   20.6209 C   0  0  0  0  0  0  0  0  0  0  0  0
    8.9780   -2.0035   20.3476 H   0  0  0  0  0  0  0  0  0  0  0  0
    7.2773   -2.1652   19.7780 H   0  0  0  0  0  0  0  0  0  0  0  0
  1  2  1  0
  2  3  1  0
  3  4  1  1
  3  5  1  0
  5  6  2  0
  6  7  1  0
  6  8  1  0
  8  9  2  0
  9 10  1  0
  9 11  1  0
 11 12  1  0
 11 13  2  0
 13 14  1  0
 13 15  1  0
 15 16  1  0
 15 17  2  0
 17 18  1  0
 18 19  1  0
  3 20  1  0
 20 21  1  0
 21 22  2  0
 22 23  1  0
 22 24  1  0
 24 25  2  0
 25 26  1  0
 25 27  1  0
 27 28  1  0
 27 29  2  0
 29 30  1  0
 20 31  1  0
 31 32  1  0
 31 33  1  0
 31 34  1  0
 34 35  1  0
 34 36  1  0
 34 37  1  0
 37 38  1  0
 37 39  1  0
 18  5  1  0
 37 20  1  0
 17  8  1  0
 29 21  1  0
M  END
>  <cnnaffinity>  (1) 
-4.40317

>  <filename>  (1) 
O[C@@H](c1cc2ccccc2[nH]1)C1(c2cccnc2)CCC1

$$$$
