
     RDKit          3D

 32 34  0  0  0  0  0  0  0  0999 V2000
    5.5486    2.0429   26.3335 H   0  0  0  0  0  0  0  0  0  0  0  0
    4.8353    1.7941   25.7288 O   0  0  0  0  0  0  0  0  0  0  0  0
    5.3503    1.8174   24.4082 C   0  0  2  0  0  0  0  0  0  0  0  0
    4.4844    1.5890   23.7731 H   0  0  0  0  0  0  0  0  0  0  0  0
    6.3973    0.7175   24.1760 C   0  0  0  0  0  0  0  0  0  0  0  0
    5.9412   -0.2624   24.3452 H   0  0  0  0  0  0  0  0  0  0  0  0
    7.2191    0.8283   24.9073 H   0  0  0  0  0  0  0  0  0  0  0  0
    6.8765    0.8150   22.7863 N   0  0  0  0  0  0  0  0  0  0  0  0
    7.4367   -0.3203   22.2313 N   0  0  0  0  0  0  0  0  0  0  0  0
    8.1494   -1.2319   22.9175 N   0  0  0  0  0  0  0  0  0  0  0  0
    8.5106   -2.1268   22.0659 N   0  0  0  0  0  0  0  0  0  0  0  0
    8.0621   -1.8341   20.8207 N   0  0  0  0  0  0  0  0  0  0  0  0
    7.3796   -0.7141   20.9311 C   0  0  0  0  0  0  0  0  0  0  0  0
    6.6351   -0.0001   19.8877 C   0  0  0  0  0  0  0  0  0  0  0  0
    7.1538    0.0400   18.5877 C   0  0  0  0  0  0  0  0  0  0  0  0
    8.1001   -0.4447   18.3565 H   0  0  0  0  0  0  0  0  0  0  0  0
    6.5561    0.6745   17.5747 N   0  0  0  0  0  0  0  0  0  0  0  0
    5.3993    1.3040   17.8218 C   0  0  0  0  0  0  0  0  0  0  0  0
    4.9420    1.8082   16.9716 H   0  0  0  0  0  0  0  0  0  0  0  0
    4.7969    1.3240   19.0835 C   0  0  0  0  0  0  0  0  0  0  0  0
    3.8591    1.8511   19.2212 H   0  0  0  0  0  0  0  0  0  0  0  0
    5.4224    0.6686   20.1375 C   0  0  0  0  0  0  0  0  0  0  0  0
    4.9868    0.6735   21.1396 H   0  0  0  0  0  0  0  0  0  0  0  0
    7.5231    2.0866   22.4132 C   0  0  0  0  0  0  0  0  0  0  0  0
    7.8444    2.0333   21.3619 H   0  0  0  0  0  0  0  0  0  0  0  0
    8.4325    2.2697   23.0120 H   0  0  0  0  0  0  0  0  0  0  0  0
    6.4849    3.2006   22.5935 C   0  0  0  0  0  0  0  0  0  0  0  0
    6.9251    4.1692   22.3361 H   0  0  0  0  0  0  0  0  0  0  0  0
    5.6825    3.0226   21.8595 H   0  0  0  0  0  0  0  0  0  0  0  0
    5.9119    3.1985   24.0283 C   0  0  0  0  0  0  0  0  0  0  0  0
    5.1147    3.9412   24.1489 H   0  0  0  0  0  0  0  0  0  0  0  0
    6.6979    3.4798   24.7528 H   0  0  0  0  0  0  0  0  0  0  0  0
  1  2  1  0
  2  3  1  0
  3  4  1  6
  3  5  1  0
  5  6  1  0
  5  7  1  0
  5  8  1  0
  8  9  1  0
  9 10  1  0
 10 11  2  0
 11 12  1  0
 12 13  2  0
 13 14  1  0
 14 15  2  0
 15 16  1  0
 15 17  1  0
 17 18  2  0
 18 19  1  0
 18 20  1  0
 20 21  1  0
 20 22  2  0
 22 23  1  0
  8 24  1  0
 24 25  1  0
 24 26  1  0
 24 27  1  0
 27 28  1  0
 27 29  1  0
 27 30  1  0
 30 31  1  0
 30 32  1  0
 30  3  1  0
 13  9  1  0
 22 14  1  0
M  END
>  <cnnaffinity>  (1) 
-4.6195

>  <filename>  (1) 
O[C@H]1CCCN(n2nnnc2-c2cccnc2)C1

$$$$
