
     RDKit          3D

 32 34  0  0  0  0  0  0  0  0999 V2000
    9.1198    0.5167   20.7561 H   0  0  0  0  0  0  0  0  0  0  0  0
    9.6420   -0.2711   20.5473 O   0  0  0  0  0  0  0  0  0  0  0  0
    8.6596   -1.1960   20.8999 C   0  0  1  0  0  0  0  0  0  0  0  0
    8.5864   -1.9509   20.1084 H   0  0  0  0  0  0  0  0  0  0  0  0
    8.9299   -1.8538   22.2077 C   0  0  0  0  0  0  0  0  0  0  0  0
    9.0079   -3.2629   22.2270 C   0  0  0  0  0  0  0  0  0  0  0  0
    8.8317   -3.8142   21.3060 H   0  0  0  0  0  0  0  0  0  0  0  0
    9.2439   -3.9941   23.2878 N   0  0  0  0  0  0  0  0  0  0  0  0
    9.3626   -3.3360   24.4847 C   0  0  0  0  0  0  0  0  0  0  0  0
    9.5431   -4.1268   25.6582 C   0  0  0  0  0  0  0  0  0  0  0  0
    9.7187   -5.1883   25.5122 H   0  0  0  0  0  0  0  0  0  0  0  0
    9.4854   -3.5432   26.9047 C   0  0  0  0  0  0  0  0  0  0  0  0
    9.6364   -4.1544   27.7972 H   0  0  0  0  0  0  0  0  0  0  0  0
    9.2742   -2.1299   27.0139 C   0  0  0  0  0  0  0  0  0  0  0  0
    9.1798   -1.6512   27.9824 H   0  0  0  0  0  0  0  0  0  0  0  0
    9.2052   -1.3326   25.8969 C   0  0  0  0  0  0  0  0  0  0  0  0
    9.0842   -0.2535   25.9909 H   0  0  0  0  0  0  0  0  0  0  0  0
    9.2418   -1.9116   24.5942 C   0  0  0  0  0  0  0  0  0  0  0  0
    9.0766   -1.1701   23.3957 C   0  0  0  0  0  0  0  0  0  0  0  0
    9.0083   -0.0794   23.4334 H   0  0  0  0  0  0  0  0  0  0  0  0
    7.4577   -0.4105   21.0312 N   0  0  0  0  0  0  0  0  0  0  0  0
    6.7997   -0.8194   21.6831 H   0  0  0  0  0  0  0  0  0  0  0  0
    6.7662    0.1015   19.9088 C   0  0  0  0  0  0  0  0  0  0  0  0
    7.2399    0.1196   18.5678 C   0  0  0  0  0  0  0  0  0  0  0  0
    8.1852   -0.3545   18.3137 H   0  0  0  0  0  0  0  0  0  0  0  0
    6.5853    0.6868   17.5420 N   0  0  0  0  0  0  0  0  0  0  0  0
    5.4088    1.2775   17.8069 C   0  0  0  0  0  0  0  0  0  0  0  0
    4.9051    1.7552   16.9706 H   0  0  0  0  0  0  0  0  0  0  0  0
    4.8313    1.2802   19.0844 C   0  0  0  0  0  0  0  0  0  0  0  0
    3.8760    1.7682   19.2461 H   0  0  0  0  0  0  0  0  0  0  0  0
    5.5077    0.6724   20.1422 C   0  0  0  0  0  0  0  0  0  0  0  0
    5.1072    0.6491   21.1572 H   0  0  0  0  0  0  0  0  0  0  0  0
  1  2  1  0
  2  3  1  0
  3  4  1  6
  3  5  1  0
  5  6  2  0
  6  7  1  0
  6  8  1  0
  8  9  2  0
  9 10  1  0
 10 11  1  0
 10 12  2  0
 12 13  1  0
 12 14  1  0
 14 15  1  0
 14 16  2  0
 16 17  1  0
 16 18  1  0
 18 19  2  0
 19 20  1  0
  3 21  1  0
 21 22  1  0
 21 23  1  0
 23 24  2  0
 24 25  1  0
 24 26  1  0
 26 27  2  0
 27 28  1  0
 27 29  1  0
 29 30  1  0
 29 31  2  0
 31 32  1  0
 19  5  1  0
 31 23  1  0
 18  9  1  0
M  END
>  <cnnaffinity>  (1) 
-5.05691

>  <filename>  (1) 
O[C@H](Nc1cccnc1)c1cnc2ccccc2c1

$$$$
