
     RDKit          3D

 28 29  0  0  0  0  0  0  0  0999 V2000
    9.1401   -1.2107   20.9479 H   0  0  0  0  0  0  0  0  0  0  0  0
    8.8074   -0.3412   20.6856 O   0  0  0  0  0  0  0  0  0  0  0  0
    7.4391   -0.5708   20.8984 C   0  0  1  0  0  0  0  0  0  0  0  0
    7.1282   -0.3104   21.9241 H   0  0  0  0  0  0  0  0  0  0  0  0
    6.6182    0.1555   19.8776 C   0  0  0  0  0  0  0  0  0  0  0  0
    7.1382    0.1543   18.5822 C   0  0  0  0  0  0  0  0  0  0  0  0
    8.1077   -0.3074   18.3977 H   0  0  0  0  0  0  0  0  0  0  0  0
    6.5441    0.7240   17.5305 N   0  0  0  0  0  0  0  0  0  0  0  0
    5.3786    1.3471   17.7546 C   0  0  0  0  0  0  0  0  0  0  0  0
    4.9282    1.8265   16.8867 H   0  0  0  0  0  0  0  0  0  0  0  0
    4.7573    1.4013   19.0074 C   0  0  0  0  0  0  0  0  0  0  0  0
    3.8130    1.9290   19.1121 H   0  0  0  0  0  0  0  0  0  0  0  0
    5.3889    0.7926   20.0991 C   0  0  0  0  0  0  0  0  0  0  0  0
    4.9253    0.8233   21.0895 H   0  0  0  0  0  0  0  0  0  0  0  0
    7.4104   -2.0115   20.7061 N   0  0  0  0  0  0  0  0  0  0  0  0
    7.7835   -2.1882   19.7818 H   0  0  0  0  0  0  0  0  0  0  0  0
    5.9591   -2.8707   21.0012 S   0  0  0  0  0  0  0  0  0  0  0  0
    6.3333   -3.6048   22.6000 C   0  0  0  0  0  0  0  0  0  0  0  0
    6.1372   -2.8771   23.7841 C   0  0  0  0  0  0  0  0  0  0  0  0
    5.8516   -1.8314   23.7387 H   0  0  0  0  0  0  0  0  0  0  0  0
    6.3326   -3.4772   25.0321 C   0  0  0  0  0  0  0  0  0  0  0  0
    6.1613   -2.8917   25.9305 H   0  0  0  0  0  0  0  0  0  0  0  0
    6.7733   -4.8031   25.1128 C   0  0  0  0  0  0  0  0  0  0  0  0
    6.9261   -5.2764   26.0803 H   0  0  0  0  0  0  0  0  0  0  0  0
    7.0382   -5.5004   23.9295 C   0  0  0  0  0  0  0  0  0  0  0  0
    7.5100   -6.4709   23.9549 H   0  0  0  0  0  0  0  0  0  0  0  0
    6.7887   -4.9281   22.6802 C   0  0  0  0  0  0  0  0  0  0  0  0
    6.9690   -5.4963   21.7734 H   0  0  0  0  0  0  0  0  0  0  0  0
  1  2  1  0
  2  3  1  0
  3  4  1  1
  3  5  1  0
  5  6  2  0
  6  7  1  0
  6  8  1  0
  8  9  2  0
  9 10  1  0
  9 11  1  0
 11 12  1  0
 11 13  2  0
 13 14  1  0
  3 15  1  0
 15 16  1  0
 15 17  1  0
 17 18  1  0
 18 19  2  0
 19 20  1  0
 19 21  1  0
 21 22  1  0
 21 23  2  0
 23 24  1  0
 23 25  1  0
 25 26  1  0
 25 27  2  0
 27 28  1  0
 13  5  1  0
 27 18  1  0
M  END
>  <cnnaffinity>  (1) 
-4.21487

>  <filename>  (1) 
O[C@H](NSc1ccccc1)c1cccnc1

$$$$
