
     RDKit          3D

 30 31  0  0  0  0  0  0  0  0999 V2000
    6.3320   -1.1129   22.6016 H   0  0  0  0  0  0  0  0  0  0  0  0
    6.8240   -0.3881   22.1890 O   0  0  0  0  0  0  0  0  0  0  0  0
    7.1129   -0.9352   20.9137 N   0  0  0  0  0  0  0  0  0  0  0  0
    6.6247   -0.0276   19.9001 C   0  0  0  0  0  0  0  0  0  0  0  0
    7.2441    0.0597   18.6419 C   0  0  0  0  0  0  0  0  0  0  0  0
    8.1878   -0.4506   18.4736 H   0  0  0  0  0  0  0  0  0  0  0  0
    6.7239    0.7223   17.5970 N   0  0  0  0  0  0  0  0  0  0  0  0
    5.5562    1.3619   17.7783 C   0  0  0  0  0  0  0  0  0  0  0  0
    5.1230    1.8600   16.9092 H   0  0  0  0  0  0  0  0  0  0  0  0
    4.8847    1.3834   19.0096 C   0  0  0  0  0  0  0  0  0  0  0  0
    3.9575    1.9417   19.1160 H   0  0  0  0  0  0  0  0  0  0  0  0
    5.4298    0.6883   20.0897 C   0  0  0  0  0  0  0  0  0  0  0  0
    4.9660    0.7036   21.0755 H   0  0  0  0  0  0  0  0  0  0  0  0
    8.4699   -1.2707   20.8420 N   0  0  0  0  0  0  0  0  0  0  0  0
    9.4476   -0.3103   21.3974 C   0  0  0  0  0  0  0  0  0  0  0  0
   10.3614   -0.4217   20.8005 H   0  0  0  0  0  0  0  0  0  0  0  0
    9.0598    0.6936   21.2034 H   0  0  0  0  0  0  0  0  0  0  0  0
    9.8035   -0.5056   22.8983 C   0  0  0  0  0  0  0  0  0  0  0  0
   10.6798    0.1143   23.1130 H   0  0  0  0  0  0  0  0  0  0  0  0
    8.9951   -0.1258   23.5369 H   0  0  0  0  0  0  0  0  0  0  0  0
   10.0934   -1.9844   23.2261 C   0  0  0  0  0  0  0  0  0  0  0  0
   11.0187   -2.3130   22.7210 H   0  0  0  0  0  0  0  0  0  0  0  0
   10.2525   -2.1502   24.3022 H   0  0  0  0  0  0  0  0  0  0  0  0
    8.9451   -2.8738   22.7333 C   0  0  2  0  0  0  0  0  0  0  0  0
    8.0184   -2.5592   23.2295 H   0  0  0  0  0  0  0  0  0  0  0  0
    9.1423   -4.2379   23.0589 O   0  0  0  0  0  0  0  0  0  0  0  0
   10.0622   -4.4584   22.8501 H   0  0  0  0  0  0  0  0  0  0  0  0
    8.7361   -2.6703   21.2149 C   0  0  0  0  0  0  0  0  0  0  0  0
    7.9127   -3.3043   20.8700 H   0  0  0  0  0  0  0  0  0  0  0  0
    9.6418   -2.9932   20.6796 H   0  0  0  0  0  0  0  0  0  0  0  0
  1  2  1  0
  2  3  1  0
  3  4  1  0
  4  5  2  0
  5  6  1  0
  5  7  1  0
  7  8  2  0
  8  9  1  0
  8 10  1  0
 10 11  1  0
 10 12  2  0
 12 13  1  0
  3 14  1  0
 14 15  1  0
 15 16  1  0
 15 17  1  0
 15 18  1  0
 18 19  1  0
 18 20  1  0
 18 21  1  0
 21 22  1  0
 21 23  1  0
 21 24  1  0
 24 25  1  1
 24 26  1  0
 26 27  1  0
 24 28  1  0
 28 29  1  0
 28 30  1  0
 12  4  1  0
 28 14  1  0
M  END
>  <cnnaffinity>  (1) 
-4.44855

>  <filename>  (1) 
O[C@H]1CCCN(N(O)c2cccnc2)C1

$$$$
