
     RDKit          3D

 35 37  0  0  0  0  0  0  0  0999 V2000
    6.9768   -3.0017   19.6390 H   0  0  0  0  0  0  0  0  0  0  0  0
    6.1271   -2.8851   20.0841 O   0  0  0  0  0  0  0  0  0  0  0  0
    6.3767   -2.1677   21.2875 C   0  0  1  0  0  0  0  0  0  0  0  0
    5.3780   -1.8447   21.5993 H   0  0  0  0  0  0  0  0  0  0  0  0
    6.9019   -3.1106   22.3687 C   0  0  0  0  0  0  0  0  0  0  0  0
    8.2094   -3.6202   22.3058 C   0  0  0  0  0  0  0  0  0  0  0  0
    8.7922   -3.4766   21.4071 H   0  0  0  0  0  0  0  0  0  0  0  0
    8.7825   -4.3371   23.3545 C   0  0  0  0  0  0  0  0  0  0  0  0
    9.8241   -4.6140   23.3329 H   0  0  0  0  0  0  0  0  0  0  0  0
    7.9958   -4.6690   24.4561 C   0  0  0  0  0  0  0  0  0  0  0  0
    8.6767   -5.5744   25.7670 Cl  0  0  0  0  0  0  0  0  0  0  0  0
    6.6602   -4.2897   24.5141 C   0  0  0  0  0  0  0  0  0  0  0  0
    6.0319   -4.5361   25.3611 H   0  0  0  0  0  0  0  0  0  0  0  0
    6.1182   -3.5716   23.4470 C   0  0  0  0  0  0  0  0  0  0  0  0
    4.3908   -3.3995   23.4660 Cl  0  0  0  0  0  0  0  0  0  0  0  0
    7.2010   -0.8228   21.0862 C   0  0  0  0  0  0  0  0  0  0  0  0
    6.5780   -0.0148   19.9508 C   0  0  0  0  0  0  0  0  0  0  0  0
    7.1307    0.0276   18.6540 C   0  0  0  0  0  0  0  0  0  0  0  0
    8.0815   -0.4679   18.4568 H   0  0  0  0  0  0  0  0  0  0  0  0
    6.5850    0.6561   17.6038 N   0  0  0  0  0  0  0  0  0  0  0  0
    5.4278    1.2987   17.8167 C   0  0  0  0  0  0  0  0  0  0  0  0
    4.9987    1.8072   16.9563 H   0  0  0  0  0  0  0  0  0  0  0  0
    4.7835    1.3360   19.0585 C   0  0  0  0  0  0  0  0  0  0  0  0
    3.8590    1.8904   19.1695 H   0  0  0  0  0  0  0  0  0  0  0  0
    5.3703    0.6749   20.1384 C   0  0  0  0  0  0  0  0  0  0  0  0
    4.9172    0.7090   21.1326 H   0  0  0  0  0  0  0  0  0  0  0  0
    7.3225   -0.0314   22.4394 C   0  0  0  0  0  0  0  0  0  0  0  0
    6.8199   -0.4961   23.2941 H   0  0  0  0  0  0  0  0  0  0  0  0
    6.9809    1.0056   22.3671 H   0  0  0  0  0  0  0  0  0  0  0  0
    8.8586   -0.1727   22.4290 C   0  0  0  0  0  0  0  0  0  0  0  0
    9.4153    0.7699   22.4570 H   0  0  0  0  0  0  0  0  0  0  0  0
    9.2460   -0.8264   23.2148 H   0  0  0  0  0  0  0  0  0  0  0  0
    8.7799   -0.8184   21.0303 C   0  0  0  0  0  0  0  0  0  0  0  0
    9.3212   -1.7497   20.8668 H   0  0  0  0  0  0  0  0  0  0  0  0
    9.1468   -0.1152   20.2783 H   0  0  0  0  0  0  0  0  0  0  0  0
  1  2  1  0
  2  3  1  0
  3  4  1  1
  3  5  1  0
  5  6  2  0
  6  7  1  0
  6  8  1  0
  8  9  1  0
  8 10  2  0
 10 11  1  0
 10 12  1  0
 12 13  1  0
 12 14  2  0
 14 15  1  0
  3 16  1  0
 16 17  1  0
 17 18  2  0
 18 19  1  0
 18 20  1  0
 20 21  2  0
 21 22  1  0
 21 23  1  0
 23 24  1  0
 23 25  2  0
 25 26  1  0
 16 27  1  0
 27 28  1  0
 27 29  1  0
 27 30  1  0
 30 31  1  0
 30 32  1  0
 30 33  1  0
 33 34  1  0
 33 35  1  0
 14  5  1  0
 33 16  1  0
 25 17  1  0
M  END
>  <cnnaffinity>  (1) 
-4.98042

>  <filename>  (1) 
O[C@@H](c1ccc(Cl)cc1Cl)C1(c2cccnc2)CCC1

$$$$
