
     RDKit          3D

 29 30  0  0  0  0  0  0  0  0999 V2000
    7.6692   -2.1212   22.3791 H   0  0  0  0  0  0  0  0  0  0  0  0
    7.9994   -1.3986   22.9274 O   0  0  0  0  0  0  0  0  0  0  0  0
    7.2348   -0.3604   22.3642 C   0  0  1  0  0  0  0  0  0  0  0  0
    6.2124   -0.3689   22.7790 H   0  0  0  0  0  0  0  0  0  0  0  0
    7.6708    1.1102   22.6886 C   0  0  0  0  0  0  0  0  0  0  0  0
    6.6240    1.8771   23.0534 N   0  0  0  0  0  0  0  0  0  0  0  0
    6.7856    3.1766   23.3048 C   0  0  0  0  0  0  0  0  0  0  0  0
    5.8901    3.7245   23.5932 H   0  0  0  0  0  0  0  0  0  0  0  0
    8.0285    3.7974   23.2189 C   0  0  0  0  0  0  0  0  0  0  0  0
    8.1029    4.8580   23.4199 H   0  0  0  0  0  0  0  0  0  0  0  0
    9.1357    3.0361   22.8739 C   0  0  0  0  0  0  0  0  0  0  0  0
   10.1166    3.5062   22.8021 H   0  0  0  0  0  0  0  0  0  0  0  0
    8.9633    1.6650   22.6156 C   0  0  0  0  0  0  0  0  0  0  0  0
   10.1266    0.7817   22.2900 C   0  0  0  0  0  0  0  0  0  0  0  0
   11.2383    1.4778   22.0034 F   0  0  0  0  0  0  0  0  0  0  0  0
    9.8767    0.0106   21.2010 F   0  0  0  0  0  0  0  0  0  0  0  0
   10.4223   -0.0488   23.2971 F   0  0  0  0  0  0  0  0  0  0  0  0
    7.2353   -0.8402   20.9698 N   0  0  0  0  0  0  0  0  0  0  0  0
    8.1897   -1.1330   20.8007 H   0  0  0  0  0  0  0  0  0  0  0  0
    6.6355   -0.1199   19.9198 C   0  0  0  0  0  0  0  0  0  0  0  0
    7.1797   -0.0426   18.6048 C   0  0  0  0  0  0  0  0  0  0  0  0
    8.1150   -0.5479   18.3787 H   0  0  0  0  0  0  0  0  0  0  0  0
    6.6240    0.6231   17.5818 N   0  0  0  0  0  0  0  0  0  0  0  0
    5.4675    1.2644   17.8140 C   0  0  0  0  0  0  0  0  0  0  0  0
    5.0434    1.8212   16.9796 H   0  0  0  0  0  0  0  0  0  0  0  0
    4.8324    1.2467   19.0611 C   0  0  0  0  0  0  0  0  0  0  0  0
    3.9073    1.7966   19.1972 H   0  0  0  0  0  0  0  0  0  0  0  0
    5.4197    0.5479   20.1223 C   0  0  0  0  0  0  0  0  0  0  0  0
    4.9685    0.5170   21.1137 H   0  0  0  0  0  0  0  0  0  0  0  0
  1  2  1  0
  2  3  1  0
  3  4  1  1
  3  5  1  0
  5  6  2  0
  6  7  1  0
  7  8  1  0
  7  9  2  0
  9 10  1  0
  9 11  1  0
 11 12  1  0
 11 13  2  0
 13 14  1  0
 14 15  1  0
 14 16  1  0
 14 17  1  0
  3 18  1  0
 18 19  1  0
 18 20  1  0
 20 21  2  0
 21 22  1  0
 21 23  1  0
 23 24  2  0
 24 25  1  0
 24 26  1  0
 26 27  1  0
 26 28  2  0
 28 29  1  0
 13  5  1  0
 28 20  1  0
M  END
>  <cnnaffinity>  (1) 
-4.92551

>  <filename>  (1) 
O[C@H](Nc1cccnc1)c1ncccc1C(F)(F)F

$$$$
