
     RDKit          3D

 31 32  0  0  0  0  0  0  0  0999 V2000
    8.8685   -1.9683   22.9191 H   0  0  0  0  0  0  0  0  0  0  0  0
    8.7404   -2.9176   22.8028 O   0  0  0  0  0  0  0  0  0  0  0  0
    7.5663   -3.1150   22.0370 C   0  0  1  0  0  0  0  0  0  0  0  0
    7.6765   -4.1221   21.6112 H   0  0  0  0  0  0  0  0  0  0  0  0
    6.2767   -3.1548   22.8705 C   0  0  0  0  0  0  0  0  0  0  0  0
    5.1852   -3.9388   22.4262 C   0  0  0  0  0  0  0  0  0  0  0  0
    5.2650   -4.5354   21.5186 H   0  0  0  0  0  0  0  0  0  0  0  0
    4.0191   -4.0564   23.1830 C   0  0  0  0  0  0  0  0  0  0  0  0
    3.1815   -4.6321   22.7819 H   0  0  0  0  0  0  0  0  0  0  0  0
    3.9340   -3.4155   24.4272 C   0  0  0  0  0  0  0  0  0  0  0  0
    3.0514   -3.5117   25.0477 H   0  0  0  0  0  0  0  0  0  0  0  0
    5.0034   -2.6324   24.8834 C   0  0  0  0  0  0  0  0  0  0  0  0
    4.9354   -2.1080   25.8323 H   0  0  0  0  0  0  0  0  0  0  0  0
    6.1622   -2.5025   24.1107 C   0  0  0  0  0  0  0  0  0  0  0  0
    6.9905   -1.9071   24.4951 H   0  0  0  0  0  0  0  0  0  0  0  0
    7.5319   -2.1414   20.8458 C   0  0  0  0  0  0  0  0  0  0  0  0
    6.7554   -2.4910   20.1594 H   0  0  0  0  0  0  0  0  0  0  0  0
    8.5092   -2.2187   20.3517 H   0  0  0  0  0  0  0  0  0  0  0  0
    7.2841   -0.6503   21.1263 C   0  0  1  0  0  0  0  0  0  0  0  0
    6.6894   -0.5192   22.0403 H   0  0  0  0  0  0  0  0  0  0  0  0
    8.8728    0.1563   21.4853 Cl  0  0  0  0  0  0  0  0  0  0  0  0
    6.6149    0.0683   19.9749 C   0  0  0  0  0  0  0  0  0  0  0  0
    7.1776    0.0889   18.6867 C   0  0  0  0  0  0  0  0  0  0  0  0
    8.1350   -0.3950   18.4926 H   0  0  0  0  0  0  0  0  0  0  0  0
    6.6131    0.6820   17.6259 N   0  0  0  0  0  0  0  0  0  0  0  0
    5.4371    1.2989   17.8142 C   0  0  0  0  0  0  0  0  0  0  0  0
    4.9950    1.7761   16.9404 H   0  0  0  0  0  0  0  0  0  0  0  0
    4.7844    1.3409   19.0497 C   0  0  0  0  0  0  0  0  0  0  0  0
    3.8372    1.8605   19.1436 H   0  0  0  0  0  0  0  0  0  0  0  0
    5.3869    0.7210   20.1470 C   0  0  0  0  0  0  0  0  0  0  0  0
    4.9188    0.7459   21.1317 H   0  0  0  0  0  0  0  0  0  0  0  0
  1  2  1  0
  2  3  1  0
  3  4  1  6
  3  5  1  0
  5  6  2  0
  6  7  1  0
  6  8  1  0
  8  9  1  0
  8 10  2  0
 10 11  1  0
 10 12  1  0
 12 13  1  0
 12 14  2  0
 14 15  1  0
  3 16  1  0
 16 17  1  0
 16 18  1  0
 16 19  1  0
 19 20  1  1
 19 21  1  0
 19 22  1  0
 22 23  2  0
 23 24  1  0
 23 25  1  0
 25 26  2  0
 26 27  1  0
 26 28  1  0
 28 29  1  0
 28 30  2  0
 30 31  1  0
 14  5  1  0
 30 22  1  0
M  END
>  <cnnaffinity>  (1) 
-4.39647

>  <filename>  (1) 
O[C@H](C[C@@H](Cl)c1cccnc1)c1ccccc1

$$$$
