
     RDKit          3D

 32 34  0  0  0  0  0  0  0  0999 V2000
    7.0907   -1.8764   22.3254 H   0  0  0  0  0  0  0  0  0  0  0  0
    6.7183   -1.8879   21.4348 O   0  0  0  0  0  0  0  0  0  0  0  0
    7.3889   -0.7606   20.9446 C   0  0  1  0  0  0  0  0  0  0  0  0
    8.3548   -1.0619   20.4928 H   0  0  0  0  0  0  0  0  0  0  0  0
    6.6080   -0.0168   19.9034 C   0  0  0  0  0  0  0  0  0  0  0  0
    7.1411    0.0245   18.6157 C   0  0  0  0  0  0  0  0  0  0  0  0
    8.0788   -0.4895   18.3891 H   0  0  0  0  0  0  0  0  0  0  0  0
    6.5795    0.6635   17.5811 N   0  0  0  0  0  0  0  0  0  0  0  0
    5.4271    1.3056   17.8176 C   0  0  0  0  0  0  0  0  0  0  0  0
    4.9741    1.8110   16.9686 H   0  0  0  0  0  0  0  0  0  0  0  0
    4.8010    1.3254   19.0676 C   0  0  0  0  0  0  0  0  0  0  0  0
    3.8818    1.8814   19.2011 H   0  0  0  0  0  0  0  0  0  0  0  0
    5.4018    0.6562   20.1350 C   0  0  0  0  0  0  0  0  0  0  0  0
    4.9507    0.6837   21.1283 H   0  0  0  0  0  0  0  0  0  0  0  0
    7.5911   -0.0358   22.1727 N   0  0  0  0  0  0  0  0  0  0  0  0
    6.7202   -0.0208   22.6921 H   0  0  0  0  0  0  0  0  0  0  0  0
    8.3743    1.1228   22.2829 C   0  0  0  0  0  0  0  0  0  0  0  0
    9.3810    1.3463   21.3524 C   0  0  0  0  0  0  0  0  0  0  0  0
    9.5145    0.6506   20.5282 H   0  0  0  0  0  0  0  0  0  0  0  0
   10.2582    2.4512   21.4541 C   0  0  0  0  0  0  0  0  0  0  0  0
   11.0367    2.5754   20.7029 H   0  0  0  0  0  0  0  0  0  0  0  0
   10.1183    3.3687   22.4652 C   0  0  0  0  0  0  0  0  0  0  0  0
   10.7810    4.2308   22.5447 H   0  0  0  0  0  0  0  0  0  0  0  0
    9.0748    3.2242   23.4217 C   0  0  0  0  0  0  0  0  0  0  0  0
    8.8506    4.2066   24.4340 C   0  0  0  0  0  0  0  0  0  0  0  0
    9.4501    5.1185   24.4320 H   0  0  0  0  0  0  0  0  0  0  0  0
    7.8710    3.9947   25.3723 C   0  0  0  0  0  0  0  0  0  0  0  0
    7.6599    4.7082   26.1656 H   0  0  0  0  0  0  0  0  0  0  0  0
    7.0988    2.8009   25.2881 C   0  0  0  0  0  0  0  0  0  0  0  0
    6.3269    2.6038   26.0278 H   0  0  0  0  0  0  0  0  0  0  0  0
    7.2380    1.8840   24.3508 N   0  0  0  0  0  0  0  0  0  0  0  0
    8.2072    2.0779   23.3891 C   0  0  0  0  0  0  0  0  0  0  0  0
  1  2  1  0
  2  3  1  0
  3  4  1  6
  3  5  1  0
  5  6  2  0
  6  7  1  0
  6  8  1  0
  8  9  2  0
  9 10  1  0
  9 11  1  0
 11 12  1  0
 11 13  2  0
 13 14  1  0
  3 15  1  0
 15 16  1  0
 15 17  1  0
 17 18  2  0
 18 19  1  0
 18 20  1  0
 20 21  1  0
 20 22  2  0
 22 23  1  0
 22 24  1  0
 24 25  2  0
 25 26  1  0
 25 27  1  0
 27 28  1  0
 27 29  2  0
 29 30  1  0
 29 31  1  0
 31 32  2  0
 13  5  1  0
 32 17  1  0
 32 24  1  0
M  END
>  <cnnaffinity>  (1) 
-5.49544

>  <filename>  (1) 
O[C@H](Nc1cccc2cccnc12)c1cccnc1

$$$$
