
     RDKit          3D

 32 34  0  0  0  0  0  0  0  0999 V2000
    8.4977    1.4987   21.3264 H   0  0  0  0  0  0  0  0  0  0  0  0
    9.0636    1.2632   20.5794 O   0  0  0  0  0  0  0  0  0  0  0  0
    9.6158    0.0017   20.9224 C   0  0  1  0  0  0  0  0  0  0  0  0
    9.9900   -0.4170   19.9776 H   0  0  0  0  0  0  0  0  0  0  0  0
   10.8204    0.1151   21.8562 C   0  0  0  0  0  0  0  0  0  0  0  0
   10.8156    0.9858   22.9565 C   0  0  0  0  0  0  0  0  0  0  0  0
    9.9005    1.5049   23.2339 H   0  0  0  0  0  0  0  0  0  0  0  0
   11.9757    1.2060   23.7040 C   0  0  0  0  0  0  0  0  0  0  0  0
   11.9619    1.9346   24.5125 H   0  0  0  0  0  0  0  0  0  0  0  0
   13.1555    0.5253   23.3865 C   0  0  0  0  0  0  0  0  0  0  0  0
   14.0813    0.7563   23.9103 H   0  0  0  0  0  0  0  0  0  0  0  0
   13.1490   -0.4241   22.3574 C   0  0  0  0  0  0  0  0  0  0  0  0
   14.0518   -0.9815   22.1239 H   0  0  0  0  0  0  0  0  0  0  0  0
   11.9823   -0.6358   21.6061 C   0  0  0  0  0  0  0  0  0  0  0  0
   11.9883   -1.3562   20.7883 H   0  0  0  0  0  0  0  0  0  0  0  0
    8.5197   -0.8786   21.4419 C   0  0  0  0  0  0  0  0  0  0  0  0
    7.1834   -0.8849   21.0837 C   0  0  0  0  0  0  0  0  0  0  0  0
    6.5360   -0.1252   20.0275 C   0  0  0  0  0  0  0  0  0  0  0  0
    7.1509   -0.0818   18.7703 C   0  0  0  0  0  0  0  0  0  0  0  0
    8.0899   -0.6102   18.6086 H   0  0  0  0  0  0  0  0  0  0  0  0
    6.6572    0.5779   17.7184 N   0  0  0  0  0  0  0  0  0  0  0  0
    5.5111    1.2516   17.9021 C   0  0  0  0  0  0  0  0  0  0  0  0
    5.1287    1.7888   17.0368 H   0  0  0  0  0  0  0  0  0  0  0  0
    4.8177    1.2778   19.1206 C   0  0  0  0  0  0  0  0  0  0  0  0
    3.9027    1.8530   19.2080 H   0  0  0  0  0  0  0  0  0  0  0  0
    5.3281    0.5656   20.2035 C   0  0  0  0  0  0  0  0  0  0  0  0
    4.8221    0.5307   21.1699 H   0  0  0  0  0  0  0  0  0  0  0  0
    6.4937   -1.7667   21.8649 N   0  0  0  0  0  0  0  0  0  0  0  0
    7.3650   -2.2979   22.6768 C   0  0  0  0  0  0  0  0  0  0  0  0
    7.1307   -3.0125   23.4618 H   0  0  0  0  0  0  0  0  0  0  0  0
    8.6124   -1.8099   22.4514 N   0  0  0  0  0  0  0  0  0  0  0  0
    9.4548   -2.0298   22.9553 H   0  0  0  0  0  0  0  0  0  0  0  0
  1  2  1  0
  2  3  1  0
  3  4  1  6
  3  5  1  0
  5  6  2  0
  6  7  1  0
  6  8  1  0
  8  9  1  0
  8 10  2  0
 10 11  1  0
 10 12  1  0
 12 13  1  0
 12 14  2  0
 14 15  1  0
  3 16  1  0
 16 17  2  0
 17 18  1  0
 18 19  2  0
 19 20  1  0
 19 21  1  0
 21 22  2  0
 22 23  1  0
 22 24  1  0
 24 25  1  0
 24 26  2  0
 26 27  1  0
 17 28  1  0
 28 29  2  0
 29 30  1  0
 29 31  1  0
 31 32  1  0
 14  5  1  0
 31 16  1  0
 26 18  1  0
M  END
>  <cnnaffinity>  (1) 
-5.61528

>  <filename>  (1) 
O[C@@H](c1ccccc1)c1[nH]cnc1-c1cccnc1

$$$$
