
     RDKit          3D

 31 33  0  0  0  0  0  0  0  0999 V2000
    8.3313   -2.9031   25.7721 H   0  0  0  0  0  0  0  0  0  0  0  0
    8.1812   -2.9874   24.8178 O   0  0  0  0  0  0  0  0  0  0  0  0
    7.9390   -1.6597   24.3426 C   0  0  2  0  0  0  0  0  0  0  0  0
    6.9271   -1.3423   24.6360 H   0  0  0  0  0  0  0  0  0  0  0  0
    7.9078   -1.5271   22.8111 C   0  0  0  0  0  0  0  0  0  0  0  0
    7.0251   -0.6640   22.2269 N   0  0  0  0  0  0  0  0  0  0  0  0
    7.3338   -0.7004   20.9462 C   0  0  0  0  0  0  0  0  0  0  0  0
    6.6375    0.0217   19.8767 C   0  0  0  0  0  0  0  0  0  0  0  0
    7.1630    0.0706   18.5793 C   0  0  0  0  0  0  0  0  0  0  0  0
    8.1124   -0.4039   18.3361 H   0  0  0  0  0  0  0  0  0  0  0  0
    6.5740    0.6926   17.5559 N   0  0  0  0  0  0  0  0  0  0  0  0
    5.4100    1.3152   17.7962 C   0  0  0  0  0  0  0  0  0  0  0  0
    4.9444    1.8187   16.9479 H   0  0  0  0  0  0  0  0  0  0  0  0
    4.8013    1.3309   19.0548 C   0  0  0  0  0  0  0  0  0  0  0  0
    3.8623    1.8550   19.1834 H   0  0  0  0  0  0  0  0  0  0  0  0
    5.4215    0.6835   20.1205 C   0  0  0  0  0  0  0  0  0  0  0  0
    4.9815    0.6911   21.1212 H   0  0  0  0  0  0  0  0  0  0  0  0
    8.3775   -1.5390   20.7807 N   0  0  0  0  0  0  0  0  0  0  0  0
    8.8037   -1.8526   19.9254 H   0  0  0  0  0  0  0  0  0  0  0  0
    8.7561   -2.0771   21.9595 N   0  0  0  0  0  0  0  0  0  0  0  0
    8.9528   -0.6560   24.9046 C   0  0  0  0  0  0  0  0  0  0  0  0
    8.5162    0.5597   25.4579 C   0  0  0  0  0  0  0  0  0  0  0  0
    7.4594    0.7179   25.6902 H   0  0  0  0  0  0  0  0  0  0  0  0
    9.4428    1.5725   25.7350 C   0  0  0  0  0  0  0  0  0  0  0  0
    9.1047    2.5218   26.1447 H   0  0  0  0  0  0  0  0  0  0  0  0
   10.8007    1.3621   25.4692 C   0  0  0  0  0  0  0  0  0  0  0  0
   11.5187    2.1634   25.5916 H   0  0  0  0  0  0  0  0  0  0  0  0
   11.2507    0.1194   25.0129 C   0  0  0  0  0  0  0  0  0  0  0  0
   12.3131   -0.0487   24.8506 H   0  0  0  0  0  0  0  0  0  0  0  0
   10.3306   -0.8943   24.7401 C   0  0  0  0  0  0  0  0  0  0  0  0
   10.6758   -1.8681   24.3910 H   0  0  0  0  0  0  0  0  0  0  0  0
  1  2  1  0
  2  3  1  0
  3  4  1  1
  3  5  1  0
  5  6  1  0
  6  7  2  0
  7  8  1  0
  8  9  2  0
  9 10  1  0
  9 11  1  0
 11 12  2  0
 12 13  1  0
 12 14  1  0
 14 15  1  0
 14 16  2  0
 16 17  1  0
  7 18  1  0
 18 19  1  0
 18 20  1  0
  3 21  1  0
 21 22  2  0
 22 23  1  0
 22 24  1  0
 24 25  1  0
 24 26  2  0
 26 27  1  0
 26 28  1  0
 28 29  1  0
 28 30  2  0
 30 31  1  0
 20  5  2  0
 30 21  1  0
 16  8  1  0
M  END
>  <cnnaffinity>  (1) 
-4.72836

>  <filename>  (1) 
O[C@@H](c1ccccc1)c1n[nH]c(-c2cccnc2)n1

$$$$
