
     RDKit          3D

 30 32  0  0  0  0  0  0  0  0999 V2000
    8.8047    1.9126   21.4953 H   0  0  0  0  0  0  0  0  0  0  0  0
    8.9604    1.4132   20.6780 O   0  0  0  0  0  0  0  0  0  0  0  0
    9.4896    0.1430   21.0202 C   0  0  1  0  0  0  0  0  0  0  0  0
    9.8253   -0.2859   20.0670 H   0  0  0  0  0  0  0  0  0  0  0  0
   10.7034    0.2378   21.9324 C   0  0  0  0  0  0  0  0  0  0  0  0
   11.8743   -0.4480   21.5748 C   0  0  0  0  0  0  0  0  0  0  0  0
   11.8643   -1.0842   20.6895 H   0  0  0  0  0  0  0  0  0  0  0  0
   13.0553   -0.2871   22.3110 C   0  0  0  0  0  0  0  0  0  0  0  0
   13.9651   -0.7914   21.9930 H   0  0  0  0  0  0  0  0  0  0  0  0
   13.0651    0.5539   23.4293 C   0  0  0  0  0  0  0  0  0  0  0  0
   13.9914    0.7367   23.9672 H   0  0  0  0  0  0  0  0  0  0  0  0
   11.8827    1.1781   23.8444 C   0  0  0  0  0  0  0  0  0  0  0  0
   11.8688    1.7981   24.7393 H   0  0  0  0  0  0  0  0  0  0  0  0
   10.7091    1.0160   23.1012 C   0  0  0  0  0  0  0  0  0  0  0  0
    9.7932    1.4973   23.4454 H   0  0  0  0  0  0  0  0  0  0  0  0
    8.4217   -0.8119   21.5286 C   0  0  0  0  0  0  0  0  0  0  0  0
    8.4840   -1.7386   22.4547 N   0  0  0  0  0  0  0  0  0  0  0  0
    7.2625   -2.3187   22.4952 N   0  0  0  0  0  0  0  0  0  0  0  0
    6.4719   -1.7991   21.6315 N   0  0  0  0  0  0  0  0  0  0  0  0
    7.1720   -0.8484   20.9856 N   0  0  0  0  0  0  0  0  0  0  0  0
    6.5798   -0.0858   19.9412 C   0  0  0  0  0  0  0  0  0  0  0  0
    7.1536   -0.0309   18.6615 C   0  0  0  0  0  0  0  0  0  0  0  0
    8.0872   -0.5572   18.4683 H   0  0  0  0  0  0  0  0  0  0  0  0
    6.6089    0.6401   17.6417 N   0  0  0  0  0  0  0  0  0  0  0  0
    5.4600    1.2976   17.8695 C   0  0  0  0  0  0  0  0  0  0  0  0
    5.0426    1.8361   17.0222 H   0  0  0  0  0  0  0  0  0  0  0  0
    4.8167    1.3075   19.1151 C   0  0  0  0  0  0  0  0  0  0  0  0
    3.9006    1.8726   19.2455 H   0  0  0  0  0  0  0  0  0  0  0  0
    5.3844    0.5963   20.1745 C   0  0  0  0  0  0  0  0  0  0  0  0
    4.9317    0.5495   21.1652 H   0  0  0  0  0  0  0  0  0  0  0  0
  1  2  1  0
  2  3  1  0
  3  4  1  6
  3  5  1  0
  5  6  2  0
  6  7  1  0
  6  8  1  0
  8  9  1  0
  8 10  2  0
 10 11  1  0
 10 12  1  0
 12 13  1  0
 12 14  2  0
 14 15  1  0
  3 16  1  0
 16 17  2  0
 17 18  1  0
 18 19  2  0
 19 20  1  0
 20 21  1  0
 21 22  2  0
 22 23  1  0
 22 24  1  0
 24 25  2  0
 25 26  1  0
 25 27  1  0
 27 28  1  0
 27 29  2  0
 29 30  1  0
 14  5  1  0
 20 16  1  0
 29 21  1  0
M  END
>  <cnnaffinity>  (1) 
-5.34235

>  <filename>  (1) 
O[C@@H](c1ccccc1)c1nnnn1-c1cccnc1

$$$$
