
     RDKit          3D

 34 36  0  0  0  0  0  0  0  0999 V2000
    9.6366   -4.2951   23.5708 H   0  0  0  0  0  0  0  0  0  0  0  0
    9.9413   -3.5910   22.9888 O   0  0  0  0  0  0  0  0  0  0  0  0
    8.8731   -2.6680   22.8203 C   0  0  1  0  0  0  0  0  0  0  0  0
    8.0102   -3.1501   22.3264 H   0  0  0  0  0  0  0  0  0  0  0  0
    8.3933   -2.1109   24.1687 C   0  0  0  0  0  0  0  0  0  0  0  0
    9.3288   -1.6100   25.0919 C   0  0  0  0  0  0  0  0  0  0  0  0
   10.3925   -1.6543   24.8699 H   0  0  0  0  0  0  0  0  0  0  0  0
    8.9111   -1.0701   26.3094 C   0  0  0  0  0  0  0  0  0  0  0  0
    9.6459   -0.6744   27.0048 H   0  0  0  0  0  0  0  0  0  0  0  0
    7.5500   -1.0302   26.6304 C   0  0  0  0  0  0  0  0  0  0  0  0
    7.2256   -0.6103   27.5795 H   0  0  0  0  0  0  0  0  0  0  0  0
    6.6102   -1.5302   25.7245 C   0  0  0  0  0  0  0  0  0  0  0  0
    5.5503   -1.4998   25.9652 H   0  0  0  0  0  0  0  0  0  0  0  0
    7.0292   -2.0648   24.4991 C   0  0  0  0  0  0  0  0  0  0  0  0
    6.2770   -2.4634   23.8205 H   0  0  0  0  0  0  0  0  0  0  0  0
    9.4019   -1.5924   21.9179 C   0  0  0  0  0  0  0  0  0  0  0  0
    8.7118   -0.7008   21.1313 C   0  0  0  0  0  0  0  0  0  0  0  0
    7.3235   -0.7860   20.9002 N   0  0  0  0  0  0  0  0  0  0  0  0
    6.7931   -0.9018   21.7561 H   0  0  0  0  0  0  0  0  0  0  0  0
    6.6641   -0.0721   19.8779 C   0  0  0  0  0  0  0  0  0  0  0  0
    7.1697    0.0112   18.5557 C   0  0  0  0  0  0  0  0  0  0  0  0
    8.1212   -0.4683   18.3153 H   0  0  0  0  0  0  0  0  0  0  0  0
    6.5585    0.6723   17.5621 N   0  0  0  0  0  0  0  0  0  0  0  0
    5.4023    1.2979   17.8391 C   0  0  0  0  0  0  0  0  0  0  0  0
    4.9391    1.8369   17.0163 H   0  0  0  0  0  0  0  0  0  0  0  0
    4.8127    1.2814   19.1066 C   0  0  0  0  0  0  0  0  0  0  0  0
    3.8843    1.8218   19.2707 H   0  0  0  0  0  0  0  0  0  0  0  0
    5.4516    0.5850   20.1380 C   0  0  0  0  0  0  0  0  0  0  0  0
    5.0381    0.5862   21.1442 H   0  0  0  0  0  0  0  0  0  0  0  0
    9.7025    0.2157   20.6928 C   0  0  0  0  0  0  0  0  0  0  0  0
    9.5511    1.0890   20.0832 H   0  0  0  0  0  0  0  0  0  0  0  0
   10.9109   -0.0973   21.1526 N   0  0  0  0  0  0  0  0  0  0  0  0
   10.6994   -1.1966   21.8860 N   0  0  0  0  0  0  0  0  0  0  0  0
   11.4836   -1.7383   22.2312 H   0  0  0  0  0  0  0  0  0  0  0  0
  1  2  1  0
  2  3  1  0
  3  4  1  6
  3  5  1  0
  5  6  2  0
  6  7  1  0
  6  8  1  0
  8  9  1  0
  8 10  2  0
 10 11  1  0
 10 12  1  0
 12 13  1  0
 12 14  2  0
 14 15  1  0
  3 16  1  0
 16 17  2  0
 17 18  1  0
 18 19  1  0
 18 20  1  0
 20 21  2  0
 21 22  1  0
 21 23  1  0
 23 24  2  0
 24 25  1  0
 24 26  1  0
 26 27  1  0
 26 28  2  0
 28 29  1  0
 17 30  1  0
 30 31  1  0
 30 32  2  0
 32 33  1  0
 33 34  1  0
 14  5  1  0
 33 16  1  0
 28 20  1  0
M  END
>  <cnnaffinity>  (1) 
-5.46937

>  <filename>  (1) 
O[C@@H](c1ccccc1)c1[nH]ncc1Nc1cccnc1

$$$$
