
     RDKit          3D

 36 38  0  0  0  0  0  0  0  0999 V2000
    8.6577    0.0690   21.2231 O   0  0  0  0  0  0  0  0  0  0  0  0
    7.3504   -0.4633   21.1221 C   0  0  0  0  0  0  0  0  0  0  0  0
    7.4024   -1.9822   20.9181 C   0  0  0  0  0  0  0  0  0  0  0  0
    7.9273   -2.7428   22.0290 N   0  0  0  0  0  0  0  0  0  0  0  0
    7.2999   -3.2816   23.0987 C   0  0  0  0  0  0  0  0  0  0  0  0
    8.3167   -3.8450   23.8372 C   0  0  0  0  0  0  0  0  0  0  0  0
    8.2324   -4.4713   25.1731 C   0  0  0  0  0  0  0  0  0  0  0  0
    6.9948   -4.5353   25.6869 N   0  0  0  0  0  0  0  0  0  0  0  0
    6.8280   -4.9829   26.9349 C   0  0  0  0  0  0  0  0  0  0  0  0
    5.3990   -4.9630   27.5076 C   0  0  0  0  0  0  0  0  0  0  0  0
    5.3620   -4.2647   28.6630 F   0  0  0  0  0  0  0  0  0  0  0  0
    4.4918   -4.4216   26.6883 F   0  0  0  0  0  0  0  0  0  0  0  0
    4.9840   -6.2115   27.8019 F   0  0  0  0  0  0  0  0  0  0  0  0
    7.9020   -5.4246   27.7269 C   0  0  0  0  0  0  0  0  0  0  0  0
    9.1924   -5.3496   27.1951 C   0  0  0  0  0  0  0  0  0  0  0  0
    9.3700   -4.8939   25.8893 C   0  0  0  0  0  0  0  0  0  0  0  0
   10.3417   -4.8421   25.4065 H   0  0  0  0  0  0  0  0  0  0  0  0
   10.0584   -5.6254   27.7952 H   0  0  0  0  0  0  0  0  0  0  0  0
    7.7356   -5.8242   28.7205 H   0  0  0  0  0  0  0  0  0  0  0  0
    9.4860   -3.6421   23.1616 N   0  0  0  0  0  0  0  0  0  0  0  0
    9.2358   -2.9851   22.0812 N   0  0  0  0  0  0  0  0  0  0  0  0
    6.2345   -3.2554   23.2930 H   0  0  0  0  0  0  0  0  0  0  0  0
    6.4304   -2.3802   20.6312 H   0  0  0  0  0  0  0  0  0  0  0  0
    8.1166   -2.1046   20.1120 H   0  0  0  0  0  0  0  0  0  0  0  0
    6.5890    0.1685   19.9856 C   0  0  0  0  0  0  0  0  0  0  0  0
    5.3345    0.7677   20.1395 C   0  0  0  0  0  0  0  0  0  0  0  0
    4.7363    1.3608   19.0250 C   0  0  0  0  0  0  0  0  0  0  0  0
    5.4053    1.3200   17.7962 C   0  0  0  0  0  0  0  0  0  0  0  0
    6.5908    0.7164   17.6260 N   0  0  0  0  0  0  0  0  0  0  0  0
    7.1546    0.1614   18.7046 C   0  0  0  0  0  0  0  0  0  0  0  0
    8.1153   -0.3286   18.5366 H   0  0  0  0  0  0  0  0  0  0  0  0
    4.9642    1.7739   16.9090 H   0  0  0  0  0  0  0  0  0  0  0  0
    3.7776    1.8590   19.0927 H   0  0  0  0  0  0  0  0  0  0  0  0
    4.8406    0.7791   21.1157 H   0  0  0  0  0  0  0  0  0  0  0  0
    6.8472   -0.2286   22.0654 H   0  0  0  0  0  0  0  0  0  0  0  0
    9.2398   -0.3877   20.6006 H   0  0  0  0  0  0  0  0  0  0  0  0
  1  2  1  0
  2  3  1  0
  3  4  1  0
  4  5  1  0
  5  6  2  0
  6  7  1  0
  7  8  2  0
  8  9  1  0
  9 10  1  0
 10 11  1  0
 10 12  1  0
 10 13  1  0
  9 14  2  0
 14 15  1  0
 15 16  2  0
 16 17  1  0
 15 18  1  0
 14 19  1  0
  6 20  1  0
 20 21  2  0
  5 22  1  0
  3 23  1  0
  3 24  1  0
  2 25  1  0
 25 26  2  0
 26 27  1  0
 27 28  2  0
 28 29  1  0
 29 30  2  0
 30 31  1  0
 28 32  1  0
 27 33  1  0
 26 34  1  0
  2 35  1  0
  1 36  1  0
 21  4  1  0
 30 25  1  0
 16  7  1  0
M  END
>  <cnnaffinity>  (1) 
-4.92362

>  <filename>  (1) 
OC(Cn1cc(-c2cccc(C(F)(F)F)n2)nn1)c1cccnc1

$$$$
