
     RDKit          3D

 50 54  0  0  0  0  0  0  0  0999 V2000
   10.1467    2.8862   24.6818 O   0  0  0  0  0  0  0  0  0  0  0  0
    8.9738    2.9159   23.8836 C   0  0  0  0  0  0  0  0  0  0  0  0
    8.8317    1.7808   22.8667 C   0  0  0  0  0  0  0  0  0  0  0  0
    7.7603    1.0306   22.6529 N   0  0  0  0  0  0  0  0  0  0  0  0
    8.0773    0.3504   21.5202 C   0  0  0  0  0  0  0  0  0  0  0  0
    7.1700   -0.6559   20.8669 C   0  0  0  0  0  0  0  0  0  0  0  0
    6.4132   -0.0778   19.6843 C   0  0  0  0  0  0  0  0  0  0  0  0
    5.2427    0.6627   19.8872 C   0  0  0  0  0  0  0  0  0  0  0  0
    4.6958    1.3587   18.8087 C   0  0  0  0  0  0  0  0  0  0  0  0
    5.3361    1.2759   17.5673 C   0  0  0  0  0  0  0  0  0  0  0  0
    6.4284    0.5302   17.3391 N   0  0  0  0  0  0  0  0  0  0  0  0
    6.9392   -0.1325   18.3831 C   0  0  0  0  0  0  0  0  0  0  0  0
    7.8315   -0.7347   18.1959 H   0  0  0  0  0  0  0  0  0  0  0  0
    4.9667    1.8356   16.7127 H   0  0  0  0  0  0  0  0  0  0  0  0
    3.8121    1.9773   18.9230 H   0  0  0  0  0  0  0  0  0  0  0  0
    4.7829    0.6984   20.8785 H   0  0  0  0  0  0  0  0  0  0  0  0
    7.7903   -1.5007   20.5488 H   0  0  0  0  0  0  0  0  0  0  0  0
    6.4754   -1.0183   21.6297 H   0  0  0  0  0  0  0  0  0  0  0  0
    9.2622    0.6373   21.0153 N   0  0  0  0  0  0  0  0  0  0  0  0
    9.7569    1.5340   21.8946 N   0  0  0  0  0  0  0  0  0  0  0  0
   11.1180    1.9508   21.8941 C   0  0  0  0  0  0  0  0  0  0  0  0
   11.6580    2.9325   21.0653 C   0  0  0  0  0  0  0  0  0  0  0  0
   12.8204    3.6246   21.4685 C   0  0  0  0  0  0  0  0  0  0  0  0
   13.5526    3.2275   22.5937 C   0  0  0  0  0  0  0  0  0  0  0  0
   13.1119    2.0925   23.3017 C   0  0  0  0  0  0  0  0  0  0  0  0
   11.9164    1.4694   22.9399 C   0  0  0  0  0  0  0  0  0  0  0  0
   11.7491    0.4342   23.8316 N   0  0  0  0  0  0  0  0  0  0  0  0
   12.8059    0.4802   24.6818 C   0  0  0  0  0  0  0  0  0  0  0  0
   13.6371    1.4369   24.3915 N   0  0  0  0  0  0  0  0  0  0  0  0
   12.8949   -0.2052   25.5171 H   0  0  0  0  0  0  0  0  0  0  0  0
   10.9962   -0.2252   23.8382 H   0  0  0  0  0  0  0  0  0  0  0  0
   14.4450    3.7527   22.9211 H   0  0  0  0  0  0  0  0  0  0  0  0
   13.1499    4.4822   20.8880 H   0  0  0  0  0  0  0  0  0  0  0  0
   11.1824    3.1637   20.1170 H   0  0  0  0  0  0  0  0  0  0  0  0
    8.8374    4.2896   23.1960 C   0  0  0  0  0  0  0  0  0  0  0  0
    7.5394    4.4828   22.4045 C   0  0  0  0  0  0  0  0  0  0  0  0
    7.5812    5.9678   22.0163 C   0  0  0  0  0  0  0  0  0  0  0  0
    8.3427    6.6694   23.1765 C   0  0  0  0  0  0  0  0  0  0  0  0
    8.8168    5.5289   24.1115 C   0  0  0  0  0  0  0  0  0  0  0  0
    8.0857    5.3792   24.9217 H   0  0  0  0  0  0  0  0  0  0  0  0
    9.7779    5.7392   24.5957 H   0  0  0  0  0  0  0  0  0  0  0  0
    9.2083    7.2162   22.7852 H   0  0  0  0  0  0  0  0  0  0  0  0
    7.7212    7.4011   23.7079 H   0  0  0  0  0  0  0  0  0  0  0  0
    6.5812    6.3818   21.8480 H   0  0  0  0  0  0  0  0  0  0  0  0
    8.1381    6.0731   21.0774 H   0  0  0  0  0  0  0  0  0  0  0  0
    7.4324    3.7980   21.5544 H   0  0  0  0  0  0  0  0  0  0  0  0
    6.6892    4.2928   23.0761 H   0  0  0  0  0  0  0  0  0  0  0  0
    9.7029    4.3717   22.5169 H   0  0  0  0  0  0  0  0  0  0  0  0
    8.1339    2.7641   24.5675 H   0  0  0  0  0  0  0  0  0  0  0  0
   10.8803    3.2283   24.1475 H   0  0  0  0  0  0  0  0  0  0  0  0
  1  2  1  0
  2  3  1  0
  3  4  2  0
  4  5  1  0
  5  6  1  0
  6  7  1  0
  7  8  2  0
  8  9  1  0
  9 10  2  0
 10 11  1  0
 11 12  2  0
 12 13  1  0
 10 14  1  0
  9 15  1  0
  8 16  1  0
  6 17  1  0
  6 18  1  0
  5 19  2  0
 19 20  1  0
 20 21  1  0
 21 22  2  0
 22 23  1  0
 23 24  2  0
 24 25  1  0
 25 26  2  0
 26 27  1  0
 27 28  1  0
 28 29  2  0
 28 30  1  0
 27 31  1  0
 24 32  1  0
 23 33  1  0
 22 34  1  0
  2 35  1  0
 35 36  1  0
 36 37  1  0
 37 38  1  0
 38 39  1  0
 39 40  1  0
 39 41  1  0
 38 42  1  0
 38 43  1  0
 37 44  1  0
 37 45  1  0
 36 46  1  0
 36 47  1  0
 35 48  1  0
  2 49  1  0
  1 50  1  0
 20  3  1  0
 26 21  1  0
 39 35  1  0
 12  7  1  0
 29 25  1  0
M  END
>  <cnnaffinity>  (1) 
-6.22202

>  <filename>  (1) 
OC(c1nc(Cc2cccnc2)nn1-c1cccc2nc[nH]c12)C1CCCC1

$$$$
