
     RDKit          3D

 34 36  0  0  0  0  0  0  0  0999 V2000
    5.1445    3.2106   26.4039 O   0  0  0  0  0  0  0  0  0  0  0  0
    6.1766    2.2662   26.1095 C   0  0  0  0  0  0  0  0  0  0  0  0
    6.6730    2.2786   24.6651 C   0  0  0  0  0  0  0  0  0  0  0  0
    6.8444    3.4853   23.9791 C   0  0  0  0  0  0  0  0  0  0  0  0
    7.2626    3.4659   22.6478 C   0  0  0  0  0  0  0  0  0  0  0  0
    7.4921    2.2189   22.0669 C   0  0  0  0  0  0  0  0  0  0  0  0
    7.2890    1.0485   22.8302 C   0  0  0  0  0  0  0  0  0  0  0  0
    7.5493   -0.2998   22.2807 C   0  0  0  0  0  0  0  0  0  0  0  0
    8.1644   -1.3676   22.8999 C   0  0  0  0  0  0  0  0  0  0  0  0
    8.3063   -2.3320   21.8883 C   0  0  0  0  0  0  0  0  0  0  0  0
    7.8263   -1.9036   20.7301 N   0  0  0  0  0  0  0  0  0  0  0  0
    7.3508   -0.6689   20.9674 N   0  0  0  0  0  0  0  0  0  0  0  0
    6.6465   -0.0002   19.9287 C   0  0  0  0  0  0  0  0  0  0  0  0
    5.4196    0.6300   20.1667 C   0  0  0  0  0  0  0  0  0  0  0  0
    4.8084    1.2956   19.1031 C   0  0  0  0  0  0  0  0  0  0  0  0
    5.4129    1.2888   17.8425 C   0  0  0  0  0  0  0  0  0  0  0  0
    6.5794    0.6639   17.6050 N   0  0  0  0  0  0  0  0  0  0  0  0
    7.1739    0.0341   18.6236 C   0  0  0  0  0  0  0  0  0  0  0  0
    8.1194   -0.4447   18.3858 H   0  0  0  0  0  0  0  0  0  0  0  0
    4.9413    1.7839   16.9948 H   0  0  0  0  0  0  0  0  0  0  0  0
    3.8816    1.8344   19.2517 H   0  0  0  0  0  0  0  0  0  0  0  0
    4.9950    0.6381   21.1725 H   0  0  0  0  0  0  0  0  0  0  0  0
    8.7206   -3.3290   21.9526 H   0  0  0  0  0  0  0  0  0  0  0  0
    8.4741   -1.3988   23.9358 H   0  0  0  0  0  0  0  0  0  0  0  0
    6.9280    1.0857   24.1267 N   0  0  0  0  0  0  0  0  0  0  0  0
    7.8286    2.1125   21.0454 H   0  0  0  0  0  0  0  0  0  0  0  0
    7.3995    4.3963   22.0872 H   0  0  0  0  0  0  0  0  0  0  0  0
    6.6169    4.3992   24.5077 H   0  0  0  0  0  0  0  0  0  0  0  0
    7.3861    2.5387   27.0347 C   0  0  0  0  0  0  0  0  0  0  0  0
    7.0470    2.4638   28.3313 F   0  0  0  0  0  0  0  0  0  0  0  0
    7.9466    3.7432   26.8326 F   0  0  0  0  0  0  0  0  0  0  0  0
    8.3402    1.6147   26.8283 F   0  0  0  0  0  0  0  0  0  0  0  0
    5.8897    1.2328   26.3405 H   0  0  0  0  0  0  0  0  0  0  0  0
    4.3028    2.9462   25.9934 H   0  0  0  0  0  0  0  0  0  0  0  0
  1  2  1  0
  2  3  1  0
  3  4  2  0
  4  5  1  0
  5  6  2  0
  6  7  1  0
  7  8  1  0
  8  9  2  0
  9 10  1  0
 10 11  2  0
 11 12  1  0
 12 13  1  0
 13 14  2  0
 14 15  1  0
 15 16  2  0
 16 17  1  0
 17 18  2  0
 18 19  1  0
 16 20  1  0
 15 21  1  0
 14 22  1  0
 10 23  1  0
  9 24  1  0
  7 25  2  0
  6 26  1  0
  5 27  1  0
  4 28  1  0
  2 29  1  0
 29 30  1  0
 29 31  1  0
 29 32  1  0
  2 33  1  0
  1 34  1  0
 25  3  1  0
 12  8  1  0
 18 13  1  0
M  END
>  <cnnaffinity>  (1) 
-5.17748

>  <filename>  (1) 
OC(c1cccc(-c2ccnn2-c2cccnc2)n1)C(F)(F)F

$$$$
