
     RDKit          3D

 53 57  0  0  0  0  0  0  0  0999 V2000
    9.9210    3.1635   24.3920 O   0  0  0  0  0  0  0  0  0  0  0  0
    8.6248    2.8151   23.9215 C   0  0  0  0  0  0  0  0  0  0  0  0
    8.6135    1.7321   22.8401 C   0  0  0  0  0  0  0  0  0  0  0  0
    7.5674    0.9685   22.5718 N   0  0  0  0  0  0  0  0  0  0  0  0
    7.9898    0.2079   21.5290 C   0  0  0  0  0  0  0  0  0  0  0  0
    7.0978   -0.7690   20.8224 C   0  0  0  0  0  0  0  0  0  0  0  0
    6.3929   -0.1200   19.6370 C   0  0  0  0  0  0  0  0  0  0  0  0
    5.2686    0.6917   19.8435 C   0  0  0  0  0  0  0  0  0  0  0  0
    4.7211    1.3743   18.7553 C   0  0  0  0  0  0  0  0  0  0  0  0
    5.3334    1.2398   17.5056 C   0  0  0  0  0  0  0  0  0  0  0  0
    6.4058    0.4664   17.2813 N   0  0  0  0  0  0  0  0  0  0  0  0
    6.9099   -0.1911   18.3323 C   0  0  0  0  0  0  0  0  0  0  0  0
    7.7907   -0.8033   18.1370 H   0  0  0  0  0  0  0  0  0  0  0  0
    4.9446    1.7674   16.6386 H   0  0  0  0  0  0  0  0  0  0  0  0
    3.8510    2.0161   18.8558 H   0  0  0  0  0  0  0  0  0  0  0  0
    4.8415    0.7960   20.8442 H   0  0  0  0  0  0  0  0  0  0  0  0
    6.3699   -1.1189   21.5609 H   0  0  0  0  0  0  0  0  0  0  0  0
    7.6928   -1.6330   20.5040 H   0  0  0  0  0  0  0  0  0  0  0  0
    9.2258    0.4458   21.1370 N   0  0  0  0  0  0  0  0  0  0  0  0
    9.6258    1.4276   21.9799 N   0  0  0  0  0  0  0  0  0  0  0  0
   10.9714    1.8789   22.0387 C   0  0  0  0  0  0  0  0  0  0  0  0
   11.5509    2.8097   21.1799 C   0  0  0  0  0  0  0  0  0  0  0  0
   12.7683    3.4334   21.5208 C   0  0  0  0  0  0  0  0  0  0  0  0
   13.4702    3.0656   22.6653 C   0  0  0  0  0  0  0  0  0  0  0  0
   12.9729    1.9969   23.4348 C   0  0  0  0  0  0  0  0  0  0  0  0
   11.7506    1.4119   23.0949 C   0  0  0  0  0  0  0  0  0  0  0  0
   11.5611    0.3852   23.9915 N   0  0  0  0  0  0  0  0  0  0  0  0
   12.6680    0.3718   24.7870 C   0  0  0  0  0  0  0  0  0  0  0  0
   13.5210    1.3081   24.4982 N   0  0  0  0  0  0  0  0  0  0  0  0
   12.7890   -0.3583   25.5722 H   0  0  0  0  0  0  0  0  0  0  0  0
   10.8602   -0.3337   23.9152 H   0  0  0  0  0  0  0  0  0  0  0  0
   14.4167    3.5251   22.9190 H   0  0  0  0  0  0  0  0  0  0  0  0
   13.2098    4.1644   20.8463 H   0  0  0  0  0  0  0  0  0  0  0  0
   11.0899    3.0263   20.2295 H   0  0  0  0  0  0  0  0  0  0  0  0
    7.9016    4.1082   23.4431 C   0  0  0  0  0  0  0  0  0  0  0  0
    8.5140    4.6699   22.1490 C   0  0  0  0  0  0  0  0  0  0  0  0
    7.7306    5.8762   21.6280 C   0  0  0  0  0  0  0  0  0  0  0  0
    7.7115    6.9952   22.6748 C   0  0  0  0  0  0  0  0  0  0  0  0
    7.1350    6.4911   24.0091 C   0  0  0  0  0  0  0  0  0  0  0  0
    7.8429    5.2170   24.5179 C   0  0  0  0  0  0  0  0  0  0  0  0
    7.3409    4.8386   25.4189 H   0  0  0  0  0  0  0  0  0  0  0  0
    8.8684    5.4753   24.8165 H   0  0  0  0  0  0  0  0  0  0  0  0
    6.0614    6.2924   23.8816 H   0  0  0  0  0  0  0  0  0  0  0  0
    7.2023    7.2819   24.7645 H   0  0  0  0  0  0  0  0  0  0  0  0
    8.7430    7.3410   22.8330 H   0  0  0  0  0  0  0  0  0  0  0  0
    7.1500    7.8656   22.3107 H   0  0  0  0  0  0  0  0  0  0  0  0
    8.1549    6.2256   20.6802 H   0  0  0  0  0  0  0  0  0  0  0  0
    6.7011    5.5667   21.3988 H   0  0  0  0  0  0  0  0  0  0  0  0
    8.5591    3.8833   21.3861 H   0  0  0  0  0  0  0  0  0  0  0  0
    9.5512    4.9753   22.3568 H   0  0  0  0  0  0  0  0  0  0  0  0
    6.8690    3.7930   23.2198 H   0  0  0  0  0  0  0  0  0  0  0  0
    8.0199    2.3810   24.7325 H   0  0  0  0  0  0  0  0  0  0  0  0
   10.2356    2.4795   24.9992 H   0  0  0  0  0  0  0  0  0  0  0  0
  1  2  1  0
  2  3  1  0
  3  4  2  0
  4  5  1  0
  5  6  1  0
  6  7  1  0
  7  8  2  0
  8  9  1  0
  9 10  2  0
 10 11  1  0
 11 12  2  0
 12 13  1  0
 10 14  1  0
  9 15  1  0
  8 16  1  0
  6 17  1  0
  6 18  1  0
  5 19  2  0
 19 20  1  0
 20 21  1  0
 21 22  2  0
 22 23  1  0
 23 24  2  0
 24 25  1  0
 25 26  2  0
 26 27  1  0
 27 28  1  0
 28 29  2  0
 28 30  1  0
 27 31  1  0
 24 32  1  0
 23 33  1  0
 22 34  1  0
  2 35  1  0
 35 36  1  0
 36 37  1  0
 37 38  1  0
 38 39  1  0
 39 40  1  0
 40 41  1  0
 40 42  1  0
 39 43  1  0
 39 44  1  0
 38 45  1  0
 38 46  1  0
 37 47  1  0
 37 48  1  0
 36 49  1  0
 36 50  1  0
 35 51  1  0
  2 52  1  0
  1 53  1  0
 20  3  1  0
 26 21  1  0
 40 35  1  0
 12  7  1  0
 29 25  1  0
M  END
>  <cnnaffinity>  (1) 
-6.19081

>  <filename>  (1) 
OC(c1nc(Cc2cccnc2)nn1-c1cccc2nc[nH]c12)C1CCCCC1

$$$$
