
     RDKit          3D

 35 37  0  0  0  0  0  0  0  0999 V2000
    7.6290   -2.0654   20.7657 O   0  0  0  0  0  0  0  0  0  0  0  0
    7.4118   -0.6858   21.0289 C   0  0  0  0  0  0  0  0  0  0  0  0
    8.7671   -0.0201   21.3521 C   0  0  0  0  0  0  0  0  0  0  0  0
    8.6857    1.3422   21.8516 N   0  0  0  0  0  0  0  0  0  0  0  0
    9.7528    2.1131   22.1357 C   0  0  0  0  0  0  0  0  0  0  0  0
    9.5883    3.3173   22.5671 N   0  0  0  0  0  0  0  0  0  0  0  0
   10.8238    3.8880   22.7892 C   0  0  0  0  0  0  0  0  0  0  0  0
   11.9465    3.0696   22.5290 C   0  0  0  0  0  0  0  0  0  0  0  0
   13.2480    3.5006   22.7393 C   0  0  0  0  0  0  0  0  0  0  0  0
   13.4330    4.8043   23.1948 C   0  0  0  0  0  0  0  0  0  0  0  0
   12.3388    5.6475   23.4475 C   0  0  0  0  0  0  0  0  0  0  0  0
   11.0291    5.1920   23.2575 C   0  0  0  0  0  0  0  0  0  0  0  0
    9.8031    6.0155   23.5298 C   0  0  0  0  0  0  0  0  0  0  0  0
    8.9534    5.4216   24.3833 F   0  0  0  0  0  0  0  0  0  0  0  0
   10.1274    7.1983   24.0909 F   0  0  0  0  0  0  0  0  0  0  0  0
    9.1033    6.2974   22.4173 F   0  0  0  0  0  0  0  0  0  0  0  0
   12.5287    6.6553   23.7996 H   0  0  0  0  0  0  0  0  0  0  0  0
   14.4416    5.1563   23.3516 H   0  0  0  0  0  0  0  0  0  0  0  0
   14.0924    2.8412   22.5563 H   0  0  0  0  0  0  0  0  0  0  0  0
   11.4031    1.5202   21.9449 S   0  0  0  0  0  0  0  0  0  0  0  0
    7.8642    1.9280   21.9335 H   0  0  0  0  0  0  0  0  0  0  0  0
    9.3932   -0.0745   20.4458 H   0  0  0  0  0  0  0  0  0  0  0  0
    9.2620   -0.6742   22.0833 H   0  0  0  0  0  0  0  0  0  0  0  0
    6.6448   -0.0049   19.9099 C   0  0  0  0  0  0  0  0  0  0  0  0
    5.4312    0.6637   20.1450 C   0  0  0  0  0  0  0  0  0  0  0  0
    4.7955    1.3211   19.0878 C   0  0  0  0  0  0  0  0  0  0  0  0
    5.3977    1.2946   17.8268 C   0  0  0  0  0  0  0  0  0  0  0  0
    6.5507    0.6564   17.5742 N   0  0  0  0  0  0  0  0  0  0  0  0
    7.1487    0.0346   18.5992 C   0  0  0  0  0  0  0  0  0  0  0  0
    8.0980   -0.4426   18.3460 H   0  0  0  0  0  0  0  0  0  0  0  0
    4.9455    1.8059   16.9771 H   0  0  0  0  0  0  0  0  0  0  0  0
    3.8611    1.8576   19.2243 H   0  0  0  0  0  0  0  0  0  0  0  0
    4.9903    0.6574   21.1452 H   0  0  0  0  0  0  0  0  0  0  0  0
    6.8029   -0.6552   21.9435 H   0  0  0  0  0  0  0  0  0  0  0  0
    8.0907   -2.1403   19.9173 H   0  0  0  0  0  0  0  0  0  0  0  0
  1  2  1  0
  2  3  1  0
  3  4  1  0
  4  5  1  0
  5  6  2  0
  6  7  1  0
  7  8  2  0
  8  9  1  0
  9 10  2  0
 10 11  1  0
 11 12  2  0
 12 13  1  0
 13 14  1  0
 13 15  1  0
 13 16  1  0
 11 17  1  0
 10 18  1  0
  9 19  1  0
  8 20  1  0
  4 21  1  0
  3 22  1  0
  3 23  1  0
  2 24  1  0
 24 25  2  0
 25 26  1  0
 26 27  2  0
 27 28  1  0
 28 29  2  0
 29 30  1  0
 27 31  1  0
 26 32  1  0
 25 33  1  0
  2 34  1  0
  1 35  1  0
 20  5  1  0
 29 24  1  0
 12  7  1  0
M  END
>  <cnnaffinity>  (1) 
-4.95825

>  <filename>  (1) 
OC(CNc1nc2c(C(F)(F)F)cccc2s1)c1cccnc1

$$$$
