
     RDKit          3D

 44 46  0  0  0  0  0  0  0  0999 V2000
    9.7790    2.3141   22.1618 O   0  0  0  0  0  0  0  0  0  0  0  0
    8.9594    2.5729   23.3112 C   0  0  0  0  0  0  0  0  0  0  0  0
    7.9421    1.4345   23.4047 C   0  0  0  0  0  0  0  0  0  0  0  0
    8.5835    0.0365   23.5516 C   0  0  0  0  0  0  0  0  0  0  0  0
    9.0160   -0.3075   24.9793 C   0  0  0  0  0  0  0  0  0  0  0  0
    7.7555   -0.8848   25.6260 C   0  0  0  0  0  0  0  0  0  0  0  0
    7.0806   -1.6603   24.4908 C   0  0  0  0  0  0  0  0  0  0  0  0
    7.6098   -1.0398   23.2598 N   0  0  0  0  0  0  0  0  0  0  0  0
    7.0368   -1.2778   22.0498 C   0  0  0  0  0  0  0  0  0  0  0  0
    5.9029   -2.4716   21.7686 S   0  0  0  0  0  0  0  0  0  0  0  0
    7.5111   -0.4767   21.0323 N   0  0  0  0  0  0  0  0  0  0  0  0
    6.7706    0.0598   19.9304 C   0  0  0  0  0  0  0  0  0  0  0  0
    5.5128    0.6410   20.1422 C   0  0  0  0  0  0  0  0  0  0  0  0
    4.8529    1.2346   19.0598 C   0  0  0  0  0  0  0  0  0  0  0  0
    5.4561    1.2052   17.7983 C   0  0  0  0  0  0  0  0  0  0  0  0
    6.6437    0.6235   17.5681 N   0  0  0  0  0  0  0  0  0  0  0  0
    7.2828    0.0761   18.6133 C   0  0  0  0  0  0  0  0  0  0  0  0
    8.2503   -0.3773   18.4037 H   0  0  0  0  0  0  0  0  0  0  0  0
    4.9678    1.6577   16.9374 H   0  0  0  0  0  0  0  0  0  0  0  0
    3.8922    1.7204   19.1853 H   0  0  0  0  0  0  0  0  0  0  0  0
    5.0917    0.6220   21.1495 H   0  0  0  0  0  0  0  0  0  0  0  0
    8.4248   -0.0975   21.2082 H   0  0  0  0  0  0  0  0  0  0  0  0
    5.9853   -1.5823   24.5066 H   0  0  0  0  0  0  0  0  0  0  0  0
    7.3426   -2.7245   24.5113 H   0  0  0  0  0  0  0  0  0  0  0  0
    7.1017   -0.0782   25.9773 H   0  0  0  0  0  0  0  0  0  0  0  0
    7.9816   -1.5247   26.4832 H   0  0  0  0  0  0  0  0  0  0  0  0
    9.4190    0.5614   25.5123 H   0  0  0  0  0  0  0  0  0  0  0  0
    9.8077   -1.0641   24.9433 H   0  0  0  0  0  0  0  0  0  0  0  0
    9.4531   -0.0414   22.8847 H   0  0  0  0  0  0  0  0  0  0  0  0
    7.2514    1.6130   24.2385 H   0  0  0  0  0  0  0  0  0  0  0  0
    7.3384    1.4443   22.4919 H   0  0  0  0  0  0  0  0  0  0  0  0
    8.3096    3.9494   23.2028 C   0  0  0  0  0  0  0  0  0  0  0  0
    8.5291    4.9405   24.1745 C   0  0  0  0  0  0  0  0  0  0  0  0
    8.0024    6.2291   24.0141 C   0  0  0  0  0  0  0  0  0  0  0  0
    7.2363    6.5332   22.8841 C   0  0  0  0  0  0  0  0  0  0  0  0
    6.9874    5.5512   21.9204 C   0  0  0  0  0  0  0  0  0  0  0  0
    7.5162    4.2720   22.0917 C   0  0  0  0  0  0  0  0  0  0  0  0
    7.3181    3.5011   21.3569 H   0  0  0  0  0  0  0  0  0  0  0  0
    6.3914    5.7858   21.0434 H   0  0  0  0  0  0  0  0  0  0  0  0
    6.8421    7.5364   22.7547 H   0  0  0  0  0  0  0  0  0  0  0  0
    8.2083    6.9892   24.7690 H   0  0  0  0  0  0  0  0  0  0  0  0
    9.1313    4.6986   25.0487 H   0  0  0  0  0  0  0  0  0  0  0  0
    9.5944    2.5653   24.2174 H   0  0  0  0  0  0  0  0  0  0  0  0
    9.9830    3.1809   21.7810 H   0  0  0  0  0  0  0  0  0  0  0  0
  1  2  1  0
  2  3  1  0
  3  4  1  0
  4  5  1  0
  5  6  1  0
  6  7  1  0
  7  8  1  0
  8  9  1  0
  9 10  2  0
  9 11  1  0
 11 12  1  0
 12 13  2  0
 13 14  1  0
 14 15  2  0
 15 16  1  0
 16 17  2  0
 17 18  1  0
 15 19  1  0
 14 20  1  0
 13 21  1  0
 11 22  1  0
  7 23  1  0
  7 24  1  0
  6 25  1  0
  6 26  1  0
  5 27  1  0
  5 28  1  0
  4 29  1  0
  3 30  1  0
  3 31  1  0
  2 32  1  0
 32 33  2  0
 33 34  1  0
 34 35  2  0
 35 36  1  0
 36 37  2  0
 37 38  1  0
 36 39  1  0
 35 40  1  0
 34 41  1  0
 33 42  1  0
  2 43  1  0
  1 44  1  0
  8  4  1  0
 17 12  1  0
 37 32  1  0
M  END
>  <cnnaffinity>  (1) 
-5.28269

>  <filename>  (1) 
OC(CC1CCCN1C(=S)Nc1cccnc1)c1ccccc1

$$$$
