
     RDKit          3D

 37 38  0  0  0  0  0  0  0  0999 V2000
    7.7883   -2.0570   20.6304 O   0  0  0  0  0  0  0  0  0  0  0  0
    7.4385   -0.7268   20.9557 C   0  0  0  0  0  0  0  0  0  0  0  0
    8.7696    0.0133   21.2306 C   0  0  0  0  0  0  0  0  0  0  0  0
    8.6607    1.5121   21.5184 N   0  0  0  0  0  4  0  0  0  0  0  0
    7.8592    1.7855   22.7895 C   0  0  0  0  0  0  0  0  0  0  0  0
    8.6337    1.3106   24.0023 C   0  0  0  0  0  0  0  0  0  0  0  0
    8.2985    0.1079   24.6470 C   0  0  0  0  0  0  0  0  0  0  0  0
    9.1062   -0.4202   25.6596 C   0  0  0  0  0  0  0  0  0  0  0  0
   10.2857    0.2383   26.0061 C   0  0  0  0  0  0  0  0  0  0  0  0
   10.6244    1.4436   25.3919 C   0  0  0  0  0  0  0  0  0  0  0  0
    9.7853    2.0216   24.4323 C   0  0  0  0  0  0  0  0  0  0  0  0
   10.0843    3.4146   23.9038 C   0  0  0  0  0  0  0  0  0  0  0  0
   11.1981    3.9653   24.4055 F   0  0  0  0  0  0  0  0  0  0  0  0
   10.2377    3.4297   22.5487 F   0  0  0  0  0  0  0  0  0  0  0  0
    9.0608    4.2550   24.1541 F   0  0  0  0  0  0  0  0  0  0  0  0
   11.5472    1.9422   25.6574 H   0  0  0  0  0  0  0  0  0  0  0  0
   10.9379   -0.1728   26.7685 H   0  0  0  0  0  0  0  0  0  0  0  0
    8.8097   -1.3341   26.1719 H   0  0  0  0  0  0  0  0  0  0  0  0
    7.4030   -0.4280   24.3279 H   0  0  0  0  0  0  0  0  0  0  0  0
    6.8885    1.2823   22.7409 H   0  0  0  0  0  0  0  0  0  0  0  0
    7.6642    2.8495   22.8513 H   0  0  0  0  0  0  0  0  0  0  0  0
    8.2479    1.9718   20.6818 H   0  0  0  0  0  0  0  0  0  0  0  0
    9.5932    1.9498   21.6735 H   0  0  0  0  0  0  0  0  0  0  0  0
    9.2153   -0.4937   22.0839 H   0  0  0  0  0  0  0  0  0  0  0  0
    9.4214   -0.1829   20.3771 H   0  0  0  0  0  0  0  0  0  0  0  0
    6.6302   -0.0939   19.8493 C   0  0  0  0  0  0  0  0  0  0  0  0
    5.4392    0.6069   20.0927 C   0  0  0  0  0  0  0  0  0  0  0  0
    4.8396    1.3069   19.0424 C   0  0  0  0  0  0  0  0  0  0  0  0
    5.4628    1.2846   17.7902 C   0  0  0  0  0  0  0  0  0  0  0  0
    6.5919    0.6077   17.5323 N   0  0  0  0  0  0  0  0  0  0  0  0
    7.1424   -0.0738   18.5405 C   0  0  0  0  0  0  0  0  0  0  0  0
    8.0685   -0.6017   18.2960 H   0  0  0  0  0  0  0  0  0  0  0  0
    5.0319    1.8197   16.9481 H   0  0  0  0  0  0  0  0  0  0  0  0
    3.9194    1.8656   19.1816 H   0  0  0  0  0  0  0  0  0  0  0  0
    4.9885    0.5932   21.0893 H   0  0  0  0  0  0  0  0  0  0  0  0
    6.8552   -0.7472   21.8900 H   0  0  0  0  0  0  0  0  0  0  0  0
    7.6038   -2.1678   19.6888 H   0  0  0  0  0  0  0  0  0  0  0  0
  1  2  1  0
  2  3  1  0
  3  4  1  0
  4  5  1  0
  5  6  1  0
  6  7  2  0
  7  8  1  0
  8  9  2  0
  9 10  1  0
 10 11  2  0
 11 12  1  0
 12 13  1  0
 12 14  1  0
 12 15  1  0
 10 16  1  0
  9 17  1  0
  8 18  1  0
  7 19  1  0
  5 20  1  0
  5 21  1  0
  4 22  1  0
  4 23  1  0
  3 24  1  0
  3 25  1  0
  2 26  1  0
 26 27  2  0
 27 28  1  0
 28 29  2  0
 29 30  1  0
 30 31  2  0
 31 32  1  0
 29 33  1  0
 28 34  1  0
 27 35  1  0
  2 36  1  0
  1 37  1  0
 11  6  1  0
 31 26  1  0
M  CHG  1   4   1
M  END
>  <cnnaffinity>  (1) 
-4.80266

>  <filename>  (1) 
OC(C[NH2+]Cc1ccccc1C(F)(F)F)c1cccnc1

$$$$
