
     RDKit          3D

 34 36  0  0  0  0  0  0  0  0999 V2000
    7.7668   -1.9221   20.6068 O   0  0  0  0  0  0  0  0  0  0  0  0
    7.3875   -0.6072   21.0436 C   0  0  0  0  0  0  0  0  0  0  0  0
    6.6181   -0.0220   19.8915 C   0  0  0  0  0  0  0  0  0  0  0  0
    5.4046    0.6255   20.1141 C   0  0  0  0  0  0  0  0  0  0  0  0
    4.8144    1.2746   19.0333 C   0  0  0  0  0  0  0  0  0  0  0  0
    5.4254    1.2389   17.7764 C   0  0  0  0  0  0  0  0  0  0  0  0
    6.5561    0.5490   17.5452 N   0  0  0  0  0  0  0  0  0  0  0  0
    7.1373   -0.0687   18.5867 C   0  0  0  0  0  0  0  0  0  0  0  0
    8.0619   -0.6055   18.4036 H   0  0  0  0  0  0  0  0  0  0  0  0
    4.9676    1.7832   16.9566 H   0  0  0  0  0  0  0  0  0  0  0  0
    3.8946    1.8317   19.1587 H   0  0  0  0  0  0  0  0  0  0  0  0
    4.9455    0.6489   21.1025 H   0  0  0  0  0  0  0  0  0  0  0  0
    8.5653    0.2653   21.5122 C   0  0  0  0  0  0  0  0  0  0  0  0
    9.0659    1.3482   20.9326 N   0  0  0  0  0  0  0  0  0  0  0  0
   10.0611    1.8215   21.7799 C   0  0  0  0  0  0  0  0  0  0  0  0
   10.1870    1.0020   22.8644 C   0  0  0  0  0  0  0  0  0  0  0  0
    9.2352    0.0176   22.7139 N   0  0  0  0  0  0  0  0  0  0  0  0
    8.9759   -1.0742   23.6695 C   0  0  0  0  0  0  0  0  0  0  0  0
    8.7664   -0.5729   25.0800 C   0  0  0  0  0  0  0  0  0  0  0  0
    9.7850   -0.7049   25.9491 N   0  0  0  0  0  0  0  0  0  0  0  0
    9.6069   -0.3007   27.2188 C   0  0  0  0  0  0  0  0  0  0  0  0
    8.3970    0.2324   27.6818 C   0  0  0  0  0  0  0  0  0  0  0  0
    8.2333    0.8303   29.4913 Br  0  0  0  0  0  0  0  0  0  0  0  0
    7.3245    0.3412   26.7998 C   0  0  0  0  0  0  0  0  0  0  0  0
    7.5230   -0.0333   25.4705 C   0  0  0  0  0  0  0  0  0  0  0  0
    6.2298    0.1798   24.3135 Cl  0  0  0  0  0  0  0  0  0  0  0  0
    6.3542    0.7082   27.1319 H   0  0  0  0  0  0  0  0  0  0  0  0
   10.4372   -0.3958   27.9076 H   0  0  0  0  0  0  0  0  0  0  0  0
    9.8217   -1.7696   23.6562 H   0  0  0  0  0  0  0  0  0  0  0  0
    8.0830   -1.6236   23.3538 H   0  0  0  0  0  0  0  0  0  0  0  0
   10.8774    1.1241   23.6929 H   0  0  0  0  0  0  0  0  0  0  0  0
   10.6381    2.7275   21.6096 H   0  0  0  0  0  0  0  0  0  0  0  0
    6.7168   -0.7093   21.9046 H   0  0  0  0  0  0  0  0  0  0  0  0
    7.0765   -2.2841   20.0258 H   0  0  0  0  0  0  0  0  0  0  0  0
  1  2  1  0
  2  3  1  0
  3  4  2  0
  4  5  1  0
  5  6  2  0
  6  7  1  0
  7  8  2  0
  8  9  1  0
  6 10  1  0
  5 11  1  0
  4 12  1  0
  2 13  1  0
 13 14  2  0
 14 15  1  0
 15 16  2  0
 16 17  1  0
 17 18  1  0
 18 19  1  0
 19 20  2  0
 20 21  1  0
 21 22  2  0
 22 23  1  0
 22 24  1  0
 24 25  2  0
 25 26  1  0
 24 27  1  0
 21 28  1  0
 18 29  1  0
 18 30  1  0
 16 31  1  0
 15 32  1  0
  2 33  1  0
  1 34  1  0
  8  3  1  0
 17 13  1  0
 25 19  1  0
M  END
>  <cnnaffinity>  (1) 
-5.19905

>  <filename>  (1) 
OC(c1cccnc1)c1nccn1Cc1ncc(Br)cc1Cl

$$$$
