
     RDKit          3D

 42 44  0  0  0  0  0  0  0  0999 V2000
    7.1977   -1.0016   25.1962 O   0  0  0  0  0  0  0  0  0  0  0  0
    7.7601   -1.9281   24.2983 C   0  0  0  0  0  0  0  0  0  0  0  0
    7.0087   -3.2778   24.4147 C   0  0  0  0  0  0  0  0  0  0  0  0
    7.0235   -3.7862   25.8261 C   0  0  0  0  0  0  0  0  0  0  0  0
    8.1163   -4.5234   26.3045 C   0  0  0  0  0  0  0  0  0  0  0  0
    8.1038   -4.9842   27.6227 C   0  0  0  0  0  0  0  0  0  0  0  0
    6.9817   -4.6871   28.4051 C   0  0  0  0  0  0  0  0  0  0  0  0
    5.9501   -3.9281   27.8434 C   0  0  0  0  0  0  0  0  0  0  0  0
    5.9587   -3.4879   26.5798 N   0  0  0  0  0  0  0  0  0  0  0  0
    5.0817   -3.6422   28.4346 H   0  0  0  0  0  0  0  0  0  0  0  0
    6.8994   -4.9854   29.4442 H   0  0  0  0  0  0  0  0  0  0  0  0
    8.9471   -5.5475   28.0237 H   0  0  0  0  0  0  0  0  0  0  0  0
    8.9462   -4.7113   25.6275 H   0  0  0  0  0  0  0  0  0  0  0  0
    5.9665   -3.1136   24.1233 H   0  0  0  0  0  0  0  0  0  0  0  0
    7.4503   -4.0294   23.7476 H   0  0  0  0  0  0  0  0  0  0  0  0
    7.8040   -1.4300   22.8590 C   0  0  0  0  0  0  0  0  0  0  0  0
    6.9037   -0.7040   22.2245 N   0  0  0  0  0  0  0  0  0  0  0  0
    7.3460   -0.7029   20.9449 C   0  0  0  0  0  0  0  0  0  0  0  0
    6.6483    0.0085   19.8865 C   0  0  0  0  0  0  0  0  0  0  0  0
    5.4360    0.6579   20.1460 C   0  0  0  0  0  0  0  0  0  0  0  0
    4.8081    1.3084   19.0918 C   0  0  0  0  0  0  0  0  0  0  0  0
    5.4167    1.2848   17.8312 C   0  0  0  0  0  0  0  0  0  0  0  0
    6.5795    0.6656   17.5759 N   0  0  0  0  0  0  0  0  0  0  0  0
    7.1865    0.0482   18.5937 C   0  0  0  0  0  0  0  0  0  0  0  0
    8.1407   -0.4315   18.3689 H   0  0  0  0  0  0  0  0  0  0  0  0
    4.9503    1.7896   16.9896 H   0  0  0  0  0  0  0  0  0  0  0  0
    3.8748    1.8404   19.2365 H   0  0  0  0  0  0  0  0  0  0  0  0
    5.0109    0.6461   21.1534 H   0  0  0  0  0  0  0  0  0  0  0  0
    8.4487   -1.3931   20.7513 N   0  0  0  0  0  0  0  0  0  0  0  0
    8.7440   -1.8535   21.9838 N   0  0  0  0  0  0  0  0  0  0  0  0
    9.9978   -2.5543   22.1783 C   0  0  0  0  0  0  0  0  0  0  0  0
   11.1665   -1.7452   22.7469 C   0  0  0  0  0  0  0  0  0  0  0  0
   11.7364   -0.6698   21.8519 C   0  0  0  0  0  0  0  0  0  0  0  0
   10.8851    0.3135   21.5372 F   0  0  0  0  0  0  0  0  0  0  0  0
   12.8023   -0.0962   22.4422 F   0  0  0  0  0  0  0  0  0  0  0  0
   12.1764   -1.2223   20.7046 F   0  0  0  0  0  0  0  0  0  0  0  0
   11.9909   -2.4519   22.8637 H   0  0  0  0  0  0  0  0  0  0  0  0
   10.9532   -1.2937   23.7208 H   0  0  0  0  0  0  0  0  0  0  0  0
   10.2493   -2.9032   21.1799 H   0  0  0  0  0  0  0  0  0  0  0  0
    9.8217   -3.4248   22.8195 H   0  0  0  0  0  0  0  0  0  0  0  0
    8.8007   -2.0486   24.6322 H   0  0  0  0  0  0  0  0  0  0  0  0
    6.2954   -0.8107   24.8853 H   0  0  0  0  0  0  0  0  0  0  0  0
  1  2  1  0
  2  3  1  0
  3  4  1  0
  4  5  2  0
  5  6  1  0
  6  7  2  0
  7  8  1  0
  8  9  2  0
  8 10  1  0
  7 11  1  0
  6 12  1  0
  5 13  1  0
  3 14  1  0
  3 15  1  0
  2 16  1  0
 16 17  2  0
 17 18  1  0
 18 19  1  0
 19 20  2  0
 20 21  1  0
 21 22  2  0
 22 23  1  0
 23 24  2  0
 24 25  1  0
 22 26  1  0
 21 27  1  0
 20 28  1  0
 18 29  2  0
 29 30  1  0
 30 31  1  0
 31 32  1  0
 32 33  1  0
 33 34  1  0
 33 35  1  0
 33 36  1  0
 32 37  1  0
 32 38  1  0
 31 39  1  0
 31 40  1  0
  2 41  1  0
  1 42  1  0
  9  4  1  0
 30 16  1  0
 24 19  1  0
M  END
>  <cnnaffinity>  (1) 
-5.95372

>  <filename>  (1) 
OC(Cc1ccccn1)c1nc(-c2cccnc2)nn1CCC(F)(F)F

$$$$
