
     RDKit          3D

 36 38  0  0  0  0  0  0  0  0999 V2000
    9.2978   -1.3486   24.6768 H   0  0  0  0  0  0  0  0  0  0  0  0
    8.8997   -1.1989   25.5559 O   0  0  0  0  0  0  0  0  0  0  0  0
    7.9654   -0.2315   25.3379 C   0  0  0  0  0  0  0  0  0  0  0  0
    7.1924    0.2286   26.4015 C   0  0  0  0  0  0  0  0  0  0  0  0
    7.3691   -0.1955   27.3827 H   0  0  0  0  0  0  0  0  0  0  0  0
    6.2240    1.2189   26.1907 C   0  0  0  0  0  0  0  0  0  0  0  0
    5.2692    1.7663   27.5301 Cl  0  0  0  0  0  0  0  0  0  0  0  0
    6.0046    1.7794   24.9292 C   0  0  0  0  0  0  0  0  0  0  0  0
    5.2534    2.5505   24.7776 H   0  0  0  0  0  0  0  0  0  0  0  0
    6.7799    1.3218   23.8643 C   0  0  0  0  0  0  0  0  0  0  0  0
    6.6843    1.7272   22.8632 H   0  0  0  0  0  0  0  0  0  0  0  0
    7.7396    0.3331   24.0692 C   0  0  0  0  0  0  0  0  0  0  0  0
    8.5425   -0.1834   23.0736 O   0  0  0  0  0  0  0  0  0  0  0  0
    8.2854    0.3763   21.7976 N   0  0  0  0  0  0  0  0  0  0  0  0
    9.6109    0.4236   21.1443 C   0  0  0  0  0  0  0  0  0  0  0  0
   10.2438    1.0685   21.7612 H   0  0  0  0  0  0  0  0  0  0  0  0
    9.4710    0.8887   20.1613 H   0  0  0  0  0  0  0  0  0  0  0  0
   10.1862   -0.9908   21.0110 C   0  0  0  0  0  0  0  0  0  0  0  0
   10.3181   -1.4172   22.0160 H   0  0  0  0  0  0  0  0  0  0  0  0
   11.1695   -0.9812   20.5421 H   0  0  0  0  0  0  0  0  0  0  0  0
    9.3049   -1.8049   20.2383 O   0  0  0  0  0  0  0  0  0  0  0  0
    8.0368   -1.9299   20.8763 C   0  0  0  0  0  0  0  0  0  0  0  0
    7.3919   -2.5491   20.2517 H   0  0  0  0  0  0  0  0  0  0  0  0
    8.1706   -2.4136   21.8555 H   0  0  0  0  0  0  0  0  0  0  0  0
    7.3287   -0.5771   21.1199 C   0  0  2  0  0  0  0  0  0  0  0  0
    6.5490   -0.7741   21.8662 H   0  0  0  0  0  0  0  0  0  0  0  0
    6.6203    0.0573   19.9326 C   0  0  0  0  0  0  0  0  0  0  0  0
    7.1507    0.0557   18.6338 C   0  0  0  0  0  0  0  0  0  0  0  0
    8.0839   -0.4666   18.4248 H   0  0  0  0  0  0  0  0  0  0  0  0
    6.5693    0.6581   17.5827 N   0  0  0  0  0  0  0  0  0  0  0  0
    5.4115    1.2961   17.8057 C   0  0  0  0  0  0  0  0  0  0  0  0
    4.9689    1.8002   16.9499 H   0  0  0  0  0  0  0  0  0  0  0  0
    4.7747    1.3340   19.0511 C   0  0  0  0  0  0  0  0  0  0  0  0
    3.8330    1.8605   19.1620 H   0  0  0  0  0  0  0  0  0  0  0  0
    5.3855    0.7003   20.1309 C   0  0  0  0  0  0  0  0  0  0  0  0
    4.9288    0.7155   21.1252 H   0  0  0  0  0  0  0  0  0  0  0  0
  1  2  1  0
  2  3  1  0
  3  4  2  0
  4  5  1  0
  4  6  1  0
  6  7  1  0
  6  8  2  0
  8  9  1  0
  8 10  1  0
 10 11  1  0
 10 12  2  0
 12 13  1  0
 13 14  1  0
 14 15  1  0
 15 16  1  0
 15 17  1  0
 15 18  1  0
 18 19  1  0
 18 20  1  0
 18 21  1  0
 21 22  1  0
 22 23  1  0
 22 24  1  0
 22 25  1  0
 25 26  1  1
 25 27  1  0
 27 28  2  0
 28 29  1  0
 28 30  1  0
 30 31  2  0
 31 32  1  0
 31 33  1  0
 33 34  1  0
 33 35  2  0
 35 36  1  0
 12  3  1  0
 25 14  1  0
 35 27  1  0
M  END
>  <cnnaffinity>  (1) 
-4.70942

>  <filename>  (1) 
Oc1cc(Cl)ccc1ON1CCOC[C@@H]1c1cccnc1

$$$$
