
     RDKit          3D

 36 39  0  0  0  0  0  0  0  0999 V2000
    9.6465    3.8338   21.4589 H   0  0  0  0  0  0  0  0  0  0  0  0
    9.5879    2.8932   21.6849 O   0  0  0  0  0  0  0  0  0  0  0  0
    9.2453    2.7946   22.9948 C   0  0  0  0  0  0  0  0  0  0  0  0
    8.9782    3.9300   23.7532 C   0  0  0  0  0  0  0  0  0  0  0  0
    9.0528    4.9093   23.2880 H   0  0  0  0  0  0  0  0  0  0  0  0
    8.6159    3.8058   25.0963 C   0  0  0  0  0  0  0  0  0  0  0  0
    8.2945    5.2369   26.0274 Cl  0  0  0  0  0  0  0  0  0  0  0  0
    8.5107    2.5535   25.6897 C   0  0  0  0  0  0  0  0  0  0  0  0
    8.2306    2.4855   26.7325 H   0  0  0  0  0  0  0  0  0  0  0  0
    8.7736    1.4016   24.9338 C   0  0  0  0  0  0  0  0  0  0  0  0
    8.6886    0.4165   25.3846 H   0  0  0  0  0  0  0  0  0  0  0  0
    9.1536    1.5048   23.5942 C   0  0  0  0  0  0  0  0  0  0  0  0
    9.4710    0.4404   22.7960 O   0  0  0  0  0  0  0  0  0  0  0  0
    9.2830   -0.8739   23.2314 C   0  0  2  0  0  0  0  0  0  0  0  0
    9.9323   -1.1755   24.0513 H   0  0  0  0  0  0  0  0  0  0  0  0
    9.0209   -1.8664   22.1444 C   0  0  2  0  0  0  0  0  0  0  0  0
    9.5447   -2.8099   22.1678 H   0  0  0  0  0  0  0  0  0  0  0  0
    8.6634   -1.2970   20.7895 C   0  0  0  0  0  0  0  0  0  0  0  0
    8.5749   -2.1125   20.0834 H   0  0  0  0  0  0  0  0  0  0  0  0
    9.4258   -0.6016   20.4155 H   0  0  0  0  0  0  0  0  0  0  0  0
    7.3729   -0.6418   20.9686 N   0  0  0  0  0  0  0  0  0  0  0  0
    6.6987   -0.0093   19.9430 C   0  0  0  0  0  0  0  0  0  0  0  0
    7.1917    0.0479   18.6003 C   0  0  0  0  0  0  0  0  0  0  0  0
    8.1363   -0.4330   18.3481 H   0  0  0  0  0  0  0  0  0  0  0  0
    6.5754    0.6629   17.5816 N   0  0  0  0  0  0  0  0  0  0  0  0
    5.4145    1.2816   17.8455 C   0  0  0  0  0  0  0  0  0  0  0  0
    4.9407    1.7867   17.0086 H   0  0  0  0  0  0  0  0  0  0  0  0
    4.8236    1.2931   19.1126 C   0  0  0  0  0  0  0  0  0  0  0  0
    3.8872    1.8227   19.2704 H   0  0  0  0  0  0  0  0  0  0  0  0
    5.4599    0.6388   20.1702 C   0  0  0  0  0  0  0  0  0  0  0  0
    5.0158    0.6275   21.1638 H   0  0  0  0  0  0  0  0  0  0  0  0
    6.8599   -0.7469   22.3350 C   0  0  0  0  0  0  0  0  0  0  0  0
    6.6663    0.2404   22.7798 H   0  0  0  0  0  0  0  0  0  0  0  0
    5.9311   -1.3239   22.3397 H   0  0  0  0  0  0  0  0  0  0  0  0
    7.9217   -1.5103   23.1012 C   0  0  2  0  0  0  0  0  0  0  0  0
    7.5883   -2.1915   23.8737 H   0  0  0  0  0  0  0  0  0  0  0  0
  1  2  1  0
  2  3  1  0
  3  4  2  0
  4  5  1  0
  4  6  1  0
  6  7  1  0
  6  8  2  0
  8  9  1  0
  8 10  1  0
 10 11  1  0
 10 12  2  0
 12 13  1  0
 13 14  1  0
 14 15  1  1
 14 16  1  0
 16 17  1  6
 16 18  1  0
 18 19  1  0
 18 20  1  0
 18 21  1  0
 21 22  1  0
 22 23  2  0
 23 24  1  0
 23 25  1  0
 25 26  2  0
 26 27  1  0
 26 28  1  0
 28 29  1  0
 28 30  2  0
 30 31  1  0
 21 32  1  0
 32 33  1  0
 32 34  1  0
 32 35  1  0
 35 36  1  1
 12  3  1  0
 35 14  1  0
 35 16  1  0
 30 22  1  0
M  END
>  <cnnaffinity>  (1) 
-5.29559

>  <filename>  (1) 
Oc1cc(Cl)ccc1O[C@@H]1[C@@H]2CN(c3cccnc3)C[C@@H]21

$$$$
