
     RDKit          3D

 30 32  0  0  0  0  0  0  0  0999 V2000
   10.2855   -4.5318   23.8836 H   0  0  0  0  0  0  0  0  0  0  0  0
    9.7448   -3.8229   23.5224 O   0  0  0  0  0  0  0  0  0  0  0  0
    8.5647   -3.8514   24.1949 C   0  0  0  0  0  0  0  0  0  0  0  0
    8.3711   -4.7382   25.2619 C   0  0  0  0  0  0  0  0  0  0  0  0
    9.1723   -5.4176   25.5590 H   0  0  0  0  0  0  0  0  0  0  0  0
    7.1557   -4.7364   25.9540 C   0  0  0  0  0  0  0  0  0  0  0  0
    7.0016   -5.4119   26.7963 H   0  0  0  0  0  0  0  0  0  0  0  0
    6.1398   -3.8556   25.5693 C   0  0  0  0  0  0  0  0  0  0  0  0
    5.1905   -3.8371   26.0927 H   0  0  0  0  0  0  0  0  0  0  0  0
    6.3409   -2.9866   24.4975 C   0  0  0  0  0  0  0  0  0  0  0  0
    5.5734   -2.2818   24.1914 H   0  0  0  0  0  0  0  0  0  0  0  0
    7.5469   -2.9677   23.7857 C   0  0  0  0  0  0  0  0  0  0  0  0
    7.6785   -2.0474   22.6533 C   0  0  0  0  0  0  0  0  0  0  0  0
    6.7345   -1.5879   21.7997 C   0  0  0  0  0  0  0  0  0  0  0  0
    5.6907   -1.8394   21.7175 H   0  0  0  0  0  0  0  0  0  0  0  0
    7.3316   -0.6719   20.9479 N   0  0  0  0  0  0  0  0  0  0  0  0
    6.6512    0.0018   19.8907 C   0  0  0  0  0  0  0  0  0  0  0  0
    7.1721    0.0418   18.5814 C   0  0  0  0  0  0  0  0  0  0  0  0
    8.1261   -0.4334   18.3582 H   0  0  0  0  0  0  0  0  0  0  0  0
    6.5527    0.6597   17.5702 N   0  0  0  0  0  0  0  0  0  0  0  0
    5.3974    1.2889   17.8367 C   0  0  0  0  0  0  0  0  0  0  0  0
    4.9334    1.7960   16.9971 H   0  0  0  0  0  0  0  0  0  0  0  0
    4.8047    1.3110   19.1041 C   0  0  0  0  0  0  0  0  0  0  0  0
    3.8759    1.8450   19.2572 H   0  0  0  0  0  0  0  0  0  0  0  0
    5.4392    0.6466   20.1548 C   0  0  0  0  0  0  0  0  0  0  0  0
    5.0399    0.6332   21.1713 H   0  0  0  0  0  0  0  0  0  0  0  0
    8.6574   -0.5121   21.3104 C   0  0  0  0  0  0  0  0  0  0  0  0
    9.8068    0.5475   20.7752 S   0  0  0  0  0  0  0  0  0  0  0  0
    8.8512   -1.4059   22.3068 N   0  0  0  0  0  0  0  0  0  0  0  0
    9.7618   -1.4771   22.7321 H   0  0  0  0  0  0  0  0  0  0  0  0
  1  2  1  0
  2  3  1  0
  3  4  2  0
  4  5  1  0
  4  6  1  0
  6  7  1  0
  6  8  2  0
  8  9  1  0
  8 10  1  0
 10 11  1  0
 10 12  2  0
 12 13  1  0
 13 14  2  0
 14 15  1  0
 14 16  1  0
 16 17  1  0
 17 18  2  0
 18 19  1  0
 18 20  1  0
 20 21  2  0
 21 22  1  0
 21 23  1  0
 23 24  1  0
 23 25  2  0
 25 26  1  0
 16 27  1  0
 27 28  2  0
 27 29  1  0
 29 30  1  0
 12  3  1  0
 29 13  1  0
 25 17  1  0
M  END
>  <cnnaffinity>  (1) 
-5.27272

>  <filename>  (1) 
Oc1ccccc1-c1cn(-c2cccnc2)c(=S)[nH]1

$$$$
