
     RDKit          3D

 32 34  0  0  0  0  0  0  0  0999 V2000
    9.9916   -1.7072   25.6977 H   0  0  0  0  0  0  0  0  0  0  0  0
    9.7279   -1.1659   24.9519 O   0  0  0  0  0  0  0  0  0  0  0  0
    8.3914   -0.9428   25.0528 C   0  0  0  0  0  0  0  0  0  0  0  0
    7.6296   -1.4783   26.1027 C   0  0  0  0  0  0  0  0  0  0  0  0
    8.1113   -2.0842   26.8735 H   0  0  0  0  0  0  0  0  0  0  0  0
    6.2549   -1.2213   26.1594 C   0  0  0  0  0  0  0  0  0  0  0  0
    5.6569   -1.6315   26.9698 H   0  0  0  0  0  0  0  0  0  0  0  0
    5.6323   -0.4355   25.1862 C   0  0  0  0  0  0  0  0  0  0  0  0
    4.5632   -0.2330   25.2180 H   0  0  0  0  0  0  0  0  0  0  0  0
    6.3986    0.0787   24.1423 C   0  0  0  0  0  0  0  0  0  0  0  0
    5.9438    0.7053   23.3822 H   0  0  0  0  0  0  0  0  0  0  0  0
    7.7749   -0.1661   24.0518 C   0  0  0  0  0  0  0  0  0  0  0  0
    8.5887    0.4338   22.9868 C   0  0  0  0  0  0  0  0  0  0  0  0
    9.6579    1.2819   23.1086 C   0  0  0  0  0  0  0  0  0  0  0  0
   10.0793    1.6082   24.0487 H   0  0  0  0  0  0  0  0  0  0  0  0
   10.0551    1.5433   21.7875 C   0  0  0  0  0  0  0  0  0  0  0  0
   10.8791    2.1548   21.4487 H   0  0  0  0  0  0  0  0  0  0  0  0
    9.3012    0.8932   20.9084 N   0  0  0  0  0  0  0  0  0  0  0  0
    8.3844    0.2402   21.6493 N   0  0  0  0  0  0  0  0  0  0  0  0
    7.4400   -0.6653   20.9821 C   0  0  0  0  0  0  0  0  0  0  0  0
    6.7707   -1.0531   21.7522 H   0  0  0  0  0  0  0  0  0  0  0  0
    8.0128   -1.5119   20.5890 H   0  0  0  0  0  0  0  0  0  0  0  0
    6.6411   -0.0023   19.8884 C   0  0  0  0  0  0  0  0  0  0  0  0
    7.1523    0.0555   18.5805 C   0  0  0  0  0  0  0  0  0  0  0  0
    8.1176   -0.4059   18.3737 H   0  0  0  0  0  0  0  0  0  0  0  0
    6.5520    0.6776   17.5602 N   0  0  0  0  0  0  0  0  0  0  0  0
    5.3931    1.2976   17.8303 C   0  0  0  0  0  0  0  0  0  0  0  0
    4.9165    1.7920   16.9875 H   0  0  0  0  0  0  0  0  0  0  0  0
    4.7987    1.3148   19.0969 C   0  0  0  0  0  0  0  0  0  0  0  0
    3.8697    1.8486   19.2504 H   0  0  0  0  0  0  0  0  0  0  0  0
    5.4310    0.6454   20.1468 C   0  0  0  0  0  0  0  0  0  0  0  0
    5.0004    0.6376   21.1540 H   0  0  0  0  0  0  0  0  0  0  0  0
  1  2  1  0
  2  3  1  0
  3  4  2  0
  4  5  1  0
  4  6  1  0
  6  7  1  0
  6  8  2  0
  8  9  1  0
  8 10  1  0
 10 11  1  0
 10 12  2  0
 12 13  1  0
 13 14  2  0
 14 15  1  0
 14 16  1  0
 16 17  1  0
 16 18  2  0
 18 19  1  0
 19 20  1  0
 20 21  1  0
 20 22  1  0
 20 23  1  0
 23 24  2  0
 24 25  1  0
 24 26  1  0
 26 27  2  0
 27 28  1  0
 27 29  1  0
 29 30  1  0
 29 31  2  0
 31 32  1  0
 12  3  1  0
 19 13  1  0
 31 23  1  0
M  END
>  <cnnaffinity>  (1) 
-4.6079

>  <filename>  (1) 
Oc1ccccc1-c1ccnn1Cc1cccnc1

$$$$
