
     RDKit          3D

 34 36  0  0  0  0  0  0  0  0999 V2000
    5.5248   -3.2790   25.4969 H   0  0  0  0  0  0  0  0  0  0  0  0
    4.6330   -3.5291   25.7744 O   0  0  0  0  0  0  0  0  0  0  0  0
    4.0437   -4.0957   24.6926 C   0  0  0  0  0  0  0  0  0  0  0  0
    2.8148   -4.7358   24.8703 C   0  0  0  0  0  0  0  0  0  0  0  0
    2.3447   -4.6943   25.8449 H   0  0  0  0  0  0  0  0  0  0  0  0
    2.2242   -5.4061   23.7977 C   0  0  0  0  0  0  0  0  0  0  0  0
    0.6859   -6.1797   24.0448 Cl  0  0  0  0  0  0  0  0  0  0  0  0
    2.8540   -5.4859   22.5568 C   0  0  0  0  0  0  0  0  0  0  0  0
    2.3951   -6.0773   21.7692 H   0  0  0  0  0  0  0  0  0  0  0  0
    4.0668   -4.8033   22.3641 C   0  0  0  0  0  0  0  0  0  0  0  0
    4.5775   -4.8464   21.4072 H   0  0  0  0  0  0  0  0  0  0  0  0
    4.6425   -4.0846   23.4114 C   0  0  0  0  0  0  0  0  0  0  0  0
    5.8508   -3.4038   23.2966 O   0  0  0  0  0  0  0  0  0  0  0  0
    6.0199   -2.5030   22.2751 C   0  0  0  0  0  0  0  0  0  0  0  0
    5.1691   -2.3550   21.6080 H   0  0  0  0  0  0  0  0  0  0  0  0
    7.1731   -1.8399   22.1685 C   0  0  0  0  0  0  0  0  0  0  0  0
    7.5743   -0.9013   21.1113 C   0  0  0  0  0  0  0  0  0  0  0  0
    6.6754   -0.3200   20.0793 C   0  0  0  0  0  0  0  0  0  0  0  0
    7.1935   -0.2374   18.7762 C   0  0  0  0  0  0  0  0  0  0  0  0
    8.1352   -0.7279   18.5390 H   0  0  0  0  0  0  0  0  0  0  0  0
    6.6096    0.4251   17.7764 N   0  0  0  0  0  0  0  0  0  0  0  0
    5.4587    1.0594   18.0454 C   0  0  0  0  0  0  0  0  0  0  0  0
    5.0258    1.6309   17.2258 H   0  0  0  0  0  0  0  0  0  0  0  0
    4.8149    0.9829   19.2828 C   0  0  0  0  0  0  0  0  0  0  0  0
    3.8769    1.5071   19.4246 H   0  0  0  0  0  0  0  0  0  0  0  0
    5.4191    0.2623   20.3167 C   0  0  0  0  0  0  0  0  0  0  0  0
    4.9284    0.2020   21.2885 H   0  0  0  0  0  0  0  0  0  0  0  0
    8.8322   -0.6373   21.1130 N   0  0  0  0  0  0  0  0  0  0  0  0
    9.4889   -1.3013   22.2405 C   0  0  0  0  0  0  0  0  0  0  0  0
   10.0204   -0.5548   22.8430 H   0  0  0  0  0  0  0  0  0  0  0  0
   10.2328   -1.9982   21.8372 H   0  0  0  0  0  0  0  0  0  0  0  0
    8.3996   -2.0420   23.0538 C   0  0  0  0  0  0  0  0  0  0  0  0
    8.6342   -3.1025   23.2046 H   0  0  0  0  0  0  0  0  0  0  0  0
    8.2705   -1.5860   24.0432 H   0  0  0  0  0  0  0  0  0  0  0  0
  1  2  1  0
  2  3  1  0
  3  4  2  0
  4  5  1  0
  4  6  1  0
  6  7  1  0
  6  8  2  0
  8  9  1  0
  8 10  1  0
 10 11  1  0
 10 12  2  0
 12 13  1  0
 13 14  1  0
 14 15  1  0
 14 16  2  3
 16 17  1  0
 17 18  1  0
 18 19  2  0
 19 20  1  0
 19 21  1  0
 21 22  2  0
 22 23  1  0
 22 24  1  0
 24 25  1  0
 24 26  2  0
 26 27  1  0
 17 28  2  0
 28 29  1  0
 29 30  1  0
 29 31  1  0
 29 32  1  0
 32 33  1  0
 32 34  1  0
 12  3  1  0
 32 16  1  0
 26 18  1  0
M  END
>  <cnnaffinity>  (1) 
-5.24176

>  <filename>  (1) 
Oc1cc(Cl)ccc1OC=C1CCN=C1c1cccnc1

$$$$
