
     RDKit          3D

 29 31  0  0  0  0  0  0  0  0999 V2000
    6.1891   -2.4532   27.4516 O   0  0  0  0  0  0  0  0  0  0  0  0
    6.9055   -2.7906   26.3541 C   0  0  0  0  0  0  0  0  0  0  0  0
    7.5996   -3.9987   26.4376 C   0  0  0  0  0  0  0  0  0  0  0  0
    8.3707   -4.4520   25.3760 C   0  0  0  0  0  0  0  0  0  0  0  0
    8.4541   -3.7119   24.2040 C   0  0  0  0  0  0  0  0  0  0  0  0
    7.7634   -2.4983   24.0673 C   0  0  0  0  0  0  0  0  0  0  0  0
    7.8517   -1.7919   22.7770 C   0  0  0  0  0  0  0  0  0  0  0  0
    6.8519   -1.1924   22.0613 C   0  0  0  0  0  0  0  0  0  0  0  0
    7.3792   -0.6858   20.9231 N   0  0  0  0  0  0  0  0  0  0  0  0
    6.6735    0.0076   19.9088 C   0  0  0  0  0  0  0  0  0  0  0  0
    5.4482    0.6448   20.1711 C   0  0  0  0  0  0  0  0  0  0  0  0
    4.8165    1.3032   19.1131 C   0  0  0  0  0  0  0  0  0  0  0  0
    5.4053    1.2875   17.8449 C   0  0  0  0  0  0  0  0  0  0  0  0
    6.5695    0.6656   17.5914 N   0  0  0  0  0  0  0  0  0  0  0  0
    7.1886    0.0546   18.6039 C   0  0  0  0  0  0  0  0  0  0  0  0
    8.1322   -0.4297   18.3740 H   0  0  0  0  0  0  0  0  0  0  0  0
    4.9253    1.7780   16.9998 H   0  0  0  0  0  0  0  0  0  0  0  0
    3.8840    1.8346   19.2644 H   0  0  0  0  0  0  0  0  0  0  0  0
    5.0112    0.6442   21.1726 H   0  0  0  0  0  0  0  0  0  0  0  0
    8.7027   -0.9460   20.8383 N   0  0  0  0  0  0  0  0  0  0  0  0
    8.9863   -1.6068   21.9469 C   0  0  0  0  0  0  0  0  0  0  0  0
    9.9959   -1.9423   22.1438 H   0  0  0  0  0  0  0  0  0  0  0  0
    5.8048   -1.1181   22.2787 H   0  0  0  0  0  0  0  0  0  0  0  0
    7.0041   -2.0342   25.1700 C   0  0  0  0  0  0  0  0  0  0  0  0
    6.1839   -0.4850   25.1230 Cl  0  0  0  0  0  0  0  0  0  0  0  0
    9.0502   -4.0695   23.3696 H   0  0  0  0  0  0  0  0  0  0  0  0
    8.9099   -5.3855   25.4639 H   0  0  0  0  0  0  0  0  0  0  0  0
    7.5137   -4.5555   27.3594 H   0  0  0  0  0  0  0  0  0  0  0  0
    5.7461   -1.6116   27.2902 H   0  0  0  0  0  0  0  0  0  0  0  0
  1  2  1  0
  2  3  2  0
  3  4  1  0
  4  5  2  0
  5  6  1  0
  6  7  1  0
  7  8  2  0
  8  9  1  0
  9 10  1  0
 10 11  2  0
 11 12  1  0
 12 13  2  0
 13 14  1  0
 14 15  2  0
 15 16  1  0
 13 17  1  0
 12 18  1  0
 11 19  1  0
  9 20  1  0
 20 21  2  0
 21 22  1  0
  8 23  1  0
  6 24  2  0
 24 25  1  0
  5 26  1  0
  4 27  1  0
  3 28  1  0
  1 29  1  0
 24  2  1  0
 21  7  1  0
 15 10  1  0
M  END
>  <cnnaffinity>  (1) 
-5.36222

>  <filename>  (1) 
Oc1cccc(-c2cnn(-c3cccnc3)c2)c1Cl

$$$$
