
     RDKit          3D

 34 36  0  0  0  0  0  0  0  0999 V2000
   12.0401   -0.5621   21.5610 H   0  0  0  0  0  0  0  0  0  0  0  0
   11.2113   -0.0695   21.5992 O   0  0  0  0  0  0  0  0  0  0  0  0
   10.8605    0.1433   22.8592 C   0  0  0  0  0  0  0  0  0  0  0  0
   11.7290    1.1708   24.7174 C   0  0  0  0  0  0  0  0  0  0  0  0
   12.1266    1.8190   23.7472 H   0  0  0  0  0  0  0  0  0  0  0  0
   11.4336    1.2618   24.5561 C   0  0  0  0  0  0  0  0  0  0  0  0
   13.3880    0.3370   25.2869 Cl  0  0  0  0  0  0  0  0  0  0  0  0
   10.4150    0.9056   25.3879 C   0  0  0  0  0  0  0  0  0  0  0  0
   10.0897    1.5712   26.1829 H   0  0  0  0  0  0  0  0  0  0  0  0
    9.4556   -0.0038   24.7990 C   0  0  0  0  0  0  0  0  0  0  0  0
    8.5684   -0.3162   25.3451 H   0  0  0  0  0  0  0  0  0  0  0  0
    9.7736   -0.4609   23.4886 C   0  0  0  0  0  0  0  0  0  0  0  0
    9.1645   -1.5371   22.8686 O   0  0  0  0  0  0  0  0  0  0  0  0
    7.7841   -1.4581   22.5174 C   0  0  1  0  0  0  0  0  0  0  0  0
    7.2358   -1.1691   23.4330 H   0  0  0  0  0  0  0  0  0  0  0  0
    7.4184   -0.5441   21.4001 C   0  0  0  0  0  0  0  0  0  0  0  0
    7.6420    0.5013   21.4994 H   0  0  0  0  0  0  0  0  0  0  0  0
    6.7614   -0.9969   20.3154 C   0  0  0  0  0  0  0  0  0  0  0  0
    6.2684   -0.1420   19.2213 C   0  0  0  0  0  0  0  0  0  0  0  0
    6.6158   -0.3838   17.8814 C   0  0  0  0  0  0  0  0  0  0  0  0
    7.2657   -1.2188   17.6167 H   0  0  0  0  0  0  0  0  0  0  0  0
    6.2312    0.3929   16.8615 N   0  0  0  0  0  0  0  0  0  0  0  0
    5.4457    1.4445   17.1388 C   0  0  0  0  0  0  0  0  0  0  0  0
    5.1390    2.0573   16.2927 H   0  0  0  0  0  0  0  0  0  0  0  0
    5.0315    1.7738   18.4323 C   0  0  0  0  0  0  0  0  0  0  0  0
    4.4061    2.6483   18.5853 H   0  0  0  0  0  0  0  0  0  0  0  0
    5.4616    0.9759   19.4916 C   0  0  0  0  0  0  0  0  0  0  0  0
    5.1715    1.2019   20.5179 H   0  0  0  0  0  0  0  0  0  0  0  0
    6.4885   -2.3515   20.2037 N   0  0  0  0  0  0  0  0  0  0  0  0
    6.0820   -2.7407   19.3718 H   0  0  0  0  0  0  0  0  0  0  0  0
    6.9265   -3.3019   21.0745 C   0  0  0  0  0  0  0  0  0  0  0  0
    6.7632   -4.9158   20.7442 S   0  0  0  0  0  0  0  0  0  0  0  0
    7.5222   -2.8333   22.1791 N   0  0  0  0  0  0  0  0  0  0  0  0
    8.1199   -3.4911   22.6463 H   0  0  0  0  0  0  0  0  0  0  0  0
  1  2  1  0
  2  3  1  0
  3  4  2  0
  4  5  1  0
  4  6  1  0
  6  7  1  0
  6  8  2  0
  8  9  1  0
  8 10  1  0
 10 11  1  0
 10 12  2  0
 12 13  1  0
 13 14  1  0
 14 15  1  1
 14 16  1  0
 16 17  1  0
 16 18  2  0
 18 19  1  0
 19 20  2  0
 20 21  1  0
 20 22  1  0
 22 23  2  0
 23 24  1  0
 23 25  1  0
 25 26  1  0
 25 27  2  0
 27 28  1  0
 18 29  1  0
 29 30  1  0
 29 31  1  0
 31 32  2  0
 31 33  1  0
 33 34  1  0
 12  3  1  0
 33 14  1  0
 27 19  1  0
M  END
>  <cnnaffinity>  (1) 
-4.74939

>  <filename>  (1) 
Oc1cc(Cl)ccc1O[C@H]1C=C(c2cccnc2)NC(=S)N1

$$$$
