
     RDKit          3D

 38 40  0  0  0  0  0  0  0  0999 V2000
    5.8930    1.0333   23.9014 H   0  0  0  0  0  0  0  0  0  0  0  0
    5.4745    0.7100   24.7175 O   0  0  0  0  0  0  0  0  0  0  0  0
    5.7100   -0.6322   24.7863 C   0  0  0  0  0  0  0  0  0  0  0  0
    4.7536   -1.3773   25.4880 C   0  0  0  0  0  0  0  0  0  0  0  0
    3.9302   -0.8314   25.9387 H   0  0  0  0  0  0  0  0  0  0  0  0
    4.8646   -2.7640   25.5608 C   0  0  0  0  0  0  0  0  0  0  0  0
    3.5390   -3.6808   26.2052 Cl  0  0  0  0  0  0  0  0  0  0  0  0
    6.0020   -3.4201   25.0804 C   0  0  0  0  0  0  0  0  0  0  0  0
    6.0939   -4.4868   25.2262 H   0  0  0  0  0  0  0  0  0  0  0  0
    7.0015   -2.6689   24.4535 C   0  0  0  0  0  0  0  0  0  0  0  0
    7.9227   -3.1236   24.1016 H   0  0  0  0  0  0  0  0  0  0  0  0
    6.8135   -1.3085   24.2240 C   0  0  0  0  0  0  0  0  0  0  0  0
    7.8360   -0.6941   23.4631 O   0  0  0  0  0  0  0  0  0  0  0  0
    7.3397    0.1560   22.4581 N   0  0  0  0  0  0  0  0  0  0  0  0
    8.3851    1.2154   22.3351 C   0  0  0  0  0  0  0  0  0  0  0  0
    8.3645    1.7281   23.3010 H   0  0  0  0  0  0  0  0  0  0  0  0
    8.0633    1.9044   21.5399 H   0  0  0  0  0  0  0  0  0  0  0  0
    9.7781    0.6188   22.0861 C   0  0  0  0  0  0  0  0  0  0  0  0
   10.5258    1.4178   22.0189 H   0  0  0  0  0  0  0  0  0  0  0  0
   10.0016   -0.0113   22.9582 H   0  0  0  0  0  0  0  0  0  0  0  0
    9.7705   -0.2538   20.8244 C   0  0  0  0  0  0  0  0  0  0  0  0
    9.5887    0.3857   19.9517 H   0  0  0  0  0  0  0  0  0  0  0  0
   10.7400   -0.7408   20.6750 H   0  0  0  0  0  0  0  0  0  0  0  0
    8.6577   -1.3148   20.9214 C   0  0  0  0  0  0  0  0  0  0  0  0
    8.5996   -1.9040   20.0088 H   0  0  0  0  0  0  0  0  0  0  0  0
    8.8779   -2.0035   21.7450 H   0  0  0  0  0  0  0  0  0  0  0  0
    7.2644   -0.7062   21.2091 C   0  0  2  0  0  0  0  0  0  0  0  0
    6.5922   -1.5265   21.5063 H   0  0  0  0  0  0  0  0  0  0  0  0
    6.6114    0.0153   20.0295 C   0  0  0  0  0  0  0  0  0  0  0  0
    7.1690    0.0267   18.7362 C   0  0  0  0  0  0  0  0  0  0  0  0
    8.1089   -0.4833   18.5413 H   0  0  0  0  0  0  0  0  0  0  0  0
    6.6281    0.6348   17.6721 N   0  0  0  0  0  0  0  0  0  0  0  0
    5.4673    1.2761   17.8597 C   0  0  0  0  0  0  0  0  0  0  0  0
    5.0528    1.7721   16.9852 H   0  0  0  0  0  0  0  0  0  0  0  0
    4.8024    1.3158   19.0916 C   0  0  0  0  0  0  0  0  0  0  0  0
    3.8618    1.8537   19.1724 H   0  0  0  0  0  0  0  0  0  0  0  0
    5.3771    0.6690   20.1876 C   0  0  0  0  0  0  0  0  0  0  0  0
    4.8861    0.6761   21.1657 H   0  0  0  0  0  0  0  0  0  0  0  0
  1  2  1  0
  2  3  1  0
  3  4  2  0
  4  5  1  0
  4  6  1  0
  6  7  1  0
  6  8  2  0
  8  9  1  0
  8 10  1  0
 10 11  1  0
 10 12  2  0
 12 13  1  0
 13 14  1  0
 14 15  1  0
 15 16  1  0
 15 17  1  0
 15 18  1  0
 18 19  1  0
 18 20  1  0
 18 21  1  0
 21 22  1  0
 21 23  1  0
 21 24  1  0
 24 25  1  0
 24 26  1  0
 24 27  1  0
 27 28  1  1
 27 29  1  0
 29 30  2  0
 30 31  1  0
 30 32  1  0
 32 33  2  0
 33 34  1  0
 33 35  1  0
 35 36  1  0
 35 37  2  0
 37 38  1  0
 12  3  1  0
 27 14  1  0
 37 29  1  0
M  END
>  <cnnaffinity>  (1) 
-5.04571

>  <filename>  (1) 
Oc1cc(Cl)ccc1ON1CCCC[C@@H]1c1cccnc1

$$$$
