
     RDKit          3D

 40 43  0  0  0  0  0  0  0  0999 V2000
    8.3586    0.9656   25.5536 H   0  0  0  0  0  0  0  0  0  0  0  0
    8.3298    0.6574   24.6408 O   0  0  0  0  0  0  0  0  0  0  0  0
    8.0890    1.7239   23.8287 C   0  0  0  0  0  0  0  0  0  0  0  0
    7.8385    2.9904   24.3638 C   0  0  0  0  0  0  0  0  0  0  0  0
    7.8280    3.1440   25.4379 H   0  0  0  0  0  0  0  0  0  0  0  0
    7.5984    4.0718   23.5141 C   0  0  0  0  0  0  0  0  0  0  0  0
    7.2770    5.6356   24.1947 Cl  0  0  0  0  0  0  0  0  0  0  0  0
    7.6262    3.9183   22.1327 C   0  0  0  0  0  0  0  0  0  0  0  0
    7.4514    4.7735   21.4900 H   0  0  0  0  0  0  0  0  0  0  0  0
    7.8868    2.6563   21.6021 C   0  0  0  0  0  0  0  0  0  0  0  0
    7.9417    2.4515   20.5393 H   0  0  0  0  0  0  0  0  0  0  0  0
    8.1048    1.5540   22.4235 C   0  0  0  0  0  0  0  0  0  0  0  0
    8.4732    0.3848   21.8167 O   0  0  0  0  0  0  0  0  0  0  0  0
    7.4842   -0.5032   21.2333 C   0  0  1  0  0  0  0  0  0  0  0  0
    6.6641    0.1735   20.1270 C   0  0  0  0  0  0  0  0  0  0  0  0
    7.2544    0.2666   18.8484 C   0  0  0  0  0  0  0  0  0  0  0  0
    8.2482   -0.1442   18.6703 H   0  0  0  0  0  0  0  0  0  0  0  0
    6.6851    0.8001   17.7645 N   0  0  0  0  0  0  0  0  0  0  0  0
    5.4594    1.3171   17.9211 C   0  0  0  0  0  0  0  0  0  0  0  0
    5.0061    1.7359   17.0253 H   0  0  0  0  0  0  0  0  0  0  0  0
    4.7813    1.3233   19.1420 C   0  0  0  0  0  0  0  0  0  0  0  0
    3.8030    1.7877   19.1986 H   0  0  0  0  0  0  0  0  0  0  0  0
    5.3891    0.7472   20.2689 C   0  0  0  0  0  0  0  0  0  0  0  0
    4.8870    0.7737   21.2382 H   0  0  0  0  0  0  0  0  0  0  0  0
    8.3398   -1.6757   20.6669 C   0  0  0  0  0  0  0  0  0  0  0  0
    7.8858   -1.9191   19.7113 H   0  0  0  0  0  0  0  0  0  0  0  0
    9.3736   -1.3620   20.5150 H   0  0  0  0  0  0  0  0  0  0  0  0
    8.1779   -2.8376   21.6678 C   0  0  2  0  0  0  0  0  0  0  0  0
    9.0398   -3.5064   21.7145 H   0  0  0  0  0  0  0  0  0  0  0  0
    6.8295   -3.5168   21.3690 C   0  0  0  0  0  0  0  0  0  0  0  0
    6.7009   -4.4217   21.9749 H   0  0  0  0  0  0  0  0  0  0  0  0
    6.7242   -3.8214   20.3221 H   0  0  0  0  0  0  0  0  0  0  0  0
    5.8269   -2.3899   21.7623 C   0  0  0  0  0  0  0  0  0  0  0  0
    5.0993   -2.7601   22.4862 H   0  0  0  0  0  0  0  0  0  0  0  0
    5.2785   -2.0315   20.8908 H   0  0  0  0  0  0  0  0  0  0  0  0
    6.7221   -1.2651   22.3577 C   0  0  1  0  0  0  0  0  0  0  0  0
    6.2117   -0.5909   23.0454 H   0  0  0  0  0  0  0  0  0  0  0  0
    7.8543   -2.1023   22.9758 C   0  0  0  0  0  0  0  0  0  0  0  0
    7.5258   -2.7708   23.7815 H   0  0  0  0  0  0  0  0  0  0  0  0
    8.6659   -1.4772   23.3452 H   0  0  0  0  0  0  0  0  0  0  0  0
  1  2  1  0
  2  3  1  0
  3  4  2  0
  4  5  1  0
  4  6  1  0
  6  7  1  0
  6  8  2  0
  8  9  1  0
  8 10  1  0
 10 11  1  0
 10 12  2  0
 12 13  1  0
 14 13  1  1
 14 15  1  0
 15 16  2  0
 16 17  1  0
 16 18  1  0
 18 19  2  0
 19 20  1  0
 19 21  1  0
 21 22  1  0
 21 23  2  0
 23 24  1  0
 14 25  1  0
 25 26  1  0
 25 27  1  0
 25 28  1  0
 28 29  1  1
 28 30  1  0
 30 31  1  0
 30 32  1  0
 30 33  1  0
 33 34  1  0
 33 35  1  0
 33 36  1  0
 36 37  1  1
 36 38  1  0
 38 39  1  0
 38 40  1  0
 12  3  1  0
 36 14  1  0
 23 15  1  0
 38 28  1  0
M  END
>  <cnnaffinity>  (1) 
-5.11146

>  <filename>  (1) 
Oc1cc(Cl)ccc1O[C@@]1(c2cccnc2)C[C@@H]2CC[C@H]1C2

$$$$
