
     RDKit          3D

 29 31  0  0  0  0  0  0  0  0999 V2000
    8.1446   -3.2519   28.2296 H   0  0  0  0  0  0  0  0  0  0  0  0
    7.8351   -2.5340   27.3061 O   0  0  0  0  0  0  0  0  0  0  0  0
    7.8351   -2.5340   27.3061 C   0  0  0  0  0  0  0  0  0  0  0  0
    6.7375   -1.9194   26.4723 C   0  0  0  0  0  0  0  0  0  0  0  0
    5.9762   -1.5173   27.0575 H   0  0  0  0  0  0  0  0  0  0  0  0
    6.7970   -1.4953   25.1273 C   0  0  0  0  0  0  0  0  0  0  0  0
    6.0391   -0.9256   24.6794 H   0  0  0  0  0  0  0  0  0  0  0  0
    7.8813   -1.9082   24.3302 C   0  0  0  0  0  0  0  0  0  0  0  0
    7.9254   -1.5426   22.8893 C   0  0  0  0  0  0  0  0  0  0  0  0
    6.9416   -0.7978   22.2688 N   0  0  0  0  0  0  0  0  0  0  0  0
    7.3530   -0.6923   20.9925 C   0  0  0  0  0  0  0  0  0  0  0  0
    6.6419    0.0168   19.9105 C   0  0  0  0  0  0  0  0  0  0  0  0
    7.1804    0.0453   18.6231 C   0  0  0  0  0  0  0  0  0  0  0  0
    8.1368   -0.4367   18.3756 H   0  0  0  0  0  0  0  0  0  0  0  0
    6.5686    0.6687   17.6069 N   0  0  0  0  0  0  0  0  0  0  0  0
    5.4020    1.2854   17.8440 C   0  0  0  0  0  0  0  0  0  0  0  0
    4.9372    1.7769   16.9966 H   0  0  0  0  0  0  0  0  0  0  0  0
    4.8098    1.3091   19.1071 C   0  0  0  0  0  0  0  0  0  0  0  0
    3.8774    1.8424   19.2450 H   0  0  0  0  0  0  0  0  0  0  0  0
    5.4393    0.6525   20.1554 C   0  0  0  0  0  0  0  0  0  0  0  0
    5.0055    0.6376   21.1601 H   0  0  0  0  0  0  0  0  0  0  0  0
    8.5057   -1.3095   20.7712 O   0  0  0  0  0  0  0  0  0  0  0  0
    8.8779   -1.8486   21.9567 C   0  0  0  0  0  0  0  0  0  0  0  0
    9.7963   -2.3970   21.9950 H   0  0  0  0  0  0  0  0  0  0  0  0
    8.8862   -2.6517   24.9277 C   0  0  0  0  0  0  0  0  0  0  0  0
    9.7400   -3.0104   24.3328 H   0  0  0  0  0  0  0  0  0  0  0  0
    8.7516   -3.0493   26.2966 C   0  0  0  0  0  0  0  0  0  0  0  0
    9.8070   -3.7818   26.7824 O   0  0  0  0  0  0  0  0  0  0  0  0
   10.4808   -3.9329   26.1305 H   0  0  0  0  0  0  0  0  0  0  0  0
  1  2  1  0
  2  3  1  0
  3  4  2  0
  4  5  1  0
  4  6  1  0
  6  7  1  0
  6  8  2  0
  8  9  1  0
  9 10  1  0
 10 11  2  0
 11 12  1  0
 12 13  2  0
 13 14  1  0
 13 15  1  0
 15 16  2  0
 16 17  1  0
 16 18  1  0
 18 19  1  0
 18 20  2  0
 20 21  1  0
 11 22  1  0
 22 23  1  0
 23 24  1  0
  8 25  1  0
 25 26  1  0
 25 27  2  0
 27 28  1  0
 28 29  1  0
 27  3  1  0
 23  9  2  0
 20 12  1  0
M  END
>  <cnnaffinity>  (1) 
-4.89582

>  <filename>  (1) 
Oc1ccc(-c2coc(-c3cccnc3)n2)cc1O

$$$$
