
     RDKit          3D

 29 31  0  0  0  0  0  0  0  0999 V2000
    5.6618    3.2952   26.1899 H   0  0  0  0  0  0  0  0  0  0  0  0
    5.7619    2.3671   25.9424 O   0  0  0  0  0  0  0  0  0  0  0  0
    6.3514    2.3409   24.7189 C   0  0  0  0  0  0  0  0  0  0  0  0
    6.6093    3.5248   24.0212 C   0  0  0  0  0  0  0  0  0  0  0  0
    6.3346    4.4742   24.4699 H   0  0  0  0  0  0  0  0  0  0  0  0
    7.1883    3.4670   22.7508 C   0  0  0  0  0  0  0  0  0  0  0  0
    7.3709    4.3811   22.1950 H   0  0  0  0  0  0  0  0  0  0  0  0
    7.5223    2.2434   22.1768 C   0  0  0  0  0  0  0  0  0  0  0  0
    7.9327    2.1785   21.1741 H   0  0  0  0  0  0  0  0  0  0  0  0
    7.2849    1.0635   22.8965 C   0  0  0  0  0  0  0  0  0  0  0  0
    7.6221   -0.1941   22.3099 N   0  0  0  0  0  0  0  0  0  0  0  0
    8.2642   -1.1293   23.0453 N   0  0  0  0  0  0  0  0  0  0  0  0
    8.2966   -2.2069   22.2856 C   0  0  0  0  0  0  0  0  0  0  0  0
    8.7524   -3.1083   22.6714 H   0  0  0  0  0  0  0  0  0  0  0  0
    7.6698   -1.9893   21.0474 C   0  0  0  0  0  0  0  0  0  0  0  0
    7.4140   -2.6969   20.2855 H   0  0  0  0  0  0  0  0  0  0  0  0
    7.2740   -0.6780   21.0658 C   0  0  0  0  0  0  0  0  0  0  0  0
    6.5987    0.0698   19.9789 C   0  0  0  0  0  0  0  0  0  0  0  0
    7.1426    0.0794   18.6796 C   0  0  0  0  0  0  0  0  0  0  0  0
    8.0955   -0.4123   18.4831 H   0  0  0  0  0  0  0  0  0  0  0  0
    6.5797    0.6866   17.6253 N   0  0  0  0  0  0  0  0  0  0  0  0
    5.4098    1.3150   17.8202 C   0  0  0  0  0  0  0  0  0  0  0  0
    4.9533    1.7894   16.9477 H   0  0  0  0  0  0  0  0  0  0  0  0
    4.7730    1.3565   19.0647 C   0  0  0  0  0  0  0  0  0  0  0  0
    3.8206    1.8611   19.1584 H   0  0  0  0  0  0  0  0  0  0  0  0
    5.3770    0.7351   20.1575 C   0  0  0  0  0  0  0  0  0  0  0  0
    4.9300    0.7739   21.1509 H   0  0  0  0  0  0  0  0  0  0  0  0
    6.6964    1.1070   24.1689 C   0  0  0  0  0  0  0  0  0  0  0  0
    6.5047    0.1980   24.7275 H   0  0  0  0  0  0  0  0  0  0  0  0
  1  2  1  0
  2  3  1  0
  3  4  2  0
  4  5  1  0
  4  6  1  0
  6  7  1  0
  6  8  2  0
  8  9  1  0
  8 10  1  0
 10 11  1  0
 11 12  1  0
 12 13  2  0
 13 14  1  0
 13 15  1  0
 15 16  1  0
 15 17  2  0
 17 18  1  0
 18 19  2  0
 19 20  1  0
 19 21  1  0
 21 22  2  0
 22 23  1  0
 22 24  1  0
 24 25  1  0
 24 26  2  0
 26 27  1  0
 10 28  2  0
 28 29  1  0
 28  3  1  0
 17 11  1  0
 26 18  1  0
M  END
>  <cnnaffinity>  (1) 
-4.71804

>  <filename>  (1) 
Oc1cccc(-n2nccc2-c2cccnc2)c1

$$$$
