
     RDKit          3D

 36 38  0  0  0  0  0  0  0  0999 V2000
    8.6199   -3.3769   26.7028 O   0  0  0  0  0  0  0  0  0  0  0  0
    7.8245   -3.9309   25.7691 C   0  0  0  0  0  0  0  0  0  0  0  0
    7.3143   -5.1881   26.0726 C   0  0  0  0  0  0  0  0  0  0  0  0
    6.4785   -5.7872   25.1488 C   0  0  0  0  0  0  0  0  0  0  0  0
    6.1963   -5.2486   23.9561 N   0  0  0  0  0  0  0  0  0  0  0  0
    6.6992   -4.0378   23.6957 C   0  0  0  0  0  0  0  0  0  0  0  0
    7.4877   -3.2773   24.5712 C   0  0  0  0  0  0  0  0  0  0  0  0
    7.8409   -1.8038   24.3007 C   0  0  0  0  0  0  0  0  0  0  0  0
    7.8091   -1.3673   22.8661 C   0  0  0  0  0  0  0  0  0  0  0  0
    6.8872   -0.6523   22.2536 N   0  0  0  0  0  0  0  0  0  0  0  0
    7.3421   -0.5814   20.9787 C   0  0  0  0  0  0  0  0  0  0  0  0
    6.6123    0.0826   19.9061 C   0  0  0  0  0  0  0  0  0  0  0  0
    5.3808    0.7250   20.1084 C   0  0  0  0  0  0  0  0  0  0  0  0
    4.7847    1.3470   19.0159 C   0  0  0  0  0  0  0  0  0  0  0  0
    5.4265    1.2966   17.7726 C   0  0  0  0  0  0  0  0  0  0  0  0
    6.5883    0.6579   17.5656 N   0  0  0  0  0  0  0  0  0  0  0  0
    7.1625    0.0673   18.6158 C   0  0  0  0  0  0  0  0  0  0  0  0
    8.1033   -0.4466   18.4251 H   0  0  0  0  0  0  0  0  0  0  0  0
    4.9888    1.7862   16.9064 H   0  0  0  0  0  0  0  0  0  0  0  0
    3.8467    1.8818   19.1136 H   0  0  0  0  0  0  0  0  0  0  0  0
    4.9109    0.7344   21.0952 H   0  0  0  0  0  0  0  0  0  0  0  0
    8.4996   -1.1879   20.7784 N   0  0  0  0  0  0  0  0  0  0  0  0
    8.7776   -1.7103   21.9909 N   0  0  0  0  0  0  0  0  0  0  0  0
   10.0215   -2.4245   22.1369 C   0  0  0  0  0  0  0  0  0  0  0  0
   11.1992   -1.4891   22.3010 C   0  0  0  0  0  0  0  0  0  0  0  0
   11.0977   -0.8286   23.4933 F   0  0  0  0  0  0  0  0  0  0  0  0
   12.3310   -2.2411   22.3291 F   0  0  0  0  0  0  0  0  0  0  0  0
   11.2874   -0.7547   21.4967 H   0  0  0  0  0  0  0  0  0  0  0  0
    9.9811   -3.1237   22.9765 H   0  0  0  0  0  0  0  0  0  0  0  0
   10.1543   -2.9563   21.2022 H   0  0  0  0  0  0  0  0  0  0  0  0
    7.1479   -1.1254   24.8145 H   0  0  0  0  0  0  0  0  0  0  0  0
    8.8441   -1.5753   24.6912 H   0  0  0  0  0  0  0  0  0  0  0  0
    6.4230   -3.6136   22.7330 H   0  0  0  0  0  0  0  0  0  0  0  0
    5.9951   -6.7366   25.3720 H   0  0  0  0  0  0  0  0  0  0  0  0
    7.5499   -5.6179   27.0384 H   0  0  0  0  0  0  0  0  0  0  0  0
    8.7408   -2.4486   26.4831 H   0  0  0  0  0  0  0  0  0  0  0  0
  1  2  1  0
  2  3  2  0
  3  4  1  0
  4  5  2  0
  5  6  1  0
  6  7  2  0
  7  8  1  0
  8  9  1  0
  9 10  2  0
 10 11  1  0
 11 12  1  0
 12 13  2  0
 13 14  1  0
 14 15  2  0
 15 16  1  0
 16 17  2  0
 17 18  1  0
 15 19  1  0
 14 20  1  0
 13 21  1  0
 11 22  2  0
 22 23  1  0
 23 24  1  0
 24 25  1  0
 25 26  1  0
 25 27  1  0
 25 28  1  0
 24 29  1  0
 24 30  1  0
  8 31  1  0
  8 32  1  0
  6 33  1  0
  4 34  1  0
  3 35  1  0
  1 36  1  0
  7  2  1  0
 23  9  1  0
 17 12  1  0
M  END
>  <cnnaffinity>  (1) 
-5.77046

>  <filename>  (1) 
Oc1ccncc1Cc1nc(-c2cccnc2)nn1CC(F)F

$$$$
