
     RDKit          3D

 40 44  0  0  0  0  0  0  0  0999 V2000
    5.4766   -1.1623   26.5783 O   0  0  0  0  0  0  0  0  0  0  0  0
    5.7331    0.0072   25.9868 C   0  0  0  0  0  0  0  0  0  0  0  0
    5.4045    1.2214   26.6487 C   0  0  0  0  0  0  0  0  0  0  0  0
    5.6915    2.3897   25.9991 C   0  0  0  0  0  0  0  0  0  0  0  0
    6.3101    2.3322   24.7024 C   0  0  0  0  0  0  0  0  0  0  0  0
    6.6204    3.5003   23.9627 C   0  0  0  0  0  0  0  0  0  0  0  0
    7.2122    3.3959   22.7145 C   0  0  0  0  0  0  0  0  0  0  0  0
    7.5037    2.1339   22.1641 C   0  0  0  0  0  0  0  0  0  0  0  0
    7.2026    0.9625   22.8578 C   0  0  0  0  0  0  0  0  0  0  0  0
    7.5032   -0.3439   22.2866 C   0  0  0  0  0  0  0  0  0  0  0  0
    8.1348   -1.3186   22.8960 N   0  0  0  0  0  0  0  0  0  0  0  0
    8.3048   -2.2380   21.9282 C   0  0  0  0  0  0  0  0  0  0  0  0
    8.9364   -3.5306   22.2507 C   0  0  0  0  0  0  0  0  0  0  0  0
    8.4014   -4.4003   23.3556 C   0  0  0  0  0  0  0  0  0  0  0  0
    8.2110   -4.8079   21.9236 C   0  0  0  0  0  0  0  0  0  0  0  0
    7.2261   -4.6705   21.4812 H   0  0  0  0  0  0  0  0  0  0  0  0
    8.7462   -5.6721   21.5426 H   0  0  0  0  0  0  0  0  0  0  0  0
    9.1488   -4.9333   23.9398 H   0  0  0  0  0  0  0  0  0  0  0  0
    7.5499   -4.0383   23.9283 H   0  0  0  0  0  0  0  0  0  0  0  0
   10.0172   -3.4297   22.2270 H   0  0  0  0  0  0  0  0  0  0  0  0
    7.8722   -1.8927   20.7301 N   0  0  0  0  0  0  0  0  0  0  0  0
    7.3394   -0.6637   20.9513 N   0  0  0  0  0  0  0  0  0  0  0  0
    6.6350    0.0041   19.9098 C   0  0  0  0  0  0  0  0  0  0  0  0
    5.4164    0.6503   20.1512 C   0  0  0  0  0  0  0  0  0  0  0  0
    4.7978    1.3054   19.0840 C   0  0  0  0  0  0  0  0  0  0  0  0
    5.4111    1.2890   17.8279 C   0  0  0  0  0  0  0  0  0  0  0  0
    6.5709    0.6512   17.5883 N   0  0  0  0  0  0  0  0  0  0  0  0
    7.1618    0.0182   18.6054 C   0  0  0  0  0  0  0  0  0  0  0  0
    8.1043   -0.4839   18.3909 H   0  0  0  0  0  0  0  0  0  0  0  0
    4.9617    1.8046   16.9824 H   0  0  0  0  0  0  0  0  0  0  0  0
    3.8645    1.8408   19.2206 H   0  0  0  0  0  0  0  0  0  0  0  0
    4.9879    0.6606   21.1540 H   0  0  0  0  0  0  0  0  0  0  0  0
    6.6100    1.0310   24.1514 C   0  0  0  0  0  0  0  0  0  0  0  0
    6.2892   -0.1173   24.8152 N   0  0  0  0  0  0  0  0  0  0  0  0
    7.9517    2.0732   21.1728 H   0  0  0  0  0  0  0  0  0  0  0  0
    7.4506    4.2853   22.1369 H   0  0  0  0  0  0  0  0  0  0  0  0
    6.3798    4.4713   24.3911 H   0  0  0  0  0  0  0  0  0  0  0  0
    5.4714    3.3753   26.4227 H   0  0  0  0  0  0  0  0  0  0  0  0
    4.9531    1.1431   27.6320 H   0  0  0  0  0  0  0  0  0  0  0  0
    5.8300   -1.7371   25.8757 H   0  0  0  0  0  0  0  0  0  0  0  0
  1  2  1  0
  2  3  2  0
  3  4  1  0
  4  5  2  0
  5  6  1  0
  6  7  2  0
  7  8  1  0
  8  9  2  0
  9 10  1  0
 10 11  2  0
 11 12  1  0
 12 13  1  0
 13 14  1  0
 14 15  1  0
 15 16  1  0
 15 17  1  0
 14 18  1  0
 14 19  1  0
 13 20  1  0
 12 21  2  0
 21 22  1  0
 22 23  1  0
 23 24  2  0
 24 25  1  0
 25 26  2  0
 26 27  1  0
 27 28  2  0
 28 29  1  0
 26 30  1  0
 25 31  1  0
 24 32  1  0
  9 33  1  0
 33 34  2  0
  8 35  1  0
  7 36  1  0
  6 37  1  0
  4 38  1  0
  3 39  1  0
  1 40  1  0
 34  2  1  0
 33  5  1  0
 22 10  1  0
 28 23  1  0
 15 13  1  0
M  END
>  <cnnaffinity>  (1) 
-5.65444

>  <filename>  (1) 
Oc1ccc2cccc(-c3nc(C4CC4)nn3-c3cccnc3)c2n1

$$$$
