
     RDKit          3D

 32 35  0  0  0  0  0  0  0  0999 V2000
    5.9314    1.5971   27.1181 H   0  0  0  0  0  0  0  0  0  0  0  0
    5.4370    2.4241   27.2379 O   0  0  0  0  0  0  0  0  0  0  0  0
    5.7319    3.1943   26.1629 C   0  0  0  0  0  0  0  0  0  0  0  0
    5.1842    4.4703   26.0818 C   0  0  0  0  0  0  0  0  0  0  0  0
    4.5402    4.8001   26.8835 H   0  0  0  0  0  0  0  0  0  0  0  0
    5.4710    5.2807   24.9779 C   0  0  0  0  0  0  0  0  0  0  0  0
    4.7727    6.8641   24.8908 Cl  0  0  0  0  0  0  0  0  0  0  0  0
    6.3039    4.8380   23.9553 C   0  0  0  0  0  0  0  0  0  0  0  0
    6.5156    5.4732   23.1009 H   0  0  0  0  0  0  0  0  0  0  0  0
    6.8417    3.5505   24.0256 C   0  0  0  0  0  0  0  0  0  0  0  0
    7.4478    3.1622   23.2159 H   0  0  0  0  0  0  0  0  0  0  0  0
    6.5547    2.7328   25.1145 C   0  0  0  0  0  0  0  0  0  0  0  0
    7.0846    1.4494   25.2901 O   0  0  0  0  0  0  0  0  0  0  0  0
    7.2951    0.6202   24.2617 C   0  0  0  0  0  0  0  0  0  0  0  0
    8.0615   -0.4703   24.4731 N   0  0  0  0  0  0  0  0  0  0  0  0
    8.0635   -0.9861   23.2592 C   0  0  0  0  0  0  0  0  0  0  0  0
    8.8609   -2.2652   22.4140 S   0  0  0  0  0  0  0  0  0  0  0  0
    8.2671   -1.6290   20.9136 C   0  0  0  0  0  0  0  0  0  0  0  0
    8.6430   -2.0409   20.0019 H   0  0  0  0  0  0  0  0  0  0  0  0
    7.4218   -0.5899   21.0453 C   0  0  0  0  0  0  0  0  0  0  0  0
    6.6618    0.0873   19.9699 C   0  0  0  0  0  0  0  0  0  0  0  0
    7.1645    0.0699   18.6498 C   0  0  0  0  0  0  0  0  0  0  0  0
    8.1115   -0.4182   18.4173 H   0  0  0  0  0  0  0  0  0  0  0  0
    6.5669    0.6529   17.6060 N   0  0  0  0  0  0  0  0  0  0  0  0
    5.4065    1.2844   17.8375 C   0  0  0  0  0  0  0  0  0  0  0  0
    4.9469    1.7798   16.9847 H   0  0  0  0  0  0  0  0  0  0  0  0
    4.7939    1.3259   19.0949 C   0  0  0  0  0  0  0  0  0  0  0  0
    3.8478    1.8433   19.2124 H   0  0  0  0  0  0  0  0  0  0  0  0
    5.4266    0.7260   20.1843 C   0  0  0  0  0  0  0  0  0  0  0  0
    5.0027    0.7572   21.1890 H   0  0  0  0  0  0  0  0  0  0  0  0
    7.3174   -0.2606   22.3955 N   0  0  0  0  0  0  0  0  0  0  0  0
    6.7959    0.8137   23.0455 N   0  0  0  0  0  0  0  0  0  0  0  0
  1  2  1  0
  2  3  1  0
  3  4  2  0
  4  5  1  0
  4  6  1  0
  6  7  1  0
  6  8  2  0
  8  9  1  0
  8 10  1  0
 10 11  1  0
 10 12  2  0
 12 13  1  0
 13 14  1  0
 14 15  1  0
 15 16  2  0
 16 17  1  0
 17 18  1  0
 18 19  1  0
 18 20  2  0
 20 21  1  0
 21 22  2  0
 22 23  1  0
 22 24  1  0
 24 25  2  0
 25 26  1  0
 25 27  1  0
 27 28  1  0
 27 29  2  0
 29 30  1  0
 20 31  1  0
 31 32  1  0
 12  3  1  0
 32 14  2  0
 31 16  1  0
 29 21  1  0
M  END
>  <cnnaffinity>  (1) 
-5.56687

>  <filename>  (1) 
Oc1cc(Cl)ccc1Oc1nc2scc(-c3cccnc3)n2n1

$$$$
