
     RDKit          3D

 33 35  0  0  0  0  0  0  0  0999 V2000
    5.6180   -3.0761   25.8031 H   0  0  0  0  0  0  0  0  0  0  0  0
    4.7798   -3.5619   25.7832 O   0  0  0  0  0  0  0  0  0  0  0  0
    4.6255   -4.0248   24.5186 C   0  0  0  0  0  0  0  0  0  0  0  0
    3.4920   -4.7909   24.2617 C   0  0  0  0  0  0  0  0  0  0  0  0
    2.8012   -4.9506   25.0850 H   0  0  0  0  0  0  0  0  0  0  0  0
    3.3263   -5.3765   23.0018 C   0  0  0  0  0  0  0  0  0  0  0  0
    1.8869   -6.2912   22.6583 Cl  0  0  0  0  0  0  0  0  0  0  0  0
    4.3073   -5.2226   22.0183 C   0  0  0  0  0  0  0  0  0  0  0  0
    4.2516   -5.7722   21.0915 H   0  0  0  0  0  0  0  0  0  0  0  0
    5.3980   -4.3771   22.2459 C   0  0  0  0  0  0  0  0  0  0  0  0
    6.1199   -4.1583   21.4627 H   0  0  0  0  0  0  0  0  0  0  0  0
    5.5688   -3.7761   23.4916 C   0  0  0  0  0  0  0  0  0  0  0  0
    6.6723   -3.0055   23.8288 O   0  0  0  0  0  0  0  0  0  0  0  0
    7.3345   -2.2264   22.8930 C   0  0  0  0  0  0  0  0  0  0  0  0
    8.7171   -2.0771   23.0538 C   0  0  0  0  0  0  0  0  0  0  0  0
    9.2101   -2.6058   23.8627 H   0  0  0  0  0  0  0  0  0  0  0  0
    9.4281   -1.2443   22.1805 C   0  0  0  0  0  0  0  0  0  0  0  0
   10.4995   -1.1080   22.3133 H   0  0  0  0  0  0  0  0  0  0  0  0
    8.7651   -0.5691   21.1491 C   0  0  0  0  0  0  0  0  0  0  0  0
    9.3039    0.0991   20.4823 H   0  0  0  0  0  0  0  0  0  0  0  0
    7.3793   -0.7148   20.9846 C   0  0  0  0  0  0  0  0  0  0  0  0
    6.6529    0.0069   19.8992 C   0  0  0  0  0  0  0  0  0  0  0  0
    7.1631    0.0628   18.5876 C   0  0  0  0  0  0  0  0  0  0  0  0
    8.1056   -0.4273   18.3464 H   0  0  0  0  0  0  0  0  0  0  0  0
    6.5542    0.6768   17.5632 N   0  0  0  0  0  0  0  0  0  0  0  0
    5.3960    1.3010   17.8195 C   0  0  0  0  0  0  0  0  0  0  0  0
    4.9311    1.8098   16.9762 H   0  0  0  0  0  0  0  0  0  0  0  0
    4.7933    1.3217   19.0830 C   0  0  0  0  0  0  0  0  0  0  0  0
    3.8584    1.8547   19.2271 H   0  0  0  0  0  0  0  0  0  0  0  0
    5.4318    0.6575   20.1353 C   0  0  0  0  0  0  0  0  0  0  0  0
    5.0058    0.6531   21.1402 H   0  0  0  0  0  0  0  0  0  0  0  0
    6.6728   -1.5531   21.8635 C   0  0  0  0  0  0  0  0  0  0  0  0
    5.6097   -1.7026   21.7247 H   0  0  0  0  0  0  0  0  0  0  0  0
  1  2  1  0
  2  3  1  0
  3  4  2  0
  4  5  1  0
  4  6  1  0
  6  7  1  0
  6  8  2  0
  8  9  1  0
  8 10  1  0
 10 11  1  0
 10 12  2  0
 12 13  1  0
 13 14  1  0
 14 15  2  0
 15 16  1  0
 15 17  1  0
 17 18  1  0
 17 19  2  0
 19 20  1  0
 19 21  1  0
 21 22  1  0
 22 23  2  0
 23 24  1  0
 23 25  1  0
 25 26  2  0
 26 27  1  0
 26 28  1  0
 28 29  1  0
 28 30  2  0
 30 31  1  0
 21 32  2  0
 32 33  1  0
 12  3  1  0
 32 14  1  0
 30 22  1  0
M  END
>  <cnnaffinity>  (1) 
-5.34086

>  <filename>  (1) 
Oc1cc(Cl)ccc1Oc1cccc(-c2cccnc2)c1

$$$$
