
     RDKit          3D

 29 31  0  0  0  0  0  0  0  0999 V2000
    6.7160    2.2829   22.8624 H   0  0  0  0  0  0  0  0  0  0  0  0
    6.4071    3.1833   23.1017 O   0  0  0  0  0  0  0  0  0  0  0  0
    6.1016    3.1161   24.3948 C   0  0  0  0  0  0  0  0  0  0  0  0
    5.2374    4.0074   24.9877 C   0  0  0  0  0  0  0  0  0  0  0  0
    4.8460    4.8266   24.3982 H   0  0  0  0  0  0  0  0  0  0  0  0
    4.8059    3.7924   26.3029 C   0  0  0  0  0  0  0  0  0  0  0  0
    3.7888    4.9528   27.0781 Cl  0  0  0  0  0  0  0  0  0  0  0  0
    5.1771    2.6263   26.9993 C   0  0  0  0  0  0  0  0  0  0  0  0
    4.7203    2.4236   27.9615 H   0  0  0  0  0  0  0  0  0  0  0  0
    6.0877    1.7442   26.4736 C   0  0  0  0  0  0  0  0  0  0  0  0
    6.4146    0.8358   26.9611 H   0  0  0  0  0  0  0  0  0  0  0  0
    6.7376    2.0288   25.1891 C   0  0  0  0  0  0  0  0  0  0  0  0
    7.7314    1.4284   24.8048 O   0  0  0  0  0  0  0  0  0  0  0  0
    6.3704    0.4764   22.6665 O   0  0  0  0  0  0  0  0  0  0  0  0
    7.1449   -0.3580   22.2104 C   0  0  0  0  0  0  0  0  0  0  0  0
    7.9942   -1.2066   22.8311 N   0  0  0  0  0  0  0  0  0  0  0  0
    8.6096   -1.9142   21.8710 N   0  0  0  0  0  0  0  0  0  0  0  0
    8.2256   -1.5851   20.6939 N   0  0  0  0  0  0  0  0  0  0  0  0
    7.3055   -0.6185   20.8382 N   0  0  0  0  0  0  0  0  0  0  0  0
    6.6194   -0.0118   19.7519 C   0  0  0  0  0  0  0  0  0  0  0  0
    7.1616   -0.0023   18.4525 C   0  0  0  0  0  0  0  0  0  0  0  0
    8.0851   -0.5323   18.2452 H   0  0  0  0  0  0  0  0  0  0  0  0
    6.5876    0.6376   17.4306 N   0  0  0  0  0  0  0  0  0  0  0  0
    5.4357    1.2891   17.6666 C   0  0  0  0  0  0  0  0  0  0  0  0
    5.0062    1.8242   16.8209 H   0  0  0  0  0  0  0  0  0  0  0  0
    4.7987    1.2960   18.9144 C   0  0  0  0  0  0  0  0  0  0  0  0
    3.8696    1.8499   19.0394 H   0  0  0  0  0  0  0  0  0  0  0  0
    5.3912    0.6191   19.9856 C   0  0  0  0  0  0  0  0  0  0  0  0
    4.9461    0.5858   20.9808 H   0  0  0  0  0  0  0  0  0  0  0  0
  1  2  1  0
  2  3  1  0
  3  4  2  0
  4  5  1  0
  4  6  1  0
  6  7  1  0
  6  8  2  0
  8  9  1  0
  8 10  1  0
 10 11  1  0
 10 12  2  0
 12 13  1  0
 13 14  1  0
 14 15  1  0
 15 16  2  0
 16 17  1  0
 17 18  2  0
 18 19  1  0
 19 20  1  0
 20 21  2  0
 21 22  1  0
 21 23  1  0
 23 24  2  0
 24 25  1  0
 24 26  1  0
 26 27  1  0
 26 28  2  0
 28 29  1  0
 12  3  1  0
 19 15  1  0
 28 20  1  0
M  END
>  <cnnaffinity>  (1) 
-5.08168

>  <filename>  (1) 
Oc1cc(Cl)ccc1OOc1nnnn1-c1cccnc1

$$$$
