
     RDKit          3D

 27 28  0  0  0  0  0  0  0  0999 V2000
   10.1457   -1.2707   23.9381 H   0  0  0  0  0  0  0  0  0  0  0  0
   10.7111   -0.5409   24.2598 O   0  0  0  0  0  0  0  0  0  0  0  0
   10.7162    0.3743   23.2642 C   0  0  0  0  0  0  0  0  0  0  0  0
   11.4406    1.5551   23.4118 C   0  0  0  0  0  0  0  0  0  0  0  0
   11.9415    1.7468   24.3516 H   0  0  0  0  0  0  0  0  0  0  0  0
   11.5048    2.4638   22.3492 C   0  0  0  0  0  0  0  0  0  0  0  0
   12.3683    3.9545   22.5561 Cl  0  0  0  0  0  0  0  0  0  0  0  0
   10.8665    2.2042   21.1411 C   0  0  0  0  0  0  0  0  0  0  0  0
   11.0048    2.8890   20.3171 H   0  0  0  0  0  0  0  0  0  0  0  0
   10.0717    1.0617   21.0207 C   0  0  0  0  0  0  0  0  0  0  0  0
    9.5033    0.8417   20.1282 H   0  0  0  0  0  0  0  0  0  0  0  0
    9.9931    0.1526   22.0703 C   0  0  0  0  0  0  0  0  0  0  0  0
    9.2070   -0.9940   22.0467 O   0  0  0  0  0  0  0  0  0  0  0  0
    8.5989   -1.2408   20.7784 N   0  0  0  0  0  0  0  0  0  0  0  0
    8.5964   -2.2565   20.7286 H   0  0  0  0  0  0  0  0  0  0  0  0
    7.2316   -0.8370   20.9299 N   0  0  0  0  0  0  0  0  0  0  0  0
    7.0576   -0.4710   21.8629 H   0  0  0  0  0  0  0  0  0  0  0  0
    6.6742   -0.0539   19.8997 C   0  0  0  0  0  0  0  0  0  0  0  0
    7.1970    0.0416   18.5844 C   0  0  0  0  0  0  0  0  0  0  0  0
    8.1438   -0.4384   18.3388 H   0  0  0  0  0  0  0  0  0  0  0  0
    6.5968    0.6901   17.5762 N   0  0  0  0  0  0  0  0  0  0  0  0
    5.4299    1.3039   17.8390 C   0  0  0  0  0  0  0  0  0  0  0  0
    4.9548    1.8175   17.0052 H   0  0  0  0  0  0  0  0  0  0  0  0
    4.8406    1.2964   19.1070 C   0  0  0  0  0  0  0  0  0  0  0  0
    3.9027    1.8195   19.2599 H   0  0  0  0  0  0  0  0  0  0  0  0
    5.4691    0.6218   20.1561 C   0  0  0  0  0  0  0  0  0  0  0  0
    5.0415    0.6045   21.1588 H   0  0  0  0  0  0  0  0  0  0  0  0
  1  2  1  0
  2  3  1  0
  3  4  2  0
  4  5  1  0
  4  6  1  0
  6  7  1  0
  6  8  2  0
  8  9  1  0
  8 10  1  0
 10 11  1  0
 10 12  2  0
 12 13  1  0
 13 14  1  0
 14 15  1  0
 14 16  1  0
 16 17  1  0
 16 18  1  0
 18 19  2  0
 19 20  1  0
 19 21  1  0
 21 22  2  0
 22 23  1  0
 22 24  1  0
 24 25  1  0
 24 26  2  0
 26 27  1  0
 12  3  1  0
 26 18  1  0
M  END
>  <cnnaffinity>  (1) 
-4.77108

>  <filename>  (1) 
Oc1cc(Cl)ccc1ONNc1cccnc1

$$$$
