
     RDKit          3D

 27 28  0  0  0  0  0  0  0  0999 V2000
   10.3497   -3.2623   22.9133 H   0  0  0  0  0  0  0  0  0  0  0  0
    9.9756   -3.6548   23.7121 O   0  0  0  0  0  0  0  0  0  0  0  0
    8.9630   -2.8698   24.1471 C   0  0  0  0  0  0  0  0  0  0  0  0
    8.3319   -3.2961   25.3155 C   0  0  0  0  0  0  0  0  0  0  0  0
    8.6761   -4.2029   25.7906 H   0  0  0  0  0  0  0  0  0  0  0  0
    7.2816   -2.5592   25.8549 C   0  0  0  0  0  0  0  0  0  0  0  0
    6.4939   -3.1185   27.2908 Cl  0  0  0  0  0  0  0  0  0  0  0  0
    6.8481   -1.3795   25.2578 C   0  0  0  0  0  0  0  0  0  0  0  0
    6.0274   -0.8246   25.7018 H   0  0  0  0  0  0  0  0  0  0  0  0
    7.4760   -0.9451   24.0890 C   0  0  0  0  0  0  0  0  0  0  0  0
    7.1490   -0.0161   23.6362 H   0  0  0  0  0  0  0  0  0  0  0  0
    8.5191   -1.6832   23.5185 C   0  0  0  0  0  0  0  0  0  0  0  0
    9.2215   -1.2474   22.3902 O   0  0  0  0  0  0  0  0  0  0  0  0
    8.5791   -0.5608   21.3986 C   0  0  0  0  0  0  0  0  0  0  0  0
    9.6560    0.5743   20.6848 Cl  0  0  0  0  0  0  0  0  0  0  0  0
    7.3176   -0.7358   20.9929 C   0  0  0  0  0  0  0  0  0  0  0  0
    6.7163   -1.4545   21.5505 H   0  0  0  0  0  0  0  0  0  0  0  0
    6.6476   -0.0055   19.8901 C   0  0  0  0  0  0  0  0  0  0  0  0
    7.1704    0.0680   18.5828 C   0  0  0  0  0  0  0  0  0  0  0  0
    8.1117   -0.4259   18.3542 H   0  0  0  0  0  0  0  0  0  0  0  0
    6.5584    0.6871   17.5670 N   0  0  0  0  0  0  0  0  0  0  0  0
    5.3940    1.2997   17.8333 C   0  0  0  0  0  0  0  0  0  0  0  0
    4.9124    1.7874   16.9898 H   0  0  0  0  0  0  0  0  0  0  0  0
    4.7974    1.3168   19.0996 C   0  0  0  0  0  0  0  0  0  0  0  0
    3.8674    1.8496   19.2546 H   0  0  0  0  0  0  0  0  0  0  0  0
    5.4298    0.6424   20.1444 C   0  0  0  0  0  0  0  0  0  0  0  0
    5.0141    0.6230   21.1552 H   0  0  0  0  0  0  0  0  0  0  0  0
  1  2  1  0
  2  3  1  0
  3  4  2  0
  4  5  1  0
  4  6  1  0
  6  7  1  0
  6  8  2  0
  8  9  1  0
  8 10  1  0
 10 11  1  0
 10 12  2  0
 12 13  1  0
 13 14  1  0
 14 15  1  0
 14 16  2  3
 16 17  1  0
 16 18  1  0
 18 19  2  0
 19 20  1  0
 19 21  1  0
 21 22  2  0
 22 23  1  0
 22 24  1  0
 24 25  1  0
 24 26  2  0
 26 27  1  0
 12  3  1  0
 26 18  1  0
M  END
>  <cnnaffinity>  (1) 
-5.0105

>  <filename>  (1) 
Oc1cc(Cl)ccc1OC(Cl)=Cc1cccnc1

$$$$
