
     RDKit          3D

 29 31  0  0  0  0  0  0  0  0999 V2000
   11.2250   -3.0641   22.4485 H   0  0  0  0  0  0  0  0  0  0  0  0
   11.4700   -3.4122   23.3181 O   0  0  0  0  0  0  0  0  0  0  0  0
   10.3276   -3.7203   23.9692 C   0  0  0  0  0  0  0  0  0  0  0  0
   10.4639   -4.2831   25.2360 C   0  0  0  0  0  0  0  0  0  0  0  0
   11.4491   -4.5036   25.6162 H   0  0  0  0  0  0  0  0  0  0  0  0
    9.3357   -4.5668   26.0022 C   0  0  0  0  0  0  0  0  0  0  0  0
    9.5646   -5.1415   27.6245 Cl  0  0  0  0  0  0  0  0  0  0  0  0
    8.0541   -4.3422   25.5047 C   0  0  0  0  0  0  0  0  0  0  0  0
    7.1856   -4.5318   26.1322 H   0  0  0  0  0  0  0  0  0  0  0  0
    7.9114   -3.8416   24.2037 C   0  0  0  0  0  0  0  0  0  0  0  0
    6.9326   -3.6857   23.7598 H   0  0  0  0  0  0  0  0  0  0  0  0
    9.0339   -3.4967   23.4523 C   0  0  0  0  0  0  0  0  0  0  0  0
    8.9405   -2.9612   22.1632 O   0  0  0  0  0  0  0  0  0  0  0  0
    8.1812   -1.8708   21.9473 C   0  0  0  0  0  0  0  0  0  0  0  0
    7.7020   -1.0706   22.9254 N   0  0  0  0  0  0  0  0  0  0  0  0
    7.0534   -0.1610   22.2279 C   0  0  0  0  0  0  0  0  0  0  0  0
    6.5681    0.7145   22.6395 H   0  0  0  0  0  0  0  0  0  0  0  0
    7.1245   -0.4195   20.8978 N   0  0  0  0  0  0  0  0  0  0  0  0
    6.4966    0.2044   19.7829 C   0  0  0  0  0  0  0  0  0  0  0  0
    7.1125    0.1420   18.5169 C   0  0  0  0  0  0  0  0  0  0  0  0
    8.0478   -0.4045   18.4044 H   0  0  0  0  0  0  0  0  0  0  0  0
    6.6091    0.7203   17.4239 N   0  0  0  0  0  0  0  0  0  0  0  0
    5.4423    1.3796   17.5384 C   0  0  0  0  0  0  0  0  0  0  0  0
    5.0685    1.8545   16.6317 H   0  0  0  0  0  0  0  0  0  0  0  0
    4.7318    1.4560   18.7384 C   0  0  0  0  0  0  0  0  0  0  0  0
    3.7822    1.9803   18.7631 H   0  0  0  0  0  0  0  0  0  0  0  0
    5.2580    0.8561   19.8869 C   0  0  0  0  0  0  0  0  0  0  0  0
    4.7004    0.8706   20.8234 H   0  0  0  0  0  0  0  0  0  0  0  0
    7.8957   -1.5308   20.7080 N   0  0  0  0  0  0  0  0  0  0  0  0
  1  2  1  0
  2  3  1  0
  3  4  2  0
  4  5  1  0
  4  6  1  0
  6  7  1  0
  6  8  2  0
  8  9  1  0
  8 10  1  0
 10 11  1  0
 10 12  2  0
 12 13  1  0
 13 14  1  0
 14 15  1  0
 15 16  2  0
 16 17  1  0
 16 18  1  0
 18 19  1  0
 19 20  2  0
 20 21  1  0
 20 22  1  0
 22 23  2  0
 23 24  1  0
 23 25  1  0
 25 26  1  0
 25 27  2  0
 27 28  1  0
 18 29  1  0
 12  3  1  0
 29 14  2  0
 27 19  1  0
M  END
>  <cnnaffinity>  (1) 
-5.4706

>  <filename>  (1) 
Oc1cc(Cl)ccc1Oc1ncn(-c2cccnc2)n1

$$$$
