
     RDKit          3D

 28 29  0  0  0  0  0  0  0  0999 V2000
    5.9575   -4.0442   19.8377 H   0  0  0  0  0  0  0  0  0  0  0  0
    6.1456   -4.8233   20.3796 O   0  0  0  0  0  0  0  0  0  0  0  0
    6.8130   -4.4182   21.5105 C   0  0  0  0  0  0  0  0  0  0  0  0
    6.8748   -5.3609   22.5464 C   0  0  0  0  0  0  0  0  0  0  0  0
    6.4083   -6.3258   22.3769 H   0  0  0  0  0  0  0  0  0  0  0  0
    7.4875   -5.0582   23.7673 C   0  0  0  0  0  0  0  0  0  0  0  0
    7.5183   -5.7994   24.5609 H   0  0  0  0  0  0  0  0  0  0  0  0
    8.0531   -3.8017   23.9675 C   0  0  0  0  0  0  0  0  0  0  0  0
    8.5100   -3.5453   24.9208 H   0  0  0  0  0  0  0  0  0  0  0  0
    8.0075   -2.8616   22.9408 C   0  0  0  0  0  0  0  0  0  0  0  0
    8.4371   -1.8787   23.0748 H   0  0  0  0  0  0  0  0  0  0  0  0
    7.4048   -3.1321   21.6968 C   0  0  0  0  0  0  0  0  0  0  0  0
    7.4097   -2.1006   20.7392 N   0  0  0  0  0  0  0  0  0  0  0  0
    7.6178   -2.2781   19.7718 H   0  0  0  0  0  0  0  0  0  0  0  0
    7.3796   -0.6893   21.0192 C   0  0  1  0  0  0  0  0  0  0  0  0
    6.9390   -0.4860   22.0074 H   0  0  0  0  0  0  0  0  0  0  0  0
    8.7253   -0.2589   20.9691 O   0  0  0  0  0  0  0  0  0  0  0  0
    9.1097   -1.1110   20.7204 H   0  0  0  0  0  0  0  0  0  0  0  0
    6.5995   -0.0135   19.9450 C   0  0  0  0  0  0  0  0  0  0  0  0
    7.1408   -0.0185   18.6554 C   0  0  0  0  0  0  0  0  0  0  0  0
    8.0948   -0.5114   18.4533 H   0  0  0  0  0  0  0  0  0  0  0  0
    6.5856    0.6040   17.6101 N   0  0  0  0  0  0  0  0  0  0  0  0
    5.4335    1.2595   17.8317 C   0  0  0  0  0  0  0  0  0  0  0  0
    5.0132    1.7765   16.9725 H   0  0  0  0  0  0  0  0  0  0  0  0
    4.7950    1.3001   19.0774 C   0  0  0  0  0  0  0  0  0  0  0  0
    3.8679    1.8509   19.1835 H   0  0  0  0  0  0  0  0  0  0  0  0
    5.3905    0.6496   20.1589 C   0  0  0  0  0  0  0  0  0  0  0  0
    4.9257    0.6750   21.1517 H   0  0  0  0  0  0  0  0  0  0  0  0
  1  2  1  0
  2  3  1  0
  3  4  2  0
  4  5  1  0
  4  6  1  0
  6  7  1  0
  6  8  2  0
  8  9  1  0
  8 10  1  0
 10 11  1  0
 10 12  2  0
 12 13  1  0
 13 14  1  0
 13 15  1  0
 15 16  1  1
 15 17  1  0
 17 18  1  0
 15 19  1  0
 19 20  2  0
 20 21  1  0
 20 22  1  0
 22 23  2  0
 23 24  1  0
 23 25  1  0
 25 26  1  0
 25 27  2  0
 27 28  1  0
 12  3  1  0
 27 19  1  0
M  END
>  <cnnaffinity>  (1) 
-4.11213

>  <filename>  (1) 
Oc1ccccc1N[C@@H](O)c1cccnc1

$$$$
