
     RDKit          3D

 38 41  0  0  0  0  0  0  0  0999 V2000
    8.6606    3.0711   22.8840 H   0  0  0  0  0  0  0  0  0  0  0  0
    9.3177    3.7839   22.9619 O   0  0  0  0  0  0  0  0  0  0  0  0
   10.5385    3.2006   22.8483 C   0  0  0  0  0  0  0  0  0  0  0  0
   11.6297    4.0678   22.8552 C   0  0  0  0  0  0  0  0  0  0  0  0
   11.4198    5.1276   22.9302 H   0  0  0  0  0  0  0  0  0  0  0  0
   12.9256    3.5547   22.7587 C   0  0  0  0  0  0  0  0  0  0  0  0
   14.2688    4.6581   22.7764 Cl  0  0  0  0  0  0  0  0  0  0  0  0
   13.1425    2.1773   22.6540 C   0  0  0  0  0  0  0  0  0  0  0  0
   14.1576    1.8055   22.5867 H   0  0  0  0  0  0  0  0  0  0  0  0
   12.0487    1.2998   22.6294 C   0  0  0  0  0  0  0  0  0  0  0  0
   12.1584    0.2214   22.5399 H   0  0  0  0  0  0  0  0  0  0  0  0
   10.7517    1.8092   22.7335 C   0  0  0  0  0  0  0  0  0  0  0  0
    9.5627    1.0663   22.7314 O   0  0  0  0  0  0  0  0  0  0  0  0
    9.7185   -0.3225   22.5339 N   0  0  0  0  0  0  0  0  0  0  0  0
    9.7529   -0.5943   21.0480 C   0  0  0  0  0  0  0  0  0  0  0  0
    9.7004    0.3360   20.4733 H   0  0  0  0  0  0  0  0  0  0  0  0
   10.6637   -1.1485   20.7773 H   0  0  0  0  0  0  0  0  0  0  0  0
    8.5243   -1.4852   20.8269 C   0  0  2  0  0  0  0  0  0  0  0  0
    8.5706   -1.9756   19.8715 H   0  0  0  0  0  0  0  0  0  0  0  0
    7.2901   -0.7128   20.9669 N   0  0  0  0  0  0  0  0  0  0  0  0
    6.6763   -0.0197   19.9275 C   0  0  0  0  0  0  0  0  0  0  0  0
    7.1793    0.0452   18.5934 C   0  0  0  0  0  0  0  0  0  0  0  0
    8.1272   -0.4245   18.3369 H   0  0  0  0  0  0  0  0  0  0  0  0
    6.5703    0.6740   17.5765 N   0  0  0  0  0  0  0  0  0  0  0  0
    5.4077    1.2929   17.8322 C   0  0  0  0  0  0  0  0  0  0  0  0
    4.9342    1.7974   16.9924 H   0  0  0  0  0  0  0  0  0  0  0  0
    4.8160    1.3035   19.1001 C   0  0  0  0  0  0  0  0  0  0  0  0
    3.8804    1.8348   19.2541 H   0  0  0  0  0  0  0  0  0  0  0  0
    5.4517    0.6432   20.1547 C   0  0  0  0  0  0  0  0  0  0  0  0
    5.0238    0.6314   21.1551 H   0  0  0  0  0  0  0  0  0  0  0  0
    7.1951   -0.3424   22.3984 C   0  0  0  0  0  0  0  0  0  0  0  0
    7.2347    0.7419   22.5495 H   0  0  0  0  0  0  0  0  0  0  0  0
    6.2851   -0.7501   22.8622 H   0  0  0  0  0  0  0  0  0  0  0  0
    8.4573   -1.0315   22.9800 C   0  0  1  0  0  0  0  0  0  0  0  0
    8.4364   -1.1354   24.0695 H   0  0  0  0  0  0  0  0  0  0  0  0
    8.5084   -2.3105   22.1211 C   0  0  0  0  0  0  0  0  0  0  0  0
    9.3962   -2.9296   22.2883 H   0  0  0  0  0  0  0  0  0  0  0  0
    7.6112   -2.9307   22.2085 H   0  0  0  0  0  0  0  0  0  0  0  0
  1  2  1  0
  2  3  1  0
  3  4  2  0
  4  5  1  0
  4  6  1  0
  6  7  1  0
  6  8  2  0
  8  9  1  0
  8 10  1  0
 10 11  1  0
 10 12  2  0
 12 13  1  0
 13 14  1  0
 14 15  1  0
 15 16  1  0
 15 17  1  0
 15 18  1  0
 18 19  1  6
 18 20  1  0
 20 21  1  0
 21 22  2  0
 22 23  1  0
 22 24  1  0
 24 25  2  0
 25 26  1  0
 25 27  1  0
 27 28  1  0
 27 29  2  0
 29 30  1  0
 20 31  1  0
 31 32  1  0
 31 33  1  0
 31 34  1  0
 34 35  1  1
 34 36  1  0
 36 37  1  0
 36 38  1  0
 12  3  1  0
 34 14  1  0
 36 18  1  0
 29 21  1  0
M  END
>  <cnnaffinity>  (1) 
-4.87644

>  <filename>  (1) 
Oc1cc(Cl)ccc1ON1C[C@H]2C[C@@H]1CN2c1cccnc1

$$$$
