
     RDKit          3D

 33 35  0  0  0  0  0  0  0  0999 V2000
    4.3031    0.0785   24.2521 H   0  0  0  0  0  0  0  0  0  0  0  0
    3.7360    0.6791   24.7734 O   0  0  0  0  0  0  0  0  0  0  0  0
    4.3006    1.9103   24.7001 C   0  0  0  0  0  0  0  0  0  0  0  0
    3.6441    2.9848   25.2923 C   0  0  0  0  0  0  0  0  0  0  0  0
    2.6819    2.8085   25.7556 H   0  0  0  0  0  0  0  0  0  0  0  0
    4.2286    4.2564   25.2774 C   0  0  0  0  0  0  0  0  0  0  0  0
    3.4015    5.5768   26.0445 Cl  0  0  0  0  0  0  0  0  0  0  0  0
    5.4622    4.4773   24.6691 C   0  0  0  0  0  0  0  0  0  0  0  0
    5.9185    5.4645   24.6756 H   0  0  0  0  0  0  0  0  0  0  0  0
    6.1126    3.3999   24.0492 C   0  0  0  0  0  0  0  0  0  0  0  0
    7.0729    3.5466   23.5692 H   0  0  0  0  0  0  0  0  0  0  0  0
    5.5362    2.1289   24.0433 C   0  0  0  0  0  0  0  0  0  0  0  0
    6.0497    1.0131   23.4157 O   0  0  0  0  0  0  0  0  0  0  0  0
    7.3243    1.1124   22.7990 C   0  0  0  0  0  0  0  0  0  0  0  0
    8.0656    1.3626   23.5587 H   0  0  0  0  0  0  0  0  0  0  0  0
    7.2972    1.8674   22.0081 H   0  0  0  0  0  0  0  0  0  0  0  0
    7.6935   -0.1509   22.2255 N   0  0  0  0  0  0  0  0  0  0  0  0
    8.4197   -1.0256   22.9553 N   0  0  0  0  0  0  0  0  0  0  0  0
    8.4453   -2.1360   22.2362 C   0  0  0  0  0  0  0  0  0  0  0  0
    8.9850   -2.9933   22.6264 H   0  0  0  0  0  0  0  0  0  0  0  0
    7.7323   -1.9844   21.0264 C   0  0  0  0  0  0  0  0  0  0  0  0
    7.4381   -2.7068   20.2833 H   0  0  0  0  0  0  0  0  0  0  0  0
    7.3099   -0.6761   21.0183 C   0  0  0  0  0  0  0  0  0  0  0  0
    6.6223    0.0708   19.9389 C   0  0  0  0  0  0  0  0  0  0  0  0
    7.1408    0.0730   18.6240 C   0  0  0  0  0  0  0  0  0  0  0  0
    8.0886   -0.4202   18.4060 H   0  0  0  0  0  0  0  0  0  0  0  0
    6.5573    0.6826   17.5821 N   0  0  0  0  0  0  0  0  0  0  0  0
    5.3954    1.3120   17.8229 C   0  0  0  0  0  0  0  0  0  0  0  0
    4.9323    1.7970   16.9695 H   0  0  0  0  0  0  0  0  0  0  0  0
    4.7774    1.3575   19.0782 C   0  0  0  0  0  0  0  0  0  0  0  0
    3.8277    1.8681   19.1963 H   0  0  0  0  0  0  0  0  0  0  0  0
    5.4053    0.7360   20.1586 C   0  0  0  0  0  0  0  0  0  0  0  0
    4.9720    0.7379   21.1613 H   0  0  0  0  0  0  0  0  0  0  0  0
  1  2  1  0
  2  3  1  0
  3  4  2  0
  4  5  1  0
  4  6  1  0
  6  7  1  0
  6  8  2  0
  8  9  1  0
  8 10  1  0
 10 11  1  0
 10 12  2  0
 12 13  1  0
 13 14  1  0
 14 15  1  0
 14 16  1  0
 14 17  1  0
 17 18  1  0
 18 19  2  0
 19 20  1  0
 19 21  1  0
 21 22  1  0
 21 23  2  0
 23 24  1  0
 24 25  2  0
 25 26  1  0
 25 27  1  0
 27 28  2  0
 28 29  1  0
 28 30  1  0
 30 31  1  0
 30 32  2  0
 32 33  1  0
 12  3  1  0
 23 17  1  0
 32 24  1  0
M  END
>  <cnnaffinity>  (1) 
-5.00035

>  <filename>  (1) 
Oc1cc(Cl)ccc1OCn1nccc1-c1cccnc1

$$$$
