
     RDKit          3D

 36 39  0  0  0  0  0  0  0  0999 V2000
    9.8248   -3.7748   26.6851 O   0  0  0  0  0  0  0  0  0  0  0  0
    8.8742   -3.0114   26.1363 C   0  0  0  0  0  0  0  0  0  0  0  0
    8.9630   -2.6607   24.7768 C   0  0  0  0  0  0  0  0  0  0  0  0
    7.9220   -1.9017   24.2291 C   0  0  0  0  0  0  0  0  0  0  0  0
    7.8646   -1.4784   22.7911 C   0  0  0  0  0  0  0  0  0  0  0  0
    6.9393   -0.7778   22.2072 N   0  0  0  0  0  0  0  0  0  0  0  0
    7.3999   -0.6996   20.9219 C   0  0  0  0  0  0  0  0  0  0  0  0
    6.6576    0.0104   19.8851 C   0  0  0  0  0  0  0  0  0  0  0  0
    5.4411    0.6533   20.1514 C   0  0  0  0  0  0  0  0  0  0  0  0
    4.8050    1.3081   19.0998 C   0  0  0  0  0  0  0  0  0  0  0  0
    5.4054    1.2895   17.8345 C   0  0  0  0  0  0  0  0  0  0  0  0
    6.5655    0.6716   17.5738 N   0  0  0  0  0  0  0  0  0  0  0  0
    7.1787    0.0530   18.5857 C   0  0  0  0  0  0  0  0  0  0  0  0
    8.1271   -0.4276   18.3532 H   0  0  0  0  0  0  0  0  0  0  0  0
    4.9364    1.7936   16.9922 H   0  0  0  0  0  0  0  0  0  0  0  0
    3.8716    1.8421   19.2431 H   0  0  0  0  0  0  0  0  0  0  0  0
    5.0124    0.6403   21.1562 H   0  0  0  0  0  0  0  0  0  0  0  0
    8.5358   -1.3123   20.7143 N   0  0  0  0  0  0  0  0  0  0  0  0
    8.8469   -1.8342   21.9616 O   0  0  0  0  0  0  0  0  0  0  0  0
    6.8785   -1.5371   25.1008 C   0  0  0  0  0  0  0  0  0  0  0  0
    6.9047   -1.9255   26.4479 C   0  0  0  0  0  0  0  0  0  0  0  0
    5.7814   -1.5550   27.3725 C   0  0  0  0  0  0  0  0  0  0  0  0
    5.3921   -2.4245   28.4106 C   0  0  0  0  0  0  0  0  0  0  0  0
    4.4194   -2.0412   29.3338 C   0  0  0  0  0  0  0  0  0  0  0  0
    3.7387   -0.8304   29.1775 C   0  0  0  0  0  0  0  0  0  0  0  0
    4.0586    0.0086   28.1063 C   0  0  0  0  0  0  0  0  0  0  0  0
    5.0808   -0.3406   27.2224 C   0  0  0  0  0  0  0  0  0  0  0  0
    5.3162    0.3275   26.3957 H   0  0  0  0  0  0  0  0  0  0  0  0
    3.5000    0.9233   27.9344 H   0  0  0  0  0  0  0  0  0  0  0  0
    2.9523   -0.5497   29.8707 H   0  0  0  0  0  0  0  0  0  0  0  0
    4.2098   -2.6834   30.1840 H   0  0  0  0  0  0  0  0  0  0  0  0
    5.8492   -3.4111   28.4887 H   0  0  0  0  0  0  0  0  0  0  0  0
    7.9005   -2.6736   26.9544 N   0  0  0  0  0  0  0  0  0  0  0  0
    6.0169   -0.9929   24.7345 H   0  0  0  0  0  0  0  0  0  0  0  0
    9.8170   -2.9944   24.1938 H   0  0  0  0  0  0  0  0  0  0  0  0
   10.4807   -3.9074   25.9940 H   0  0  0  0  0  0  0  0  0  0  0  0
  1  2  1  0
  2  3  2  0
  3  4  1  0
  4  5  1  0
  5  6  2  0
  6  7  1  0
  7  8  1  0
  8  9  2  0
  9 10  1  0
 10 11  2  0
 11 12  1  0
 12 13  2  0
 13 14  1  0
 11 15  1  0
 10 16  1  0
  9 17  1  0
  7 18  2  0
 18 19  1  0
  4 20  2  0
 20 21  1  0
 21 22  1  0
 22 23  2  0
 23 24  1  0
 24 25  2  0
 25 26  1  0
 26 27  2  0
 27 28  1  0
 26 29  1  0
 25 30  1  0
 24 31  1  0
 23 32  1  0
 21 33  2  0
 20 34  1  0
  3 35  1  0
  1 36  1  0
 33  2  1  0
 19  5  1  0
 27 22  1  0
 13  8  1  0
M  END
>  <cnnaffinity>  (1) 
-5.43009

>  <filename>  (1) 
Oc1cc(-c2nc(-c3cccnc3)no2)cc(-c2ccccc2)n1

$$$$
