
     RDKit          3D

 29 31  0  0  0  0  0  0  0  0999 V2000
    5.7224    0.6374   24.9873 H   0  0  0  0  0  0  0  0  0  0  0  0
    5.2471    1.3002   25.5161 O   0  0  0  0  0  0  0  0  0  0  0  0
    5.4852    2.5077   24.9564 C   0  0  0  0  0  0  0  0  0  0  0  0
    4.8851    3.6017   25.5648 C   0  0  0  0  0  0  0  0  0  0  0  0
    4.2872    3.4065   26.4470 H   0  0  0  0  0  0  0  0  0  0  0  0
    5.0628    4.8737   25.0203 C   0  0  0  0  0  0  0  0  0  0  0  0
    4.3229    6.2322   25.8099 Cl  0  0  0  0  0  0  0  0  0  0  0  0
    5.8259    5.0500   23.8645 C   0  0  0  0  0  0  0  0  0  0  0  0
    5.9558    6.0480   23.4635 H   0  0  0  0  0  0  0  0  0  0  0  0
    6.4433    3.9530   23.2454 C   0  0  0  0  0  0  0  0  0  0  0  0
    7.0571    4.0816   22.3540 H   0  0  0  0  0  0  0  0  0  0  0  0
    6.2999    2.6875   23.8158 C   0  0  0  0  0  0  0  0  0  0  0  0
    6.8852    1.4813   23.3522 O   0  0  0  0  0  0  0  0  0  0  0  0
    8.0066    1.5488   22.5622 N   0  0  0  0  0  0  0  0  0  0  0  0
    8.9264    2.5116   22.6567 N   0  0  0  0  0  0  0  0  0  0  0  0
    9.8884    2.1593   21.8831 N   0  0  0  0  0  0  0  0  0  0  0  0
    9.6386    0.9722   21.2907 N   0  0  0  0  0  0  0  0  0  0  0  0
    8.4553    0.5895   21.7274 C   0  0  0  0  0  0  0  0  0  0  0  0
    7.5421   -0.8263   21.1810 S   0  0  0  0  0  0  0  0  0  0  0  0
    6.6157   -0.0357   19.8658 C   0  0  0  0  0  0  0  0  0  0  0  0
    7.1415    0.0240   18.5620 C   0  0  0  0  0  0  0  0  0  0  0  0
    8.1001   -0.4419   18.3340 H   0  0  0  0  0  0  0  0  0  0  0  0
    6.5356    0.6640   17.5565 N   0  0  0  0  0  0  0  0  0  0  0  0
    5.3814    1.2962   17.8188 C   0  0  0  0  0  0  0  0  0  0  0  0
    4.9263    1.8201   16.9808 H   0  0  0  0  0  0  0  0  0  0  0  0
    4.7800    1.3044   19.0792 C   0  0  0  0  0  0  0  0  0  0  0  0
    3.8620    1.8581   19.2315 H   0  0  0  0  0  0  0  0  0  0  0  0
    5.4093    0.6257   20.1245 C   0  0  0  0  0  0  0  0  0  0  0  0
    4.9969    0.6346   21.1340 H   0  0  0  0  0  0  0  0  0  0  0  0
  1  2  1  0
  2  3  1  0
  3  4  2  0
  4  5  1  0
  4  6  1  0
  6  7  1  0
  6  8  2  0
  8  9  1  0
  8 10  1  0
 10 11  1  0
 10 12  2  0
 12 13  1  0
 13 14  1  0
 14 15  1  0
 15 16  2  0
 16 17  1  0
 17 18  2  0
 18 19  1  0
 19 20  1  0
 20 21  2  0
 21 22  1  0
 21 23  1  0
 23 24  2  0
 24 25  1  0
 24 26  1  0
 26 27  1  0
 26 28  2  0
 28 29  1  0
 12  3  1  0
 18 14  1  0
 28 20  1  0
M  END
>  <cnnaffinity>  (1) 
-5.04962

>  <filename>  (1) 
Oc1cc(Cl)ccc1On1nnnc1Sc1cccnc1

$$$$
