
     RDKit          3D

 28 29  0  0  0  0  0  0  0  0999 V2000
    7.3522    1.0764   25.0237 H   0  0  0  0  0  0  0  0  0  0  0  0
    7.5806    1.9364   25.4059 O   0  0  0  0  0  0  0  0  0  0  0  0
    8.0066    2.7503   24.4140 C   0  0  0  0  0  0  0  0  0  0  0  0
    8.3522    4.0424   24.8137 C   0  0  0  0  0  0  0  0  0  0  0  0
    8.2604    4.2833   25.8660 H   0  0  0  0  0  0  0  0  0  0  0  0
    8.7558    4.9713   23.8550 C   0  0  0  0  0  0  0  0  0  0  0  0
    9.2128    6.5765   24.3425 Cl  0  0  0  0  0  0  0  0  0  0  0  0
    8.8008    4.6314   22.5021 C   0  0  0  0  0  0  0  0  0  0  0  0
    9.0671    5.4001   21.7913 H   0  0  0  0  0  0  0  0  0  0  0  0
    8.4917    3.3253   22.1012 C   0  0  0  0  0  0  0  0  0  0  0  0
    8.5446    3.0142   21.0601 H   0  0  0  0  0  0  0  0  0  0  0  0
    8.1098    2.3849   23.0528 C   0  0  0  0  0  0  0  0  0  0  0  0
    7.6837    1.0850   22.6920 O   0  0  0  0  0  0  0  0  0  0  0  0
    8.3344    0.3649   21.7549 C   0  0  0  0  0  0  0  0  0  0  0  0
    9.9215    0.4983   21.4152 S   0  0  0  0  0  0  0  0  0  0  0  0
    7.4226   -0.6406   21.0571 C   0  0  0  0  0  0  0  0  0  0  0  0
    6.7377   -1.0612   21.8028 H   0  0  0  0  0  0  0  0  0  0  0  0
    8.0484   -1.4655   20.6976 H   0  0  0  0  0  0  0  0  0  0  0  0
    6.6382   -0.0049   19.9030 C   0  0  0  0  0  0  0  0  0  0  0  0
    7.1451    0.0489   18.5906 C   0  0  0  0  0  0  0  0  0  0  0  0
    8.0962   -0.4285   18.3470 H   0  0  0  0  0  0  0  0  0  0  0  0
    6.5429    0.6711   17.5703 N   0  0  0  0  0  0  0  0  0  0  0  0
    5.3873    1.2991   17.8234 C   0  0  0  0  0  0  0  0  0  0  0  0
    4.9313    1.8166   16.9783 H   0  0  0  0  0  0  0  0  0  0  0  0
    4.7822    1.3159   19.0826 C   0  0  0  0  0  0  0  0  0  0  0  0
    3.8529    1.8587   19.2225 H   0  0  0  0  0  0  0  0  0  0  0  0
    5.4220    0.6517   20.1379 C   0  0  0  0  0  0  0  0  0  0  0  0
    4.9911    0.6516   21.1383 H   0  0  0  0  0  0  0  0  0  0  0  0
  1  2  1  0
  2  3  1  0
  3  4  2  0
  4  5  1  0
  4  6  1  0
  6  7  1  0
  6  8  2  0
  8  9  1  0
  8 10  1  0
 10 11  1  0
 10 12  2  0
 12 13  1  0
 13 14  1  0
 14 15  2  0
 14 16  1  0
 16 17  1  0
 16 18  1  0
 16 19  1  0
 19 20  2  0
 20 21  1  0
 20 22  1  0
 22 23  2  0
 23 24  1  0
 23 25  1  0
 25 26  1  0
 25 27  2  0
 27 28  1  0
 12  3  1  0
 27 19  1  0
M  END
>  <cnnaffinity>  (1) 
-4.54432

>  <filename>  (1) 
Oc1cc(Cl)ccc1OC(=S)Cc1cccnc1

$$$$
