
     RDKit          3D

 37 39  0  0  0  0  0  0  0  0999 V2000
   12.6066   -0.7623   21.1700 H   0  0  0  0  0  0  0  0  0  0  0  0
   11.6838   -0.5311   21.3008 O   0  0  0  0  0  0  0  0  0  0  0  0
   11.5985    0.7804   21.6642 C   0  0  0  0  0  0  0  0  0  0  0  0
   12.7108    1.4712   22.1520 C   0  0  0  0  0  0  0  0  0  0  0  0
   13.6621    0.9529   22.2382 H   0  0  0  0  0  0  0  0  0  0  0  0
   12.5756    2.8089   22.5401 C   0  0  0  0  0  0  0  0  0  0  0  0
   13.9340    3.7026   23.1337 Cl  0  0  0  0  0  0  0  0  0  0  0  0
   11.3523    3.4647   22.4661 C   0  0  0  0  0  0  0  0  0  0  0  0
   11.2897    4.5004   22.7826 H   0  0  0  0  0  0  0  0  0  0  0  0
   10.2521    2.7776   21.9430 C   0  0  0  0  0  0  0  0  0  0  0  0
    9.3119    3.2928   21.7952 H   0  0  0  0  0  0  0  0  0  0  0  0
   10.3498    1.4423   21.5500 C   0  0  0  0  0  0  0  0  0  0  0  0
    9.2676    0.7987   20.9942 O   0  0  0  0  0  0  0  0  0  0  0  0
    8.3299    0.1582   21.8760 C   0  0  0  0  0  0  0  0  0  0  0  0
    7.4763   -0.7537   20.9612 C   0  0  1  0  0  0  0  0  0  0  0  0
    8.2123   -1.4066   20.4584 H   0  0  0  0  0  0  0  0  0  0  0  0
    6.5935   -1.5559   21.7401 O   0  0  0  0  0  0  0  0  0  0  0  0
    5.8162   -1.6901   21.1871 H   0  0  0  0  0  0  0  0  0  0  0  0
    6.6726   -0.0283   19.8852 C   0  0  0  0  0  0  0  0  0  0  0  0
    7.1802    0.0256   18.5803 C   0  0  0  0  0  0  0  0  0  0  0  0
    8.1124   -0.4875   18.3464 H   0  0  0  0  0  0  0  0  0  0  0  0
    6.5933    0.6568   17.5522 N   0  0  0  0  0  0  0  0  0  0  0  0
    5.4379    1.2851   17.8006 C   0  0  0  0  0  0  0  0  0  0  0  0
    4.9863    1.8104   16.9582 H   0  0  0  0  0  0  0  0  0  0  0  0
    4.8192    1.2842   19.0572 C   0  0  0  0  0  0  0  0  0  0  0  0
    3.8778    1.8041   19.1878 H   0  0  0  0  0  0  0  0  0  0  0  0
    5.4365    0.6046   20.1118 C   0  0  0  0  0  0  0  0  0  0  0  0
    4.9540    0.5631   21.0926 H   0  0  0  0  0  0  0  0  0  0  0  0
    7.5713    1.1270   22.8226 C   0  0  0  0  0  0  0  0  0  0  0  0
    7.6542    2.1952   22.6052 H   0  0  0  0  0  0  0  0  0  0  0  0
    6.5086    0.8781   22.8692 H   0  0  0  0  0  0  0  0  0  0  0  0
    8.3836    0.5716   24.0173 C   0  0  0  0  0  0  0  0  0  0  0  0
    7.7917    0.2245   24.8708 H   0  0  0  0  0  0  0  0  0  0  0  0
    9.1400    1.2764   24.3806 H   0  0  0  0  0  0  0  0  0  0  0  0
    8.9545   -0.5488   23.1119 C   0  0  0  0  0  0  0  0  0  0  0  0
   10.0410   -0.6570   23.0884 H   0  0  0  0  0  0  0  0  0  0  0  0
    8.4910   -1.5257   23.2676 H   0  0  0  0  0  0  0  0  0  0  0  0
  1  2  1  0
  2  3  1  0
  3  4  2  0
  4  5  1  0
  4  6  1  0
  6  7  1  0
  6  8  2  0
  8  9  1  0
  8 10  1  0
 10 11  1  0
 10 12  2  0
 12 13  1  0
 13 14  1  0
 14 15  1  0
 15 16  1  6
 15 17  1  0
 17 18  1  0
 15 19  1  0
 19 20  2  0
 20 21  1  0
 20 22  1  0
 22 23  2  0
 23 24  1  0
 23 25  1  0
 25 26  1  0
 25 27  2  0
 27 28  1  0
 14 29  1  0
 29 30  1  0
 29 31  1  0
 29 32  1  0
 32 33  1  0
 32 34  1  0
 32 35  1  0
 35 36  1  0
 35 37  1  0
 12  3  1  0
 35 14  1  0
 27 19  1  0
M  END
>  <cnnaffinity>  (1) 
-5.4824

>  <filename>  (1) 
Oc1cc(Cl)ccc1OC1([C@@H](O)c2cccnc2)CCC1

$$$$
