
     RDKit          3D

 25 26  0  0  0  0  0  0  0  0999 V2000
    8.3335   -0.6584   24.5502 H   0  0  0  0  0  0  0  0  0  0  0  0
    8.2509   -0.5748   23.5918 O   0  0  0  0  0  0  0  0  0  0  0  0
    7.2311   -1.4187   23.2442 C   0  0  0  0  0  0  0  0  0  0  0  0
    6.5874   -2.1569   24.2337 C   0  0  0  0  0  0  0  0  0  0  0  0
    6.8869   -1.9961   25.2695 H   0  0  0  0  0  0  0  0  0  0  0  0
    5.5599   -3.0474   23.9024 C   0  0  0  0  0  0  0  0  0  0  0  0
    5.0382   -3.5772   24.6967 H   0  0  0  0  0  0  0  0  0  0  0  0
    5.1704   -3.2128   22.5691 C   0  0  0  0  0  0  0  0  0  0  0  0
    4.3638   -3.9020   22.3133 H   0  0  0  0  0  0  0  0  0  0  0  0
    5.7765   -2.4280   21.5761 C   0  0  0  0  0  0  0  0  0  0  0  0
    5.4653   -2.5201   20.5383 H   0  0  0  0  0  0  0  0  0  0  0  0
    6.7906   -1.4978   21.8988 C   0  0  0  0  0  0  0  0  0  0  0  0
    7.3508   -0.6183   20.9485 N   0  0  0  0  0  0  0  0  0  0  0  0
    8.7343   -0.6479   20.8355 O   0  0  0  0  0  0  0  0  0  0  0  0
    9.0527   -0.0833   21.5647 H   0  0  0  0  0  0  0  0  0  0  0  0
    6.6452    0.0062   19.9124 C   0  0  0  0  0  0  0  0  0  0  0  0
    7.1883    0.0591   18.6099 C   0  0  0  0  0  0  0  0  0  0  0  0
    8.1470   -0.4131   18.4159 H   0  0  0  0  0  0  0  0  0  0  0  0
    6.5883    0.6653   17.5796 N   0  0  0  0  0  0  0  0  0  0  0  0
    5.4198    1.2893   17.8140 C   0  0  0  0  0  0  0  0  0  0  0  0
    4.9730    1.8051   16.9639 H   0  0  0  0  0  0  0  0  0  0  0  0
    4.7987    1.3025   19.0679 C   0  0  0  0  0  0  0  0  0  0  0  0
    3.8658    1.8424   19.1935 H   0  0  0  0  0  0  0  0  0  0  0  0
    5.4091    0.6406   20.1410 C   0  0  0  0  0  0  0  0  0  0  0  0
    4.9760    0.6365   21.1431 H   0  0  0  0  0  0  0  0  0  0  0  0
  1  2  1  0
  2  3  1  0
  3  4  2  0
  4  5  1  0
  4  6  1  0
  6  7  1  0
  6  8  2  0
  8  9  1  0
  8 10  1  0
 10 11  1  0
 10 12  2  0
 12 13  1  0
 13 14  1  0
 14 15  1  0
 13 16  1  0
 16 17  2  0
 17 18  1  0
 17 19  1  0
 19 20  2  0
 20 21  1  0
 20 22  1  0
 22 23  1  0
 22 24  2  0
 24 25  1  0
 12  3  1  0
 24 16  1  0
M  END
>  <cnnaffinity>  (1) 
-4.87313

>  <filename>  (1) 
Oc1ccccc1N(O)c1cccnc1

$$$$
