
     RDKit          3D

 39 42  0  0  0  0  0  0  0  0999 V2000
    7.7868    2.4474   27.6925 O   0  0  0  0  0  0  0  0  0  0  0  0
    7.9021    1.3852   26.8903 C   0  0  0  0  0  0  0  0  0  0  0  0
    7.8177    0.1046   27.3561 C   0  0  0  0  0  0  0  0  0  0  0  0
    7.9382   -0.9462   26.4158 C   0  0  0  0  0  0  0  0  0  0  0  0
    8.0133   -2.3080   26.8054 C   0  0  0  0  0  0  0  0  0  0  0  0
    8.0153   -3.3169   25.8705 C   0  0  0  0  0  0  0  0  0  0  0  0
    7.9113   -3.0010   24.4942 C   0  0  0  0  0  0  0  0  0  0  0  0
    7.8884   -1.6835   24.0514 C   0  0  0  0  0  0  0  0  0  0  0  0
    7.7573   -1.3729   22.5981 C   0  0  0  0  0  0  0  0  0  0  0  0
    6.7975   -0.6945   21.9854 N   0  0  0  0  0  0  0  0  0  0  0  0
    7.2043   -0.6582   20.6947 C   0  0  0  0  0  0  0  0  0  0  0  0
    6.4809    0.0464   19.6368 C   0  0  0  0  0  0  0  0  0  0  0  0
    5.2782    0.7438   19.8351 C   0  0  0  0  0  0  0  0  0  0  0  0
    4.7443    1.4431   18.7536 C   0  0  0  0  0  0  0  0  0  0  0  0
    5.4114    1.4092   17.5233 C   0  0  0  0  0  0  0  0  0  0  0  0
    6.5372    0.7097   17.3167 N   0  0  0  0  0  0  0  0  0  0  0  0
    7.0521    0.0507   18.3559 C   0  0  0  0  0  0  0  0  0  0  0  0
    7.9691   -0.5067   18.1734 H   0  0  0  0  0  0  0  0  0  0  0  0
    5.0263    1.9620   16.6682 H   0  0  0  0  0  0  0  0  0  0  0  0
    3.8322    2.0216   18.8458 H   0  0  0  0  0  0  0  0  0  0  0  0
    4.7789    0.7356   20.8065 H   0  0  0  0  0  0  0  0  0  0  0  0
    8.3539   -1.2694   20.4750 N   0  0  0  0  0  0  0  0  0  0  0  0
    8.7027   -1.7394   21.6930 N   0  0  0  0  0  0  0  0  0  0  0  0
   10.0377   -2.3016   21.8686 C   0  0  0  0  0  0  0  0  0  0  0  0
   11.0481   -1.4179   22.5884 C   0  0  0  0  0  0  0  0  0  0  0  0
   11.2714   -0.2205   21.9367 F   0  0  0  0  0  0  0  0  0  0  0  0
   10.7069   -1.1959   23.6075 H   0  0  0  0  0  0  0  0  0  0  0  0
   11.9979   -1.9649   22.6252 H   0  0  0  0  0  0  0  0  0  0  0  0
    9.9613   -3.2427   22.4270 H   0  0  0  0  0  0  0  0  0  0  0  0
   10.4043   -2.5154   20.8644 H   0  0  0  0  0  0  0  0  0  0  0  0
    7.9895   -0.6144   25.0227 C   0  0  0  0  0  0  0  0  0  0  0  0
    8.1379    0.7713   24.7147 C   0  0  0  0  0  0  0  0  0  0  0  0
    8.1077    1.7450   25.6129 N   0  0  0  0  0  0  0  0  0  0  0  0
    8.2618    1.0795   23.6772 H   0  0  0  0  0  0  0  0  0  0  0  0
    7.7890   -3.8161   23.7855 H   0  0  0  0  0  0  0  0  0  0  0  0
    8.0819   -4.3575   26.1851 H   0  0  0  0  0  0  0  0  0  0  0  0
    8.0781   -2.5271   27.8579 H   0  0  0  0  0  0  0  0  0  0  0  0
    7.6344   -0.0613   28.4089 H   0  0  0  0  0  0  0  0  0  0  0  0
    7.9439    3.1320   27.0239 H   0  0  0  0  0  0  0  0  0  0  0  0
  1  2  1  0
  2  3  2  0
  3  4  1  0
  4  5  2  0
  5  6  1  0
  6  7  2  0
  7  8  1  0
  8  9  1  0
  9 10  2  0
 10 11  1  0
 11 12  1  0
 12 13  2  0
 13 14  1  0
 14 15  2  0
 15 16  1  0
 16 17  2  0
 17 18  1  0
 15 19  1  0
 14 20  1  0
 13 21  1  0
 11 22  2  0
 22 23  1  0
 23 24  1  0
 24 25  1  0
 25 26  1  0
 25 27  1  0
 25 28  1  0
 24 29  1  0
 24 30  1  0
  8 31  2  0
 31 32  1  0
 32 33  2  0
 32 34  1  0
  7 35  1  0
  6 36  1  0
  5 37  1  0
  3 38  1  0
  1 39  1  0
 33  2  1  0
 31  4  1  0
 23  9  1  0
 17 12  1  0
M  END
>  <cnnaffinity>  (1) 
-5.80836

>  <filename>  (1) 
Oc1cc2cccc(-c3nc(-c4cccnc4)nn3CCF)c2cn1

$$$$
