
     RDKit          3D

 35 38  0  0  0  0  0  0  0  0999 V2000
    3.7868   -7.0597   21.2305 H   0  0  0  0  0  0  0  0  0  0  0  0
    2.9917   -7.0807   21.7873 O   0  0  0  0  0  0  0  0  0  0  0  0
    3.2785   -6.3680   22.8979 C   0  0  0  0  0  0  0  0  0  0  0  0
    2.3901   -6.4959   23.9617 C   0  0  0  0  0  0  0  0  0  0  0  0
    1.5090   -7.1151   23.8375 H   0  0  0  0  0  0  0  0  0  0  0  0
    2.6706   -5.8502   25.1647 C   0  0  0  0  0  0  0  0  0  0  0  0
    1.5432   -6.0015   26.4780 Cl  0  0  0  0  0  0  0  0  0  0  0  0
    3.8248   -5.0858   25.3222 C   0  0  0  0  0  0  0  0  0  0  0  0
    4.0237   -4.6252   26.2831 H   0  0  0  0  0  0  0  0  0  0  0  0
    4.7140   -4.9317   24.2453 C   0  0  0  0  0  0  0  0  0  0  0  0
    5.6446   -4.3783   24.3735 H   0  0  0  0  0  0  0  0  0  0  0  0
    4.4195   -5.5367   23.0220 C   0  0  0  0  0  0  0  0  0  0  0  0
    5.2498   -5.4569   21.8904 O   0  0  0  0  0  0  0  0  0  0  0  0
    6.0247   -4.3669   21.6851 C   0  0  0  0  0  0  0  0  0  0  0  0
    7.3012   -4.4474   21.5422 N   0  0  0  0  0  0  0  0  0  0  0  0
    7.8660   -3.2245   21.3180 N   0  0  0  0  0  0  0  0  0  0  0  0
    7.0029   -2.2563   21.2615 C   0  0  0  0  0  0  0  0  0  0  0  0
    7.3395   -0.7972   21.0475 C   0  0  0  0  0  0  0  0  0  0  0  0
    6.6089   -0.0711   19.9417 C   0  0  0  0  0  0  0  0  0  0  0  0
    7.1451   -0.0203   18.6421 C   0  0  0  0  0  0  0  0  0  0  0  0
    8.0902   -0.5241   18.4361 H   0  0  0  0  0  0  0  0  0  0  0  0
    6.5874    0.6247   17.6089 N   0  0  0  0  0  0  0  0  0  0  0  0
    5.4362    1.2731   17.8406 C   0  0  0  0  0  0  0  0  0  0  0  0
    4.9993    1.7981   16.9915 H   0  0  0  0  0  0  0  0  0  0  0  0
    4.8080    1.2924   19.0904 C   0  0  0  0  0  0  0  0  0  0  0  0
    3.8781    1.8363   19.2137 H   0  0  0  0  0  0  0  0  0  0  0  0
    5.4070    0.6163   20.1573 C   0  0  0  0  0  0  0  0  0  0  0  0
    4.9633    0.6316   21.1551 H   0  0  0  0  0  0  0  0  0  0  0  0
    7.7275    0.0193   22.2803 C   0  0  0  0  0  0  0  0  0  0  0  0
    7.4225    1.0655   22.2905 H   0  0  0  0  0  0  0  0  0  0  0  0
    7.6885   -0.4761   23.2454 H   0  0  0  0  0  0  0  0  0  0  0  0
    8.7737   -0.3923   21.3010 C   0  0  0  0  0  0  0  0  0  0  0  0
    9.4392   -1.2014   21.5865 H   0  0  0  0  0  0  0  0  0  0  0  0
    9.1976    0.3733   20.6541 H   0  0  0  0  0  0  0  0  0  0  0  0
    5.3651   -2.7798   21.5166 S   0  0  0  0  0  0  0  0  0  0  0  0
  1  2  1  0
  2  3  1  0
  3  4  2  0
  4  5  1  0
  4  6  1  0
  6  7  1  0
  6  8  2  0
  8  9  1  0
  8 10  1  0
 10 11  1  0
 10 12  2  0
 12 13  1  0
 13 14  1  0
 14 15  2  0
 15 16  1  0
 16 17  2  0
 17 18  1  0
 18 19  1  0
 19 20  2  0
 20 21  1  0
 20 22  1  0
 22 23  2  0
 23 24  1  0
 23 25  1  0
 25 26  1  0
 25 27  2  0
 27 28  1  0
 18 29  1  0
 29 30  1  0
 29 31  1  0
 29 32  1  0
 32 33  1  0
 32 34  1  0
 17 35  1  0
 12  3  1  0
 35 14  1  0
 32 18  1  0
 27 19  1  0
M  END
>  <cnnaffinity>  (1) 
-5.42551

>  <filename>  (1) 
Oc1cc(Cl)ccc1Oc1nnc(C2(c3cccnc3)CC2)s1

$$$$
