
     RDKit          3D

 34 37  0  0  0  0  0  0  0  0999 V2000
    8.1852   -6.3499   24.6223 O   0  0  0  0  0  0  0  0  0  0  0  0
    8.3625   -5.1103   25.1336 C   0  0  0  0  0  0  0  0  0  0  0  0
    8.7435   -4.9992   26.5181 C   0  0  0  0  0  0  0  0  0  0  0  0
    8.9591   -3.8627   27.1330 N   0  0  0  0  0  0  0  0  0  0  0  0
    8.8206   -2.6974   26.4126 C   0  0  0  0  0  0  0  0  0  0  0  0
    9.0237   -1.4597   27.0914 C   0  0  0  0  0  0  0  0  0  0  0  0
    8.8842   -0.2612   26.4251 C   0  0  0  0  0  0  0  0  0  0  0  0
    8.5547   -0.2559   25.0522 C   0  0  0  0  0  0  0  0  0  0  0  0
    8.3777   -1.4315   24.3438 C   0  0  0  0  0  0  0  0  0  0  0  0
    8.1054   -1.3420   22.9062 C   0  0  0  0  0  0  0  0  0  0  0  0
    7.2365   -0.4870   22.2725 C   0  0  0  0  0  0  0  0  0  0  0  0
    7.3580   -0.6819   20.9341 N   0  0  0  0  0  0  0  0  0  0  0  0
    6.6608   -0.0016   19.9080 C   0  0  0  0  0  0  0  0  0  0  0  0
    5.4426    0.6454   20.1683 C   0  0  0  0  0  0  0  0  0  0  0  0
    4.8145    1.3025   19.1101 C   0  0  0  0  0  0  0  0  0  0  0  0
    5.4064    1.2882   17.8439 C   0  0  0  0  0  0  0  0  0  0  0  0
    6.5735    0.6702   17.5932 N   0  0  0  0  0  0  0  0  0  0  0  0
    7.1841    0.0474   18.6047 C   0  0  0  0  0  0  0  0  0  0  0  0
    8.1293   -0.4350   18.3748 H   0  0  0  0  0  0  0  0  0  0  0  0
    4.9258    1.7785   16.9996 H   0  0  0  0  0  0  0  0  0  0  0  0
    3.8839    1.8350   19.2643 H   0  0  0  0  0  0  0  0  0  0  0  0
    4.9923    0.6274   21.1613 H   0  0  0  0  0  0  0  0  0  0  0  0
    8.3006   -1.6086   20.6520 N   0  0  0  0  0  0  0  0  0  0  0  0
    8.7390   -2.0135   21.8293 C   0  0  0  0  0  0  0  0  0  0  0  0
    9.5205   -2.7588   21.9058 H   0  0  0  0  0  0  0  0  0  0  0  0
    6.5631    0.2502   22.6899 H   0  0  0  0  0  0  0  0  0  0  0  0
    8.4686   -2.6989   25.0205 C   0  0  0  0  0  0  0  0  0  0  0  0
    8.2081   -3.9671   24.3960 C   0  0  0  0  0  0  0  0  0  0  0  0
    7.8859   -4.0104   23.3507 H   0  0  0  0  0  0  0  0  0  0  0  0
    8.4565    0.6908   24.5210 H   0  0  0  0  0  0  0  0  0  0  0  0
    9.0265    0.6889   26.9411 H   0  0  0  0  0  0  0  0  0  0  0  0
    9.2858   -1.4792   28.1404 H   0  0  0  0  0  0  0  0  0  0  0  0
    8.8510   -5.9189   27.0894 H   0  0  0  0  0  0  0  0  0  0  0  0
    7.8929   -6.2712   23.7052 H   0  0  0  0  0  0  0  0  0  0  0  0
  1  2  1  0
  2  3  2  0
  3  4  1  0
  4  5  2  0
  5  6  1  0
  6  7  2  0
  7  8  1  0
  8  9  2  0
  9 10  1  0
 10 11  2  0
 11 12  1  0
 12 13  1  0
 13 14  2  0
 14 15  1  0
 15 16  2  0
 16 17  1  0
 17 18  2  0
 18 19  1  0
 16 20  1  0
 15 21  1  0
 14 22  1  0
 12 23  1  0
 23 24  2  0
 24 25  1  0
 11 26  1  0
  9 27  1  0
 27 28  2  0
 28 29  1  0
  8 30  1  0
  7 31  1  0
  6 32  1  0
  3 33  1  0
  1 34  1  0
 28  2  1  0
 27  5  1  0
 24 10  1  0
 18 13  1  0
M  END
>  <cnnaffinity>  (1) 
-5.55488

>  <filename>  (1) 
Oc1cnc2cccc(-c3cnn(-c4cccnc4)c3)c2c1

$$$$
