
     RDKit          3D

 46 49  0  0  0  0  0  0  0  0999 V2000
   10.5073    4.1896   22.5026 O   0  0  0  0  0  0  0  0  0  0  0  0
   11.5322    3.3430   22.5845 C   0  0  0  0  0  0  0  0  0  0  0  0
   12.6784    3.9816   22.7217 N   0  0  0  0  0  0  0  0  0  0  0  0
   13.7711    3.2243   22.8708 C   0  0  0  0  0  0  0  0  0  0  0  0
   13.7498    1.8280   22.8264 C   0  0  0  0  0  0  0  0  0  0  0  0
   12.5300    1.1781   22.6251 C   0  0  0  0  0  0  0  0  0  0  0  0
   11.3695    1.9593   22.5333 C   0  0  0  0  0  0  0  0  0  0  0  0
   10.0156    1.4485   22.3290 C   0  0  0  0  0  0  0  0  0  0  0  0
    9.6654    0.5187   21.4580 N   0  0  0  0  0  0  0  0  0  0  0  0
    8.3350    0.3695   21.6806 C   0  0  0  0  0  0  0  0  0  0  0  0
    7.4589   -0.6096   20.9538 C   0  0  0  0  0  0  0  0  0  0  0  0
    6.6532   -0.0066   19.8106 C   0  0  0  0  0  0  0  0  0  0  0  0
    5.4380    0.6398   20.0639 C   0  0  0  0  0  0  0  0  0  0  0  0
    4.7975    1.3118   19.0205 C   0  0  0  0  0  0  0  0  0  0  0  0
    5.3944    1.3073   17.7561 C   0  0  0  0  0  0  0  0  0  0  0  0
    6.5345    0.6546   17.4784 N   0  0  0  0  0  0  0  0  0  0  0  0
    7.1335    0.0137   18.4888 C   0  0  0  0  0  0  0  0  0  0  0  0
    8.0574   -0.5132   18.2434 H   0  0  0  0  0  0  0  0  0  0  0  0
    4.9383    1.8443   16.9264 H   0  0  0  0  0  0  0  0  0  0  0  0
    3.8672    1.8469   19.1773 H   0  0  0  0  0  0  0  0  0  0  0  0
    5.0154    0.6209   21.0708 H   0  0  0  0  0  0  0  0  0  0  0  0
    6.7759   -1.0401   21.6962 H   0  0  0  0  0  0  0  0  0  0  0  0
    8.1060   -1.4110   20.5866 H   0  0  0  0  0  0  0  0  0  0  0  0
    7.8501    1.1392   22.6375 N   0  0  0  0  0  0  0  0  0  0  0  0
    8.9313    1.8486   23.0401 N   0  0  0  0  0  0  0  0  0  0  0  0
    8.8110    2.7362   24.1909 C   0  0  0  0  0  0  0  0  0  0  0  0
    7.7608    3.8305   23.9203 C   0  0  0  0  0  0  0  0  0  0  0  0
    7.6902    4.8058   25.1066 C   0  0  0  0  0  0  0  0  0  0  0  0
    7.4429    4.0870   26.4316 C   0  0  0  0  0  0  0  0  0  0  0  0
    7.5731    4.9897   27.4588 F   0  0  0  0  0  0  0  0  0  0  0  0
    6.1543    3.6218   26.4812 F   0  0  0  0  0  0  0  0  0  0  0  0
    8.4192    2.9423   26.6631 C   0  0  0  0  0  0  0  0  0  0  0  0
    8.5488    1.9560   25.4915 C   0  0  0  0  0  0  0  0  0  0  0  0
    9.4058    1.2963   25.6810 H   0  0  0  0  0  0  0  0  0  0  0  0
    7.6650    1.3161   25.3780 H   0  0  0  0  0  0  0  0  0  0  0  0
    9.3807    3.4492   26.7794 H   0  0  0  0  0  0  0  0  0  0  0  0
    8.1753    2.4340   27.5994 H   0  0  0  0  0  0  0  0  0  0  0  0
    8.6510    5.3363   25.2005 H   0  0  0  0  0  0  0  0  0  0  0  0
    6.9102    5.5592   24.9641 H   0  0  0  0  0  0  0  0  0  0  0  0
    6.7836    3.3601   23.7403 H   0  0  0  0  0  0  0  0  0  0  0  0
    8.0430    4.3696   23.0089 H   0  0  0  0  0  0  0  0  0  0  0  0
    9.7714    3.2229   24.3407 H   0  0  0  0  0  0  0  0  0  0  0  0
   12.4822    0.0903   22.5431 H   0  0  0  0  0  0  0  0  0  0  0  0
   14.6737    1.2738   22.9317 H   0  0  0  0  0  0  0  0  0  0  0  0
   14.6901    3.7753   23.0326 H   0  0  0  0  0  0  0  0  0  0  0  0
   11.0472    4.9947   22.3805 H   0  0  0  0  0  0  0  0  0  0  0  0
  1  2  1  0
  2  3  2  0
  3  4  1  0
  4  5  2  0
  5  6  1  0
  6  7  2  0
  7  8  1  0
  8  9  2  0
  9 10  1  0
 10 11  1  0
 11 12  1  0
 12 13  2  0
 13 14  1  0
 14 15  2  0
 15 16  1  0
 16 17  2  0
 17 18  1  0
 15 19  1  0
 14 20  1  0
 13 21  1  0
 11 22  1  0
 11 23  1  0
 10 24  2  0
 24 25  1  0
 25 26  1  0
 26 27  1  0
 27 28  1  0
 28 29  1  0
 29 30  1  0
 29 31  1  0
 29 32  1  0
 32 33  1  0
 33 34  1  0
 33 35  1  0
 32 36  1  0
 32 37  1  0
 28 38  1  0
 28 39  1  0
 27 40  1  0
 27 41  1  0
 26 42  1  0
  6 43  1  0
  5 44  1  0
  4 45  1  0
  1 46  1  0
  7  2  1  0
 25  8  1  0
 33 26  1  0
 17 12  1  0
M  END
>  <cnnaffinity>  (1) 
-5.86929

>  <filename>  (1) 
Oc1ncccc1-c1nc(Cc2cccnc2)nn1C1CCC(F)(F)CC1

$$$$
