
     RDKit          3D

 38 40  0  0  0  0  0  0  0  0999 V2000
    7.9379   -2.8031   22.0083 O   0  0  0  0  0  0  0  0  0  0  0  0
    7.5126   -2.1000   20.8573 C   0  0  0  0  0  0  0  0  0  0  0  0
    7.3436   -0.5950   21.1041 C   0  0  0  0  0  0  0  0  0  0  0  0
    8.7636   -0.0614   21.3625 C   0  0  0  0  0  0  0  0  0  0  0  0
    8.7582    1.2925   21.8136 N   0  0  0  0  0  0  0  0  0  0  0  0
    9.8668    2.0250   22.0285 C   0  0  0  0  0  0  0  0  0  0  0  0
    9.7236    3.2427   22.3943 N   0  0  0  0  0  0  0  0  0  0  0  0
   10.9614    3.8144   22.5636 C   0  0  0  0  0  0  0  0  0  0  0  0
   12.0853    2.9915   22.3494 C   0  0  0  0  0  0  0  0  0  0  0  0
   13.3781    3.4701   22.5489 C   0  0  0  0  0  0  0  0  0  0  0  0
   13.5285    4.8179   22.8847 C   0  0  0  0  0  0  0  0  0  0  0  0
   12.4128    5.6568   23.0657 C   0  0  0  0  0  0  0  0  0  0  0  0
   11.1190    5.1545   22.9179 C   0  0  0  0  0  0  0  0  0  0  0  0
    9.8313    5.9146   23.0984 C   0  0  0  0  0  0  0  0  0  0  0  0
    8.9931    5.3056   23.9568 F   0  0  0  0  0  0  0  0  0  0  0  0
   10.0523    7.1484   23.5981 F   0  0  0  0  0  0  0  0  0  0  0  0
    9.1537    6.0879   21.9486 F   0  0  0  0  0  0  0  0  0  0  0  0
   12.5748    6.6985   23.3280 H   0  0  0  0  0  0  0  0  0  0  0  0
   14.5268    5.2208   23.0039 H   0  0  0  0  0  0  0  0  0  0  0  0
   14.2404    2.8128   22.4565 H   0  0  0  0  0  0  0  0  0  0  0  0
   11.5207    1.4161   21.8355 S   0  0  0  0  0  0  0  0  0  0  0  0
    7.9567    1.9089   21.7867 H   0  0  0  0  0  0  0  0  0  0  0  0
    9.3797   -0.1654   20.4514 H   0  0  0  0  0  0  0  0  0  0  0  0
    9.2304   -0.7094   22.1159 H   0  0  0  0  0  0  0  0  0  0  0  0
    6.6091    0.0943   19.9585 C   0  0  0  0  0  0  0  0  0  0  0  0
    5.3831    0.7518   20.1469 C   0  0  0  0  0  0  0  0  0  0  0  0
    4.7622    1.3697   19.0557 C   0  0  0  0  0  0  0  0  0  0  0  0
    5.3898    1.3209   17.8081 C   0  0  0  0  0  0  0  0  0  0  0  0
    6.5533    0.6880   17.5968 N   0  0  0  0  0  0  0  0  0  0  0  0
    7.1313    0.0976   18.6516 C   0  0  0  0  0  0  0  0  0  0  0  0
    8.0670   -0.4232   18.4447 H   0  0  0  0  0  0  0  0  0  0  0  0
    4.9348    1.7979   16.9403 H   0  0  0  0  0  0  0  0  0  0  0  0
    3.8133    1.8859   19.1598 H   0  0  0  0  0  0  0  0  0  0  0  0
    4.9175    0.7639   21.1340 H   0  0  0  0  0  0  0  0  0  0  0  0
    6.7628   -0.4477   22.0254 H   0  0  0  0  0  0  0  0  0  0  0  0
    6.6230   -2.5521   20.3976 H   0  0  0  0  0  0  0  0  0  0  0  0
    8.3418   -2.1768   20.1543 H   0  0  0  0  0  0  0  0  0  0  0  0
    7.2041   -2.8283   22.6376 H   0  0  0  0  0  0  0  0  0  0  0  0
  1  2  1  0
  2  3  1  0
  3  4  1  0
  4  5  1  0
  5  6  1  0
  6  7  2  0
  7  8  1  0
  8  9  2  0
  9 10  1  0
 10 11  2  0
 11 12  1  0
 12 13  2  0
 13 14  1  0
 14 15  1  0
 14 16  1  0
 14 17  1  0
 12 18  1  0
 11 19  1  0
 10 20  1  0
  9 21  1  0
  5 22  1  0
  4 23  1  0
  4 24  1  0
  3 25  1  0
 25 26  2  0
 26 27  1  0
 27 28  2  0
 28 29  1  0
 29 30  2  0
 30 31  1  0
 28 32  1  0
 27 33  1  0
 26 34  1  0
  3 35  1  0
  2 36  1  0
  2 37  1  0
  1 38  1  0
 21  6  1  0
 30 25  1  0
 13  8  1  0
M  END
>  <cnnaffinity>  (1) 
-5.19932

>  <filename>  (1) 
OCC(CNc1nc2c(C(F)(F)F)cccc2s1)c1cccnc1

$$$$
