
     RDKit          3D

 34 35  0  0  0  0  0  0  0  0999 V2000
    8.9245   -1.1639   25.1551 O   0  0  0  0  0  0  0  0  0  0  0  0
    8.2292   -0.5268   24.0976 C   0  0  0  0  0  0  0  0  0  0  0  0
    9.0751   -0.3589   22.7998 C   0  0  0  0  0  0  0  0  0  0  0  0
    8.2923    0.2042   21.6361 N   0  0  0  0  0  4  0  0  0  0  0  0
    7.3700   -0.7346   20.9673 C   0  0  0  0  0  0  0  0  0  0  0  0
    6.6460    0.0221   19.8968 C   0  0  0  0  0  0  0  0  0  0  0  0
    5.4270    0.6743   20.1347 C   0  0  0  0  0  0  0  0  0  0  0  0
    4.7919    1.3328   19.0799 C   0  0  0  0  0  0  0  0  0  0  0  0
    5.4044    1.3205   17.8236 C   0  0  0  0  0  0  0  0  0  0  0  0
    6.5744    0.7130   17.5807 N   0  0  0  0  0  0  0  0  0  0  0  0
    7.1724    0.0889   18.6006 C   0  0  0  0  0  0  0  0  0  0  0  0
    8.1161   -0.4027   18.3588 H   0  0  0  0  0  0  0  0  0  0  0  0
    4.9408    1.8176   16.9699 H   0  0  0  0  0  0  0  0  0  0  0  0
    3.8489    1.8546   19.2116 H   0  0  0  0  0  0  0  0  0  0  0  0
    4.9798    0.6618   21.1328 H   0  0  0  0  0  0  0  0  0  0  0  0
    7.9222   -1.5857   20.5492 H   0  0  0  0  0  0  0  0  0  0  0  0
    6.6526   -1.1459   21.6884 H   0  0  0  0  0  0  0  0  0  0  0  0
    7.7117    1.0361   21.9302 H   0  0  0  0  0  0  0  0  0  0  0  0
    8.9738    0.5763   20.9267 H   0  0  0  0  0  0  0  0  0  0  0  0
   10.3267    0.4781   22.9915 C   0  0  0  0  0  0  0  0  0  0  0  0
   10.2446    1.8478   23.3111 C   0  0  0  0  0  0  0  0  0  0  0  0
   11.3928    2.5873   23.6050 C   0  0  0  0  0  0  0  0  0  0  0  0
   12.6406    1.9576   23.6147 C   0  0  0  0  0  0  0  0  0  0  0  0
   12.7515    0.6110   23.2698 C   0  0  0  0  0  0  0  0  0  0  0  0
   14.3316   -0.0978   23.2667 Cl  0  0  0  0  0  0  0  0  0  0  0  0
   11.6078   -0.1188   22.9101 C   0  0  0  0  0  0  0  0  0  0  0  0
   11.8210   -1.7357   22.2947 Cl  0  0  0  0  0  0  0  0  0  0  0  0
   13.5633    2.4863   23.8262 H   0  0  0  0  0  0  0  0  0  0  0  0
   11.3175    3.6538   23.8018 H   0  0  0  0  0  0  0  0  0  0  0  0
    9.2724    2.3446   23.3185 H   0  0  0  0  0  0  0  0  0  0  0  0
    9.4014   -1.3680   22.5448 H   0  0  0  0  0  0  0  0  0  0  0  0
    7.2929   -1.0486   23.8298 H   0  0  0  0  0  0  0  0  0  0  0  0
    7.9620    0.4627   24.4894 H   0  0  0  0  0  0  0  0  0  0  0  0
    9.1876   -2.0691   24.9408 H   0  0  0  0  0  0  0  0  0  0  0  0
  1  2  1  0
  2  3  1  0
  3  4  1  0
  4  5  1  0
  5  6  1  0
  6  7  2  0
  7  8  1  0
  8  9  2  0
  9 10  1  0
 10 11  2  0
 11 12  1  0
  9 13  1  0
  8 14  1  0
  7 15  1  0
  5 16  1  0
  5 17  1  0
  4 18  1  0
  4 19  1  0
  3 20  1  0
 20 21  2  0
 21 22  1  0
 22 23  2  0
 23 24  1  0
 24 25  1  0
 24 26  2  0
 26 27  1  0
 23 28  1  0
 22 29  1  0
 21 30  1  0
  3 31  1  0
  2 32  1  0
  2 33  1  0
  1 34  1  0
 11  6  1  0
 26 20  1  0
M  CHG  1   4   1
M  END
>  <cnnaffinity>  (1) 
-5.17233

>  <filename>  (1) 
OCC([NH2+]Cc1cccnc1)c1cccc(Cl)c1Cl

$$$$
