
     RDKit          3D

 40 42  0  0  0  0  0  0  0  0999 V2000
    5.9079   -3.3302   23.8626 O   0  0  0  0  0  0  0  0  0  0  0  0
    7.1717   -3.2644   24.4806 C   0  0  0  0  0  0  0  0  0  0  0  0
    7.8444   -1.8717   24.3589 C   0  0  0  0  0  0  0  0  0  0  0  0
    7.2715   -0.8406   25.3486 C   0  0  0  0  0  0  0  0  0  0  0  0
    5.8995   -0.5623   25.3799 C   0  0  0  0  0  0  0  0  0  0  0  0
    5.3993    0.5077   26.1246 C   0  0  0  0  0  0  0  0  0  0  0  0
    6.2535    1.2410   26.9551 C   0  0  0  0  0  0  0  0  0  0  0  0
    7.6047    0.8885   27.0447 C   0  0  0  0  0  0  0  0  0  0  0  0
    8.1054   -0.1424   26.2374 C   0  0  0  0  0  0  0  0  0  0  0  0
    9.1587   -0.3974   26.2970 H   0  0  0  0  0  0  0  0  0  0  0  0
    8.2695    1.4183   27.7265 H   0  0  0  0  0  0  0  0  0  0  0  0
    5.8674    2.0783   27.5293 H   0  0  0  0  0  0  0  0  0  0  0  0
    4.3483    0.7680   26.0363 H   0  0  0  0  0  0  0  0  0  0  0  0
    5.2251   -1.2052   24.8277 H   0  0  0  0  0  0  0  0  0  0  0  0
    7.7864   -1.4420   22.9028 C   0  0  0  0  0  0  0  0  0  0  0  0
    6.7791   -0.8759   22.2626 N   0  0  0  0  0  0  0  0  0  0  0  0
    7.2358   -0.7085   20.9964 C   0  0  0  0  0  0  0  0  0  0  0  0
    6.5279   -0.0070   19.9277 C   0  0  0  0  0  0  0  0  0  0  0  0
    5.3252    0.6877   20.1165 C   0  0  0  0  0  0  0  0  0  0  0  0
    4.7758    1.3447   19.0166 C   0  0  0  0  0  0  0  0  0  0  0  0
    5.4486    1.2974   17.7897 C   0  0  0  0  0  0  0  0  0  0  0  0
    6.6026    0.6402   17.6022 N   0  0  0  0  0  0  0  0  0  0  0  0
    7.1271    0.0111   18.6557 C   0  0  0  0  0  0  0  0  0  0  0  0
    8.0741   -0.4966   18.4761 H   0  0  0  0  0  0  0  0  0  0  0  0
    5.0422    1.8078   16.9196 H   0  0  0  0  0  0  0  0  0  0  0  0
    3.8520    1.9074   19.0978 H   0  0  0  0  0  0  0  0  0  0  0  0
    4.8526    0.7288   21.1009 H   0  0  0  0  0  0  0  0  0  0  0  0
    8.4325   -1.2191   20.7949 N   0  0  0  0  0  0  0  0  0  0  0  0
    8.7666   -1.7283   21.9959 N   0  0  0  0  0  0  0  0  0  0  0  0
   10.0328   -2.4143   22.0325 C   0  0  0  0  0  0  0  0  0  0  0  0
   11.2085   -1.4921   22.2880 C   0  0  0  0  0  0  0  0  0  0  0  0
   11.1011   -0.8974   23.4937 F   0  0  0  0  0  0  0  0  0  0  0  0
   11.3427   -0.5350   21.3702 F   0  0  0  0  0  0  0  0  0  0  0  0
   12.3331   -2.2283   22.2820 F   0  0  0  0  0  0  0  0  0  0  0  0
   10.0457   -3.2132   22.7689 H   0  0  0  0  0  0  0  0  0  0  0  0
   10.1465   -2.8321   21.0324 H   0  0  0  0  0  0  0  0  0  0  0  0
    8.9048   -1.9906   24.6106 H   0  0  0  0  0  0  0  0  0  0  0  0
    7.8541   -4.0394   24.0860 H   0  0  0  0  0  0  0  0  0  0  0  0
    7.0150   -3.4998   25.5394 H   0  0  0  0  0  0  0  0  0  0  0  0
    5.9208   -2.7820   23.0617 H   0  0  0  0  0  0  0  0  0  0  0  0
  1  2  1  0
  2  3  1  0
  3  4  1  0
  4  5  2  0
  5  6  1  0
  6  7  2  0
  7  8  1  0
  8  9  2  0
  9 10  1  0
  8 11  1  0
  7 12  1  0
  6 13  1  0
  5 14  1  0
  3 15  1  0
 15 16  2  0
 16 17  1  0
 17 18  1  0
 18 19  2  0
 19 20  1  0
 20 21  2  0
 21 22  1  0
 22 23  2  0
 23 24  1  0
 21 25  1  0
 20 26  1  0
 19 27  1  0
 17 28  2  0
 28 29  1  0
 29 30  1  0
 30 31  1  0
 31 32  1  0
 31 33  1  0
 31 34  1  0
 30 35  1  0
 30 36  1  0
  3 37  1  0
  2 38  1  0
  2 39  1  0
  1 40  1  0
  9  4  1  0
 29 15  1  0
 23 18  1  0
M  END
>  <cnnaffinity>  (1) 
-5.86834

>  <filename>  (1) 
OCC(c1ccccc1)c1nc(-c2cccnc2)nn1CC(F)(F)F

$$$$
