
     RDKit          3D

 31 32  0  0  0  0  0  0  0  0999 V2000
    6.2314   -2.7781   20.6086 O   0  0  0  0  0  0  0  0  0  0  0  0
    7.4100   -2.0984   21.0117 C   0  0  0  0  0  0  0  0  0  0  0  0
    7.3061   -0.5579   21.2167 C   0  0  0  0  0  0  0  0  0  0  0  0
    8.6508   -0.0121   21.3782 N   0  0  0  0  0  0  0  0  0  0  0  0
    9.4040   -0.2329   22.4609 C   0  0  0  0  0  0  0  0  0  0  0  0
    8.8428   -0.9700   23.4209 N   0  0  0  0  0  0  0  0  0  0  0  0
    9.5416   -1.1848   24.5375 C   0  0  0  0  0  0  0  0  0  0  0  0
    8.8453   -2.0435   25.6526 C   0  0  0  0  0  0  0  0  0  0  0  0
    7.5039   -1.9450   25.6072 F   0  0  0  0  0  0  0  0  0  0  0  0
    9.1462   -3.3507   25.5194 F   0  0  0  0  0  0  0  0  0  0  0  0
    9.2148   -1.6881   26.8919 F   0  0  0  0  0  0  0  0  0  0  0  0
   10.7864   -0.7505   24.7328 N   0  0  0  0  0  0  0  0  0  0  0  0
   11.3517   -0.0248   23.7532 C   0  0  0  0  0  0  0  0  0  0  0  0
   10.7043    0.2886   22.5776 C   0  0  0  0  0  0  0  0  0  0  0  0
   11.4482    1.2562   21.3366 Cl  0  0  0  0  0  0  0  0  0  0  0  0
   12.3700    0.3148   23.9372 H   0  0  0  0  0  0  0  0  0  0  0  0
    9.0318    0.5825   20.6679 H   0  0  0  0  0  0  0  0  0  0  0  0
    6.6287    0.1565   20.0843 C   0  0  0  0  0  0  0  0  0  0  0  0
    5.3871    0.7897   20.2165 C   0  0  0  0  0  0  0  0  0  0  0  0
    4.8078    1.3629   19.0836 C   0  0  0  0  0  0  0  0  0  0  0  0
    5.4991    1.2990   17.8687 C   0  0  0  0  0  0  0  0  0  0  0  0
    6.6956    0.7044   17.7295 N   0  0  0  0  0  0  0  0  0  0  0  0
    7.2305    0.1529   18.8249 C   0  0  0  0  0  0  0  0  0  0  0  0
    8.1911   -0.3535   18.7045 H   0  0  0  0  0  0  0  0  0  0  0  0
    5.0702    1.7396   16.9690 H   0  0  0  0  0  0  0  0  0  0  0  0
    3.8431    1.8572   19.1306 H   0  0  0  0  0  0  0  0  0  0  0  0
    4.8975    0.8422   21.1922 H   0  0  0  0  0  0  0  0  0  0  0  0
    6.7332   -0.3823   22.1354 H   0  0  0  0  0  0  0  0  0  0  0  0
    8.1727   -2.2099   20.2437 H   0  0  0  0  0  0  0  0  0  0  0  0
    7.8432   -2.5189   21.9255 H   0  0  0  0  0  0  0  0  0  0  0  0
    5.6812   -2.8923   21.3939 H   0  0  0  0  0  0  0  0  0  0  0  0
  1  2  1  0
  2  3  1  0
  3  4  1  0
  4  5  1  0
  5  6  2  0
  6  7  1  0
  7  8  1  0
  8  9  1  0
  8 10  1  0
  8 11  1  0
  7 12  2  0
 12 13  1  0
 13 14  2  0
 14 15  1  0
 13 16  1  0
  4 17  1  0
  3 18  1  0
 18 19  2  0
 19 20  1  0
 20 21  2  0
 21 22  1  0
 22 23  2  0
 23 24  1  0
 21 25  1  0
 20 26  1  0
 19 27  1  0
  3 28  1  0
  2 29  1  0
  2 30  1  0
  1 31  1  0
 14  5  1  0
 23 18  1  0
M  END
>  <cnnaffinity>  (1) 
-5.00336

>  <filename>  (1) 
OCC(Nc1nc(C(F)(F)F)ncc1Cl)c1cccnc1

$$$$
