
     RDKit          3D

 33 35  0  0  0  0  0  0  0  0999 V2000
    9.0862    1.7139   20.7479 O   0  0  0  0  0  0  0  0  0  0  0  0
    9.5954    0.3962   20.8423 C   0  0  0  0  0  0  0  0  0  0  0  0
    8.6310   -0.5949   21.4113 C   0  0  0  0  0  0  0  0  0  0  0  0
    8.8366   -1.4845   22.3550 N   0  0  0  0  0  0  0  0  0  0  0  0
    7.5952   -2.0299   22.5411 C   0  0  0  0  0  0  0  0  0  0  0  0
    7.3230   -3.0636   23.6159 C   0  0  0  0  0  0  0  0  0  0  0  0
    6.2581   -3.8575   23.4014 N   0  0  0  0  0  0  0  0  0  0  0  0
    5.9629   -4.8410   24.2453 C   0  0  0  0  0  0  0  0  0  0  0  0
    6.7339   -5.1193   25.3741 C   0  0  0  0  0  0  0  0  0  0  0  0
    7.8266   -4.3087   25.6352 C   0  0  0  0  0  0  0  0  0  0  0  0
    8.1113   -3.2356   24.7824 C   0  0  0  0  0  0  0  0  0  0  0  0
    9.2446   -2.3227   25.1827 C   0  0  0  0  0  0  0  0  0  0  0  0
    8.9416   -1.0244   25.0477 F   0  0  0  0  0  0  0  0  0  0  0  0
    9.5511   -2.4838   26.4896 F   0  0  0  0  0  0  0  0  0  0  0  0
   10.3553   -2.5755   24.4721 F   0  0  0  0  0  0  0  0  0  0  0  0
    8.4511   -4.4690   26.5120 H   0  0  0  0  0  0  0  0  0  0  0  0
    6.4642   -5.9218   26.0471 H   0  0  0  0  0  0  0  0  0  0  0  0
    5.0750   -5.4227   23.9941 H   0  0  0  0  0  0  0  0  0  0  0  0
    6.6702   -1.5515   21.7229 N   0  0  0  0  0  0  0  0  0  0  0  0
    7.3431   -0.6523   20.9730 N   0  0  0  0  0  0  0  0  0  0  0  0
    6.6855    0.0353   19.9110 C   0  0  0  0  0  0  0  0  0  0  0  0
    5.4575    0.6532   20.1627 C   0  0  0  0  0  0  0  0  0  0  0  0
    4.8166    1.3107   19.1095 C   0  0  0  0  0  0  0  0  0  0  0  0
    5.4076    1.2941   17.8394 C   0  0  0  0  0  0  0  0  0  0  0  0
    6.5620    0.6640   17.5781 N   0  0  0  0  0  0  0  0  0  0  0  0
    7.1826    0.0557   18.5952 C   0  0  0  0  0  0  0  0  0  0  0  0
    8.1112   -0.4541   18.3442 H   0  0  0  0  0  0  0  0  0  0  0  0
    4.9384    1.8014   16.9982 H   0  0  0  0  0  0  0  0  0  0  0  0
    3.8775    1.8332   19.2572 H   0  0  0  0  0  0  0  0  0  0  0  0
    5.0301    0.5827   21.1633 H   0  0  0  0  0  0  0  0  0  0  0  0
    9.7377    0.0834   19.8073 H   0  0  0  0  0  0  0  0  0  0  0  0
   10.5558    0.3028   21.3702 H   0  0  0  0  0  0  0  0  0  0  0  0
    9.0080    2.1475   21.6108 H   0  0  0  0  0  0  0  0  0  0  0  0
  1  2  1  0
  2  3  1  0
  3  4  2  0
  4  5  1  0
  5  6  1  0
  6  7  2  0
  7  8  1  0
  8  9  2  0
  9 10  1  0
 10 11  2  0
 11 12  1  0
 12 13  1  0
 12 14  1  0
 12 15  1  0
 10 16  1  0
  9 17  1  0
  8 18  1  0
  5 19  2  0
 19 20  1  0
 20 21  1  0
 21 22  2  0
 22 23  1  0
 23 24  2  0
 24 25  1  0
 25 26  2  0
 26 27  1  0
 24 28  1  0
 23 29  1  0
 22 30  1  0
  2 31  1  0
  2 32  1  0
  1 33  1  0
 20  3  1  0
 26 21  1  0
 11  6  1  0
M  END
>  <cnnaffinity>  (1) 
-5.53015

>  <filename>  (1) 
OCc1nc(-c2ncccc2C(F)(F)F)nn1-c1cccnc1

$$$$
