
     RDKit          3D

 46 49  0  0  0  0  0  0  0  0999 V2000
   13.2111    5.9072   21.3472 O   0  0  0  0  0  0  0  0  0  0  0  0
   12.7223    5.4025   22.5764 C   0  0  0  0  0  0  0  0  0  0  0  0
   12.5737    3.8974   22.5809 C   0  0  0  0  0  0  0  0  0  0  0  0
   11.3409    3.2563   22.5293 C   0  0  0  0  0  0  0  0  0  0  0  0
   11.2100    1.8596   22.6781 C   0  0  0  0  0  0  0  0  0  0  0  0
    9.8674    1.2585   22.5267 C   0  0  0  0  0  0  0  0  0  0  0  0
    9.5428    0.2212   21.7696 N   0  0  0  0  0  0  0  0  0  0  0  0
    8.1886    0.2799   21.7282 C   0  0  0  0  0  0  0  0  0  0  0  0
    7.3506   -0.6498   20.8834 C   0  0  0  0  0  0  0  0  0  0  0  0
    6.6189    0.0021   19.7066 C   0  0  0  0  0  0  0  0  0  0  0  0
    5.4508    0.7456   19.9240 C   0  0  0  0  0  0  0  0  0  0  0  0
    4.8315    1.3792   18.8435 C   0  0  0  0  0  0  0  0  0  0  0  0
    5.4043    1.2506   17.5756 C   0  0  0  0  0  0  0  0  0  0  0  0
    6.5069    0.5251   17.3366 N   0  0  0  0  0  0  0  0  0  0  0  0
    7.0840   -0.0842   18.3798 C   0  0  0  0  0  0  0  0  0  0  0  0
    7.9742   -0.6734   18.1508 H   0  0  0  0  0  0  0  0  0  0  0  0
    4.9581    1.7423   16.7132 H   0  0  0  0  0  0  0  0  0  0  0  0
    3.9280    1.9664   18.9636 H   0  0  0  0  0  0  0  0  0  0  0  0
    5.0434    0.8282   20.9332 H   0  0  0  0  0  0  0  0  0  0  0  0
    6.6126   -1.1027   21.5566 H   0  0  0  0  0  0  0  0  0  0  0  0
    8.0188   -1.4442   20.5376 H   0  0  0  0  0  0  0  0  0  0  0  0
    7.6561    1.2361   22.4639 N   0  0  0  0  0  0  0  0  0  0  0  0
    8.7341    1.8502   23.0004 N   0  0  0  0  0  0  0  0  0  0  0  0
    8.5108    2.9335   23.9562 C   0  0  0  0  0  0  0  0  0  0  0  0
    7.8207    2.4927   25.2305 C   0  0  0  0  0  0  0  0  0  0  0  0
    8.4663    1.6709   26.1646 C   0  0  0  0  0  0  0  0  0  0  0  0
    7.7878    1.3193   27.3371 C   0  0  0  0  0  0  0  0  0  0  0  0
    6.5468    1.7295   27.6275 N   0  0  0  0  0  0  0  0  0  0  0  0
    5.9317    2.5093   26.7293 C   0  0  0  0  0  0  0  0  0  0  0  0
    6.5235    2.9146   25.5274 C   0  0  0  0  0  0  0  0  0  0  0  0
    5.9664    3.5457   24.8408 H   0  0  0  0  0  0  0  0  0  0  0  0
    4.9234    2.8339   26.9790 H   0  0  0  0  0  0  0  0  0  0  0  0
    8.2675    0.6807   28.0788 H   0  0  0  0  0  0  0  0  0  0  0  0
    9.4745    1.3025   26.0101 H   0  0  0  0  0  0  0  0  0  0  0  0
    9.4678    3.3861   24.2153 H   0  0  0  0  0  0  0  0  0  0  0  0
    7.9086    3.6904   23.4480 H   0  0  0  0  0  0  0  0  0  0  0  0
   12.3678    1.0809   22.8692 C   0  0  0  0  0  0  0  0  0  0  0  0
   13.6270    1.6947   22.8527 C   0  0  0  0  0  0  0  0  0  0  0  0
   13.6979    3.0713   22.6569 C   0  0  0  0  0  0  0  0  0  0  0  0
   14.8931    3.6703   22.4772 F   0  0  0  0  0  0  0  0  0  0  0  0
   14.5483    1.1293   22.9635 H   0  0  0  0  0  0  0  0  0  0  0  0
   12.2915    0.0054   23.0200 H   0  0  0  0  0  0  0  0  0  0  0  0
   10.4556    3.8547   22.3172 H   0  0  0  0  0  0  0  0  0  0  0  0
   11.7479    5.8711   22.7432 H   0  0  0  0  0  0  0  0  0  0  0  0
   13.3776    5.7019   23.4096 H   0  0  0  0  0  0  0  0  0  0  0  0
   14.0686    5.4759   21.2140 H   0  0  0  0  0  0  0  0  0  0  0  0
  1  2  1  0
  2  3  1  0
  3  4  2  0
  4  5  1  0
  5  6  1  0
  6  7  2  0
  7  8  1  0
  8  9  1  0
  9 10  1  0
 10 11  2  0
 11 12  1  0
 12 13  2  0
 13 14  1  0
 14 15  2  0
 15 16  1  0
 13 17  1  0
 12 18  1  0
 11 19  1  0
  9 20  1  0
  9 21  1  0
  8 22  2  0
 22 23  1  0
 23 24  1  0
 24 25  1  0
 25 26  2  0
 26 27  1  0
 27 28  2  0
 28 29  1  0
 29 30  2  0
 30 31  1  0
 29 32  1  0
 27 33  1  0
 26 34  1  0
 24 35  1  0
 24 36  1  0
  5 37  2  0
 37 38  1  0
 38 39  2  0
 39 40  1  0
 38 41  1  0
 37 42  1  0
  4 43  1  0
  2 44  1  0
  2 45  1  0
  1 46  1  0
 39  3  1  0
 23  6  1  0
 30 25  1  0
 15 10  1  0
M  END
>  <cnnaffinity>  (1) 
-5.90788

>  <filename>  (1) 
OCc1cc(-c2nc(Cc3cccnc3)nn2Cc2ccncc2)ccc1F

$$$$
