
     RDKit          3D

 34 36  0  0  0  0  0  0  0  0999 V2000
    9.6366   -0.2188   19.6543 O   0  0  0  0  0  0  0  0  0  0  0  0
    9.3866    0.3253   20.9464 C   0  0  0  0  0  0  0  0  0  0  0  0
    8.3259   -0.4717   21.6627 C   0  0  0  0  0  0  0  0  0  0  0  0
    8.4707   -1.2096   22.7419 N   0  0  0  0  0  0  0  0  0  0  0  0
    7.3020   -1.9091   22.8147 C   0  0  0  0  0  0  0  0  0  0  0  0
    7.0731   -2.9662   23.8333 C   0  0  0  0  0  0  0  0  0  0  0  0
    8.1542   -3.4095   24.6151 C   0  0  0  0  0  0  0  0  0  0  0  0
    7.9698   -4.4035   25.5844 C   0  0  0  0  0  0  0  0  0  0  0  0
    9.1593   -4.9297   26.3597 C   0  0  0  0  0  0  0  0  0  0  0  0
    8.8244   -5.3201   27.6037 F   0  0  0  0  0  0  0  0  0  0  0  0
   10.1275   -4.0077   26.4833 F   0  0  0  0  0  0  0  0  0  0  0  0
    9.7120   -5.9948   25.7452 F   0  0  0  0  0  0  0  0  0  0  0  0
    6.7032   -4.9766   25.7633 C   0  0  0  0  0  0  0  0  0  0  0  0
    5.6325   -4.5540   24.9698 C   0  0  0  0  0  0  0  0  0  0  0  0
    5.8061   -3.5602   24.0033 C   0  0  0  0  0  0  0  0  0  0  0  0
    4.9809   -3.2671   23.3541 H   0  0  0  0  0  0  0  0  0  0  0  0
    4.6614   -5.0222   25.0904 H   0  0  0  0  0  0  0  0  0  0  0  0
    6.5561   -5.7614   26.5029 H   0  0  0  0  0  0  0  0  0  0  0  0
    9.1406   -2.9855   24.4282 H   0  0  0  0  0  0  0  0  0  0  0  0
    6.4401   -1.6101   21.8577 N   0  0  0  0  0  0  0  0  0  0  0  0
    7.0995   -0.6982   21.1067 N   0  0  0  0  0  0  0  0  0  0  0  0
    6.4655   -0.0728   19.9900 C   0  0  0  0  0  0  0  0  0  0  0  0
    5.2633    0.6158   20.1690 C   0  0  0  0  0  0  0  0  0  0  0  0
    4.7361    1.3186   19.0831 C   0  0  0  0  0  0  0  0  0  0  0  0
    5.4110    1.2880   17.8558 C   0  0  0  0  0  0  0  0  0  0  0  0
    6.5365    0.5851   17.6660 N   0  0  0  0  0  0  0  0  0  0  0  0
    7.0322   -0.0998   18.6997 C   0  0  0  0  0  0  0  0  0  0  0  0
    7.9285   -0.6728   18.5033 H   0  0  0  0  0  0  0  0  0  0  0  0
    5.0338    1.8273   16.9905 H   0  0  0  0  0  0  0  0  0  0  0  0
    3.8203    1.8899   19.1745 H   0  0  0  0  0  0  0  0  0  0  0  0
    4.7774    0.5871   21.1461 H   0  0  0  0  0  0  0  0  0  0  0  0
   10.2854    0.3740   21.5771 H   0  0  0  0  0  0  0  0  0  0  0  0
    9.0315    1.3472   20.7815 H   0  0  0  0  0  0  0  0  0  0  0  0
   10.1120   -1.0644   19.7324 H   0  0  0  0  0  0  0  0  0  0  0  0
  1  2  1  0
  2  3  1  0
  3  4  2  0
  4  5  1  0
  5  6  1  0
  6  7  2  0
  7  8  1  0
  8  9  1  0
  9 10  1  0
  9 11  1  0
  9 12  1  0
  8 13  2  0
 13 14  1  0
 14 15  2  0
 15 16  1  0
 14 17  1  0
 13 18  1  0
  7 19  1  0
  5 20  2  0
 20 21  1  0
 21 22  1  0
 22 23  2  0
 23 24  1  0
 24 25  2  0
 25 26  1  0
 26 27  2  0
 27 28  1  0
 25 29  1  0
 24 30  1  0
 23 31  1  0
  2 32  1  0
  2 33  1  0
  1 34  1  0
 21  3  1  0
 27 22  1  0
 15  6  1  0
M  END
>  <cnnaffinity>  (1) 
-5.25722

>  <filename>  (1) 
OCc1nc(-c2cccc(C(F)(F)F)c2)nn1-c1cccnc1

$$$$
