
     RDKit          3D

 34 36  0  0  0  0  0  0  0  0999 V2000
    9.7845   -3.4613   23.2054 O   0  0  0  0  0  0  0  0  0  0  0  0
   10.0143   -2.3811   22.3153 C   0  0  0  0  0  0  0  0  0  0  0  0
    8.7886   -1.6156   21.8688 C   0  0  0  0  0  0  0  0  0  0  0  0
    8.5256   -1.1214   20.6729 N   0  0  0  0  0  0  0  0  0  0  0  0
    7.2747   -0.6019   20.8250 C   0  0  0  0  0  0  0  0  0  0  0  0
    6.5619    0.0858   19.7527 C   0  0  0  0  0  0  0  0  0  0  0  0
    5.3443    0.7630   19.9486 C   0  0  0  0  0  0  0  0  0  0  0  0
    4.7774    1.4101   18.8543 C   0  0  0  0  0  0  0  0  0  0  0  0
    5.4366    1.3634   17.6184 C   0  0  0  0  0  0  0  0  0  0  0  0
    6.5954    0.7142   17.4256 N   0  0  0  0  0  0  0  0  0  0  0  0
    7.1399    0.0984   18.4784 C   0  0  0  0  0  0  0  0  0  0  0  0
    8.0829   -0.4133   18.3021 H   0  0  0  0  0  0  0  0  0  0  0  0
    5.0141    1.8617   16.7479 H   0  0  0  0  0  0  0  0  0  0  0  0
    3.8433    1.9548   18.9405 H   0  0  0  0  0  0  0  0  0  0  0  0
    4.8714    0.7839   20.9340 H   0  0  0  0  0  0  0  0  0  0  0  0
    6.7574   -0.7591   22.0279 N   0  0  0  0  0  0  0  0  0  0  0  0
    7.7564   -1.3614   22.7128 N   0  0  0  0  0  0  0  0  0  0  0  0
    7.6401   -1.6512   24.0969 C   0  0  0  0  0  0  0  0  0  0  0  0
    6.4407   -2.1905   24.5604 C   0  0  0  0  0  0  0  0  0  0  0  0
    6.3539   -2.6364   25.8861 C   0  0  0  0  0  0  0  0  0  0  0  0
    4.9960   -3.0774   26.4027 C   0  0  0  0  0  0  0  0  0  0  0  0
    4.2759   -3.7090   25.4537 F   0  0  0  0  0  0  0  0  0  0  0  0
    5.0874   -3.9111   27.4511 F   0  0  0  0  0  0  0  0  0  0  0  0
    4.2561   -2.0231   26.8032 F   0  0  0  0  0  0  0  0  0  0  0  0
    7.4910   -2.5842   26.7178 C   0  0  0  0  0  0  0  0  0  0  0  0
    8.6527   -1.9486   26.2637 C   0  0  0  0  0  0  0  0  0  0  0  0
    8.7243   -1.4470   24.9634 C   0  0  0  0  0  0  0  0  0  0  0  0
    9.6109   -0.9199   24.6239 H   0  0  0  0  0  0  0  0  0  0  0  0
    9.5090   -1.8279   26.9221 H   0  0  0  0  0  0  0  0  0  0  0  0
    7.5004   -3.0359   27.7041 H   0  0  0  0  0  0  0  0  0  0  0  0
    5.6055   -2.2702   23.8658 H   0  0  0  0  0  0  0  0  0  0  0  0
   10.5679   -2.6677   21.4184 H   0  0  0  0  0  0  0  0  0  0  0  0
   10.6656   -1.7035   22.8743 H   0  0  0  0  0  0  0  0  0  0  0  0
    9.1882   -4.1206   22.8234 H   0  0  0  0  0  0  0  0  0  0  0  0
  1  2  1  0
  2  3  1  0
  3  4  2  0
  4  5  1  0
  5  6  1  0
  6  7  2  0
  7  8  1  0
  8  9  2  0
  9 10  1  0
 10 11  2  0
 11 12  1  0
  9 13  1  0
  8 14  1  0
  7 15  1  0
  5 16  2  0
 16 17  1  0
 17 18  1  0
 18 19  2  0
 19 20  1  0
 20 21  1  0
 21 22  1  0
 21 23  1  0
 21 24  1  0
 20 25  2  0
 25 26  1  0
 26 27  2  0
 27 28  1  0
 26 29  1  0
 25 30  1  0
 19 31  1  0
  2 32  1  0
  2 33  1  0
  1 34  1  0
 17  3  1  0
 27 18  1  0
 11  6  1  0
M  END
>  <cnnaffinity>  (1) 
-5.39262

>  <filename>  (1) 
OCc1nc(-c2cccnc2)nn1-c1cccc(C(F)(F)F)c1

$$$$
