
     RDKit          3D

 36 38  0  0  0  0  0  0  0  0999 V2000
    5.1767   -6.4164   26.5798 H   0  0  0  0  0  0  0  0  0  0  0  0
    4.2826   -6.7633   26.4528 O   0  0  0  0  0  0  0  0  0  0  0  0
    3.4263   -5.6839   26.0854 C   0  0  0  0  0  0  0  0  0  0  0  0
    3.1595   -5.0842   26.9709 H   0  0  0  0  0  0  0  0  0  0  0  0
    2.5131   -6.1654   25.7151 H   0  0  0  0  0  0  0  0  0  0  0  0
    4.0059   -4.7854   25.0122 C   0  0  0  0  0  0  0  0  0  0  0  0
    3.8802   -5.1177   23.6500 C   0  0  0  0  0  0  0  0  0  0  0  0
    3.2783   -5.9788   23.3679 H   0  0  0  0  0  0  0  0  0  0  0  0
    4.5142   -4.3600   22.6639 C   0  0  0  0  0  0  0  0  0  0  0  0
    4.4221   -4.6706   21.6282 H   0  0  0  0  0  0  0  0  0  0  0  0
    5.2975   -3.2345   22.9913 C   0  0  0  0  0  0  0  0  0  0  0  0
    5.9233   -2.4232   21.9125 C   0  0  0  0  0  0  0  0  0  0  0  0
    5.4030   -2.4578   20.9533 H   0  0  0  0  0  0  0  0  0  0  0  0
    7.0617   -1.7026   21.9740 C   0  0  0  0  0  0  0  0  0  0  0  0
    7.5572   -0.7329   20.9566 C   0  0  0  0  0  0  0  0  0  0  0  0
    6.7236   -0.0605   19.9312 C   0  0  0  0  0  0  0  0  0  0  0  0
    7.2630    0.0398   18.6425 C   0  0  0  0  0  0  0  0  0  0  0  0
    8.2298   -0.4106   18.4244 H   0  0  0  0  0  0  0  0  0  0  0  0
    6.6530    0.6486   17.6234 N   0  0  0  0  0  0  0  0  0  0  0  0
    5.4725    1.2348   17.8769 C   0  0  0  0  0  0  0  0  0  0  0  0
    5.0038    1.7374   17.0314 H   0  0  0  0  0  0  0  0  0  0  0  0
    4.8609    1.2321   19.1346 C   0  0  0  0  0  0  0  0  0  0  0  0
    3.9227    1.7595   19.2699 H   0  0  0  0  0  0  0  0  0  0  0  0
    5.4932    0.5619   20.1874 C   0  0  0  0  0  0  0  0  0  0  0  0
    5.0480    0.5343   21.1846 H   0  0  0  0  0  0  0  0  0  0  0  0
    8.8127   -0.4828   21.0423 N   0  0  0  0  0  0  0  0  0  0  0  0
    9.3848   -1.2422   22.1528 C   0  0  0  0  0  0  0  0  0  0  0  0
   10.0083   -0.5814   22.7613 H   0  0  0  0  0  0  0  0  0  0  0  0
   10.0208   -2.0224   21.7188 H   0  0  0  0  0  0  0  0  0  0  0  0
    8.2100   -1.8434   22.9577 C   0  0  0  0  0  0  0  0  0  0  0  0
    8.0399   -1.2243   23.8452 H   0  0  0  0  0  0  0  0  0  0  0  0
    8.3843   -2.8724   23.2807 H   0  0  0  0  0  0  0  0  0  0  0  0
    5.4038   -2.8949   24.3573 C   0  0  0  0  0  0  0  0  0  0  0  0
    5.9736   -2.0161   24.6469 H   0  0  0  0  0  0  0  0  0  0  0  0
    4.7481   -3.6392   25.3402 C   0  0  0  0  0  0  0  0  0  0  0  0
    4.8007   -3.3131   26.3770 H   0  0  0  0  0  0  0  0  0  0  0  0
  1  2  1  0
  2  3  1  0
  3  4  1  0
  3  5  1  0
  3  6  1  0
  6  7  2  0
  7  8  1  0
  7  9  1  0
  9 10  1  0
  9 11  2  0
 11 12  1  0
 12 13  1  0
 12 14  2  3
 14 15  1  0
 15 16  1  0
 16 17  2  0
 17 18  1  0
 17 19  1  0
 19 20  2  0
 20 21  1  0
 20 22  1  0
 22 23  1  0
 22 24  2  0
 24 25  1  0
 15 26  2  0
 26 27  1  0
 27 28  1  0
 27 29  1  0
 27 30  1  0
 30 31  1  0
 30 32  1  0
 11 33  1  0
 33 34  1  0
 33 35  2  0
 35 36  1  0
 35  6  1  0
 30 14  1  0
 24 16  1  0
M  END
>  <cnnaffinity>  (1) 
-5.01566

>  <filename>  (1) 
OCc1ccc(C=C2CCN=C2c2cccnc2)cc1

$$$$
