
     RDKit          3D

 29 30  0  0  0  0  0  0  0  0999 V2000
    9.2233   -4.9531   26.5220 H   0  0  0  0  0  0  0  0  0  0  0  0
   10.0878   -4.5546   26.3591 O   0  0  0  0  0  0  0  0  0  0  0  0
   10.4615   -4.8996   25.0308 C   0  0  0  0  0  0  0  0  0  0  0  0
   11.5320   -4.6813   24.9714 H   0  0  0  0  0  0  0  0  0  0  0  0
   10.3521   -5.9827   24.8626 H   0  0  0  0  0  0  0  0  0  0  0  0
    9.7228   -4.1114   23.9646 C   0  0  0  0  0  0  0  0  0  0  0  0
    9.9986   -2.7449   23.7779 C   0  0  0  0  0  0  0  0  0  0  0  0
   10.7447   -2.2641   24.4067 H   0  0  0  0  0  0  0  0  0  0  0  0
    9.3236   -1.9909   22.8218 C   0  0  0  0  0  0  0  0  0  0  0  0
    9.6000   -0.9498   22.6670 H   0  0  0  0  0  0  0  0  0  0  0  0
    8.3132   -2.5790   22.0374 C   0  0  0  0  0  0  0  0  0  0  0  0
    7.5129   -1.7897   21.0709 C   0  0  0  0  0  0  0  0  0  0  0  0
    7.1059   -2.3668   20.2446 H   0  0  0  0  0  0  0  0  0  0  0  0
    7.1645   -0.4924   21.0739 C   0  0  0  0  0  0  0  0  0  0  0  0
    7.4285    0.5553   22.4422 Cl  0  0  0  0  0  0  0  0  0  0  0  0
    6.4901    0.1961   19.9412 C   0  0  0  0  0  0  0  0  0  0  0  0
    7.0742    0.1452   18.6670 C   0  0  0  0  0  0  0  0  0  0  0  0
    8.0427   -0.3367   18.5486 H   0  0  0  0  0  0  0  0  0  0  0  0
    6.5463    0.6977   17.5690 N   0  0  0  0  0  0  0  0  0  0  0  0
    5.3859    1.3538   17.7186 C   0  0  0  0  0  0  0  0  0  0  0  0
    4.9736    1.8016   16.8158 H   0  0  0  0  0  0  0  0  0  0  0  0
    4.7331    1.4977   18.9499 C   0  0  0  0  0  0  0  0  0  0  0  0
    3.8105    2.0651   19.0020 H   0  0  0  0  0  0  0  0  0  0  0  0
    5.3011    0.9300   20.0914 C   0  0  0  0  0  0  0  0  0  0  0  0
    4.8492    1.0542   21.0775 H   0  0  0  0  0  0  0  0  0  0  0  0
    8.0713   -3.9630   22.1836 C   0  0  0  0  0  0  0  0  0  0  0  0
    7.3262   -4.4536   21.5627 H   0  0  0  0  0  0  0  0  0  0  0  0
    8.7550   -4.7164   23.1434 C   0  0  0  0  0  0  0  0  0  0  0  0
    8.5286   -5.7743   23.2864 H   0  0  0  0  0  0  0  0  0  0  0  0
  1  2  1  0
  2  3  1  0
  3  4  1  0
  3  5  1  0
  3  6  1  0
  6  7  2  0
  7  8  1  0
  7  9  1  0
  9 10  1  0
  9 11  2  0
 11 12  1  0
 12 13  1  0
 12 14  2  3
 14 15  1  0
 14 16  1  0
 16 17  2  0
 17 18  1  0
 17 19  1  0
 19 20  2  0
 20 21  1  0
 20 22  1  0
 22 23  1  0
 22 24  2  0
 24 25  1  0
 11 26  1  0
 26 27  1  0
 26 28  2  0
 28 29  1  0
 28  6  1  0
 24 16  1  0
M  END
>  <cnnaffinity>  (1) 
-4.7499

>  <filename>  (1) 
OCc1ccc(C=C(Cl)c2cccnc2)cc1

$$$$
