
     RDKit          3D

 31 33  0  0  0  0  0  0  0  0999 V2000
    3.9053   -3.5766   25.8232 H   0  0  0  0  0  0  0  0  0  0  0  0
    4.1285   -3.5240   26.7594 O   0  0  0  0  0  0  0  0  0  0  0  0
    4.9708   -2.3900   26.9224 C   0  0  0  0  0  0  0  0  0  0  0  0
    4.4466   -1.4712   26.6130 H   0  0  0  0  0  0  0  0  0  0  0  0
    5.1389   -2.3217   28.0018 H   0  0  0  0  0  0  0  0  0  0  0  0
    6.3001   -2.5045   26.1894 C   0  0  0  0  0  0  0  0  0  0  0  0
    7.3957   -3.1528   26.7871 C   0  0  0  0  0  0  0  0  0  0  0  0
    7.2792   -3.5880   27.7716 H   0  0  0  0  0  0  0  0  0  0  0  0
    8.6149   -3.2847   26.1152 C   0  0  0  0  0  0  0  0  0  0  0  0
    9.4503   -3.7865   26.5949 H   0  0  0  0  0  0  0  0  0  0  0  0
    8.7618   -2.7877   24.8246 C   0  0  0  0  0  0  0  0  0  0  0  0
    9.7049   -2.8879   24.2879 H   0  0  0  0  0  0  0  0  0  0  0  0
    7.6754   -2.1451   24.1983 C   0  0  0  0  0  0  0  0  0  0  0  0
    7.8207   -1.6269   22.8190 C   0  0  0  0  0  0  0  0  0  0  0  0
    6.8158   -1.0003   22.1514 N   0  0  0  0  0  0  0  0  0  0  0  0
    7.3414   -0.6930   20.9850 C   0  0  0  0  0  0  0  0  0  0  0  0
    6.6511    0.0174   19.9040 C   0  0  0  0  0  0  0  0  0  0  0  0
    7.1642    0.0615   18.5998 C   0  0  0  0  0  0  0  0  0  0  0  0
    8.1056   -0.4212   18.3339 H   0  0  0  0  0  0  0  0  0  0  0  0
    6.5593    0.6731   17.5780 N   0  0  0  0  0  0  0  0  0  0  0  0
    5.3970    1.2966   17.8285 C   0  0  0  0  0  0  0  0  0  0  0  0
    4.9346    1.7943   16.9768 H   0  0  0  0  0  0  0  0  0  0  0  0
    4.7988    1.3171   19.0939 C   0  0  0  0  0  0  0  0  0  0  0  0
    3.8663    1.8496   19.2331 H   0  0  0  0  0  0  0  0  0  0  0  0
    5.4272    0.6636   20.1499 C   0  0  0  0  0  0  0  0  0  0  0  0
    4.9990    0.6403   21.1542 H   0  0  0  0  0  0  0  0  0  0  0  0
    8.6148   -1.1317   20.9537 N   0  0  0  0  0  0  0  0  0  0  0  0
    9.3096   -1.0115   20.2315 H   0  0  0  0  0  0  0  0  0  0  0  0
    8.9438   -1.7267   22.1198 N   0  0  0  0  0  0  0  0  0  0  0  0
    6.4586   -2.0018   24.8929 C   0  0  0  0  0  0  0  0  0  0  0  0
    5.6328   -1.4934   24.3982 H   0  0  0  0  0  0  0  0  0  0  0  0
  1  2  1  0
  2  3  1  0
  3  4  1  0
  3  5  1  0
  3  6  1  0
  6  7  2  0
  7  8  1  0
  7  9  1  0
  9 10  1  0
  9 11  2  0
 11 12  1  0
 11 13  1  0
 13 14  1  0
 14 15  1  0
 15 16  2  0
 16 17  1  0
 17 18  2  0
 18 19  1  0
 18 20  1  0
 20 21  2  0
 21 22  1  0
 21 23  1  0
 23 24  1  0
 23 25  2  0
 25 26  1  0
 16 27  1  0
 27 28  1  0
 27 29  1  0
 13 30  2  0
 30 31  1  0
 30  6  1  0
 29 14  2  0
 25 17  1  0
M  END
>  <cnnaffinity>  (1) 
-4.70242

>  <filename>  (1) 
OCc1cccc(-c2n[nH]c(-c3cccnc3)n2)c1

$$$$
