
     RDKit          3D

 37 39  0  0  0  0  0  0  0  0999 V2000
    7.0702   -5.5324   26.5130 H   0  0  0  0  0  0  0  0  0  0  0  0
    7.7469   -4.8449   26.4999 O   0  0  0  0  0  0  0  0  0  0  0  0
    7.5131   -3.9394   27.5704 C   0  0  0  0  0  0  0  0  0  0  0  0
    8.3596   -4.0226   28.2673 H   0  0  0  0  0  0  0  0  0  0  0  0
    6.6127   -4.2261   28.1257 H   0  0  0  0  0  0  0  0  0  0  0  0
    7.3251   -2.4849   27.0795 C   0  0  0  0  0  0  0  0  0  0  0  0
    7.0170   -1.8729   27.9367 H   0  0  0  0  0  0  0  0  0  0  0  0
    6.1774   -2.4189   26.0360 C   0  0  0  0  0  0  0  0  0  0  0  0
    6.0669   -3.4007   25.5622 H   0  0  0  0  0  0  0  0  0  0  0  0
    5.2209   -2.1961   26.5217 H   0  0  0  0  0  0  0  0  0  0  0  0
    6.4114   -1.4186   24.9038 C   0  0  0  0  0  0  0  0  0  0  0  0
    5.6749   -1.6053   24.1282 H   0  0  0  0  0  0  0  0  0  0  0  0
    6.2849   -0.3812   25.2513 H   0  0  0  0  0  0  0  0  0  0  0  0
    7.7306   -1.5907   24.2913 N   0  0  0  0  0  0  0  0  0  0  0  0
    7.8407   -1.4426   22.9366 N   0  0  0  0  0  0  0  0  0  0  0  0
    6.9629   -0.6871   22.2691 N   0  0  0  0  0  0  0  0  0  0  0  0
    7.3767   -0.7035   21.0083 C   0  0  0  0  0  0  0  0  0  0  0  0
    6.6328    0.0070   19.9625 C   0  0  0  0  0  0  0  0  0  0  0  0
    7.1639    0.0383   18.6650 C   0  0  0  0  0  0  0  0  0  0  0  0
    8.1090   -0.4543   18.4506 H   0  0  0  0  0  0  0  0  0  0  0  0
    6.5890    0.6496   17.6254 N   0  0  0  0  0  0  0  0  0  0  0  0
    5.4284    1.2788   17.8548 C   0  0  0  0  0  0  0  0  0  0  0  0
    4.9798    1.7801   16.9992 H   0  0  0  0  0  0  0  0  0  0  0  0
    4.8021    1.3082   19.1064 C   0  0  0  0  0  0  0  0  0  0  0  0
    3.8663    1.8420   19.2225 H   0  0  0  0  0  0  0  0  0  0  0  0
    5.4091    0.6651   20.1852 C   0  0  0  0  0  0  0  0  0  0  0  0
    4.9552    0.6778   21.1784 H   0  0  0  0  0  0  0  0  0  0  0  0
    8.5570   -1.4766   20.8708 C   0  0  0  0  0  0  0  0  0  0  0  0
    9.1520   -1.6238   19.9807 H   0  0  0  0  0  0  0  0  0  0  0  0
    8.8063   -1.9481   22.1322 C   0  0  0  0  0  0  0  0  0  0  0  0
    9.5580   -2.5963   22.5684 H   0  0  0  0  0  0  0  0  0  0  0  0
    8.8373   -2.1602   25.0557 C   0  0  0  0  0  0  0  0  0  0  0  0
    9.7896   -1.7213   24.7271 H   0  0  0  0  0  0  0  0  0  0  0  0
    8.9012   -3.2528   24.9080 H   0  0  0  0  0  0  0  0  0  0  0  0
    8.6246   -1.8434   26.5350 C   0  0  0  0  0  0  0  0  0  0  0  0
    8.5459   -0.7535   26.6426 H   0  0  0  0  0  0  0  0  0  0  0  0
    9.4988   -2.1559   27.1163 H   0  0  0  0  0  0  0  0  0  0  0  0
  1  2  1  0
  2  3  1  0
  3  4  1  0
  3  5  1  0
  3  6  1  0
  6  7  1  0
  6  8  1  0
  8  9  1  0
  8 10  1  0
  8 11  1  0
 11 12  1  0
 11 13  1  0
 11 14  1  0
 14 15  1  0
 15 16  1  0
 16 17  2  0
 17 18  1  0
 18 19  2  0
 19 20  1  0
 19 21  1  0
 21 22  2  0
 22 23  1  0
 22 24  1  0
 24 25  1  0
 24 26  2  0
 26 27  1  0
 17 28  1  0
 28 29  1  0
 28 30  2  0
 30 31  1  0
 14 32  1  0
 32 33  1  0
 32 34  1  0
 32 35  1  0
 35 36  1  0
 35 37  1  0
 35  6  1  0
 30 15  1  0
 26 18  1  0
M  END
>  <cnnaffinity>  (1) 
-4.66989

>  <filename>  (1) 
OCC1CCN(n2ccc(-c3cccnc3)n2)CC1

$$$$
