
     RDKit          3D

 51 55  0  0  0  0  0  0  0  0999 V2000
   13.0161    6.3356   23.3365 O   0  0  0  0  0  0  0  0  0  0  0  0
   12.8203    5.5619   22.1529 C   0  0  0  0  0  0  0  0  0  0  0  0
   12.6717    4.0744   22.4007 C   0  0  0  0  0  0  0  0  0  0  0  0
   13.7739    3.2425   22.6529 C   0  0  0  0  0  0  0  0  0  0  0  0
   13.6129    1.8510   22.7096 C   0  0  0  0  0  0  0  0  0  0  0  0
   12.3599    1.2760   22.5044 C   0  0  0  0  0  0  0  0  0  0  0  0
   11.2284    2.0949   22.3589 C   0  0  0  0  0  0  0  0  0  0  0  0
    9.8889    1.4722   22.2484 C   0  0  0  0  0  0  0  0  0  0  0  0
    9.5621    0.4635   21.4599 N   0  0  0  0  0  0  0  0  0  0  0  0
    8.2383    0.3013   21.7014 C   0  0  0  0  0  0  0  0  0  0  0  0
    7.3842   -0.6922   20.9660 C   0  0  0  0  0  0  0  0  0  0  0  0
    6.6098   -0.0519   19.8249 C   0  0  0  0  0  0  0  0  0  0  0  0
    5.4125    0.6241   20.0848 C   0  0  0  0  0  0  0  0  0  0  0  0
    4.7878    1.3076   19.0401 C   0  0  0  0  0  0  0  0  0  0  0  0
    5.3890    1.3052   17.7786 C   0  0  0  0  0  0  0  0  0  0  0  0
    6.5319    0.6572   17.5065 N   0  0  0  0  0  0  0  0  0  0  0  0
    7.1194    0.0037   18.5165 C   0  0  0  0  0  0  0  0  0  0  0  0
    8.0589   -0.4978   18.2779 H   0  0  0  0  0  0  0  0  0  0  0  0
    4.9346    1.8500   16.9519 H   0  0  0  0  0  0  0  0  0  0  0  0
    3.8693    1.8569   19.1982 H   0  0  0  0  0  0  0  0  0  0  0  0
    4.9983    0.6345   21.0957 H   0  0  0  0  0  0  0  0  0  0  0  0
    8.0290   -1.4978   20.6058 H   0  0  0  0  0  0  0  0  0  0  0  0
    6.6888   -1.1362   21.6862 H   0  0  0  0  0  0  0  0  0  0  0  0
    7.7363    1.1143   22.6070 N   0  0  0  0  0  0  0  0  0  0  0  0
    8.8078    1.8715   22.9636 N   0  0  0  0  0  0  0  0  0  0  0  0
    8.6972    2.8696   24.0158 C   0  0  0  0  0  0  0  0  0  0  0  0
    8.0705    4.1915   23.6452 C   0  0  0  0  0  0  0  0  0  0  0  0
    8.7988    5.3958   23.7049 C   0  0  0  0  0  0  0  0  0  0  0  0
    8.1854    6.6194   23.4397 C   0  0  0  0  0  0  0  0  0  0  0  0
    6.8259    6.6547   23.1119 C   0  0  0  0  0  0  0  0  0  0  0  0
    6.0959    5.4635   23.0365 C   0  0  0  0  0  0  0  0  0  0  0  0
    6.7175    4.2379   23.2844 C   0  0  0  0  0  0  0  0  0  0  0  0
    6.1764    3.2970   23.1999 H   0  0  0  0  0  0  0  0  0  0  0  0
    5.0415    5.4856   22.7808 H   0  0  0  0  0  0  0  0  0  0  0  0
    6.3421    7.6034   22.9069 H   0  0  0  0  0  0  0  0  0  0  0  0
    8.7670    7.5341   23.4927 H   0  0  0  0  0  0  0  0  0  0  0  0
    9.8552    5.3747   23.9631 H   0  0  0  0  0  0  0  0  0  0  0  0
    9.7660    2.9174   25.0642 C   0  0  0  0  0  0  0  0  0  0  0  0
    8.4418    2.3150   25.3931 C   0  0  0  0  0  0  0  0  0  0  0  0
    7.7640    2.8680   26.0333 H   0  0  0  0  0  0  0  0  0  0  0  0
    8.4120    1.2333   25.4667 H   0  0  0  0  0  0  0  0  0  0  0  0
    9.9576    3.9198   25.4334 H   0  0  0  0  0  0  0  0  0  0  0  0
   10.6211    2.2591   24.9337 H   0  0  0  0  0  0  0  0  0  0  0  0
   11.4046    3.4850   22.3187 C   0  0  0  0  0  0  0  0  0  0  0  0
   10.5281    4.1265   22.2600 H   0  0  0  0  0  0  0  0  0  0  0  0
   12.2480    0.1966   22.4257 H   0  0  0  0  0  0  0  0  0  0  0  0
   14.4864    1.2137   22.8326 H   0  0  0  0  0  0  0  0  0  0  0  0
   14.7656    3.6823   22.7207 H   0  0  0  0  0  0  0  0  0  0  0  0
   13.6920    5.7592   21.5153 H   0  0  0  0  0  0  0  0  0  0  0  0
   11.9260    5.9088   21.6072 H   0  0  0  0  0  0  0  0  0  0  0  0
   12.5013    5.9182   24.0365 H   0  0  0  0  0  0  0  0  0  0  0  0
  1  2  1  0
  2  3  1  0
  3  4  2  0
  4  5  1  0
  5  6  2  0
  6  7  1  0
  7  8  1  0
  8  9  2  0
  9 10  1  0
 10 11  1  0
 11 12  1  0
 12 13  2  0
 13 14  1  0
 14 15  2  0
 15 16  1  0
 16 17  2  0
 17 18  1  0
 15 19  1  0
 14 20  1  0
 13 21  1  0
 11 22  1  0
 11 23  1  0
 10 24  2  0
 24 25  1  0
 25 26  1  0
 26 27  1  0
 27 28  2  0
 28 29  1  0
 29 30  2  0
 30 31  1  0
 31 32  2  0
 32 33  1  0
 31 34  1  0
 30 35  1  0
 29 36  1  0
 28 37  1  0
 26 38  1  0
 38 39  1  0
 39 40  1  0
 39 41  1  0
 38 42  1  0
 38 43  1  0
  7 44  2  0
 44 45  1  0
  6 46  1  0
  5 47  1  0
  4 48  1  0
  2 49  1  0
  2 50  1  0
  1 51  1  0
 44  3  1  0
 25  8  1  0
 39 26  1  0
 17 12  1  0
 32 27  1  0
M  END
>  <cnnaffinity>  (1) 
-6.11648

>  <filename>  (1) 
OCc1cccc(-c2nc(Cc3cccnc3)nn2C2(c3ccccc3)CC2)c1

$$$$
