
     RDKit          3D

 34 36  0  0  0  0  0  0  0  0999 V2000
    7.8101    2.2494   21.7685 O   0  0  0  0  0  0  0  0  0  0  0  0
    7.4053    1.2511   22.7325 C   0  0  0  0  0  0  0  0  0  0  0  0
    7.6415   -0.1455   22.2212 C   0  0  0  0  0  0  0  0  0  0  0  0
    8.1679   -1.1251   22.9081 N   0  0  0  0  0  0  0  0  0  0  0  0
    8.2131   -2.1360   21.9648 C   0  0  0  0  0  0  0  0  0  0  0  0
    8.8307   -3.4641   22.1741 C   0  0  0  0  0  0  0  0  0  0  0  0
    7.8711   -4.4139   22.8211 C   0  0  0  0  0  0  0  0  0  0  0  0
    7.6961   -4.4764   24.2080 C   0  0  0  0  0  0  0  0  0  0  0  0
    6.7204   -5.3271   24.7507 C   0  0  0  0  0  0  0  0  0  0  0  0
    5.9218   -6.1124   23.9101 C   0  0  0  0  0  0  0  0  0  0  0  0
    4.5749   -7.2586   24.6340 Br  0  0  0  0  0  0  0  0  0  0  0  0
    6.1344   -6.0809   22.5284 C   0  0  0  0  0  0  0  0  0  0  0  0
    7.1034   -5.2322   21.9888 C   0  0  0  0  0  0  0  0  0  0  0  0
    7.2608   -5.1894   20.9157 H   0  0  0  0  0  0  0  0  0  0  0  0
    5.5396   -6.7164   21.8824 H   0  0  0  0  0  0  0  0  0  0  0  0
    6.5785   -5.3780   25.8271 H   0  0  0  0  0  0  0  0  0  0  0  0
    8.3095   -3.8550   24.8545 H   0  0  0  0  0  0  0  0  0  0  0  0
    9.0325   -3.8273   21.1675 H   0  0  0  0  0  0  0  0  0  0  0  0
    9.7702   -3.3805   22.7345 H   0  0  0  0  0  0  0  0  0  0  0  0
    7.7542   -1.8495   20.7767 N   0  0  0  0  0  0  0  0  0  0  0  0
    7.3683   -0.5821   20.9280 N   0  0  0  0  0  0  0  0  0  0  0  0
    6.6946    0.0713   19.9119 C   0  0  0  0  0  0  0  0  0  0  0  0
    5.4842    0.7083   20.1693 C   0  0  0  0  0  0  0  0  0  0  0  0
    4.8354    1.3194   19.1003 C   0  0  0  0  0  0  0  0  0  0  0  0
    5.4193    1.2797   17.8282 C   0  0  0  0  0  0  0  0  0  0  0  0
    6.5637    0.6142   17.5655 N   0  0  0  0  0  0  0  0  0  0  0  0
    7.1800    0.0078   18.5942 C   0  0  0  0  0  0  0  0  0  0  0  0
    8.1021   -0.5353   18.3972 H   0  0  0  0  0  0  0  0  0  0  0  0
    4.9273    1.8177   17.0278 H   0  0  0  0  0  0  0  0  0  0  0  0
    3.9001    1.8529   19.2522 H   0  0  0  0  0  0  0  0  0  0  0  0
    5.0696    0.7051   21.1752 H   0  0  0  0  0  0  0  0  0  0  0  0
    7.9649    1.3907   23.6637 H   0  0  0  0  0  0  0  0  0  0  0  0
    6.3396    1.3541   22.9512 H   0  0  0  0  0  0  0  0  0  0  0  0
    7.7121    3.1531   22.1134 H   0  0  0  0  0  0  0  0  0  0  0  0
  1  2  1  0
  2  3  1  0
  3  4  2  0
  4  5  1  0
  5  6  1  0
  6  7  1  0
  7  8  2  0
  8  9  1  0
  9 10  2  0
 10 11  1  0
 10 12  1  0
 12 13  2  0
 13 14  1  0
 12 15  1  0
  9 16  1  0
  8 17  1  0
  6 18  1  0
  6 19  1  0
  5 20  2  0
 20 21  1  0
 21 22  1  0
 22 23  2  0
 23 24  1  0
 24 25  2  0
 25 26  1  0
 26 27  2  0
 27 28  1  0
 25 29  1  0
 24 30  1  0
 23 31  1  0
  2 32  1  0
  2 33  1  0
  1 34  1  0
 21  3  1  0
 27 22  1  0
 13  7  1  0
M  END
>  <cnnaffinity>  (1) 
-4.97738

>  <filename>  (1) 
OCc1nc(Cc2ccc(Br)cc2)nn1-c1cccnc1

$$$$
