
     RDKit          3D

 34 35  0  0  0  0  0  0  0  0999 V2000
    5.3162   -2.7507   21.5632 O   0  0  0  0  0  0  0  0  0  0  0  0
    6.2633   -2.7420   20.4994 C   0  0  0  0  0  0  0  0  0  0  0  0
    7.5078   -2.0164   20.9939 C   0  0  0  0  0  0  0  0  0  0  0  0
    7.2142   -0.5526   21.2997 C   0  0  1  0  0  0  0  0  0  0  0  0
    8.5059    0.0923   21.4855 N   0  0  0  0  0  0  0  0  0  0  0  0
    9.2645   -0.1886   22.5729 C   0  0  0  0  0  0  0  0  0  0  0  0
    8.7067   -0.9633   23.4780 N   0  0  0  0  0  0  0  0  0  0  0  0
    9.4252   -1.2451   24.5489 C   0  0  0  0  0  0  0  0  0  0  0  0
   10.6717   -0.7990   24.7263 N   0  0  0  0  0  0  0  0  0  0  0  0
   11.2656   -0.0125   23.8075 C   0  0  0  0  0  0  0  0  0  0  0  0
   12.7103    0.5138   24.0034 C   0  0  0  0  0  0  0  0  0  0  0  0
   13.1868    0.3155   25.2642 F   0  0  0  0  0  0  0  0  0  0  0  0
   13.5571   -0.1130   23.1406 F   0  0  0  0  0  0  0  0  0  0  0  0
   12.7625    1.8530   23.7658 F   0  0  0  0  0  0  0  0  0  0  0  0
   10.5435    0.3228   22.6687 C   0  0  0  0  0  0  0  0  0  0  0  0
   11.3012    1.4866   21.3394 Br  0  0  0  0  0  0  0  0  0  0  0  0
    8.9831   -1.8614   25.3295 H   0  0  0  0  0  0  0  0  0  0  0  0
    9.0378    0.3113   20.6576 H   0  0  0  0  0  0  0  0  0  0  0  0
    6.5811    0.1310   20.1374 C   0  0  0  0  0  0  0  0  0  0  0  0
    5.3456    0.7731   20.2434 C   0  0  0  0  0  0  0  0  0  0  0  0
    4.8238    1.3432   19.0845 C   0  0  0  0  0  0  0  0  0  0  0  0
    5.5408    1.2606   17.8830 C   0  0  0  0  0  0  0  0  0  0  0  0
    6.7295    0.6384   17.7866 N   0  0  0  0  0  0  0  0  0  0  0  0
    7.2359    0.0917   18.9039 C   0  0  0  0  0  0  0  0  0  0  0  0
    8.1864   -0.4285   18.8504 H   0  0  0  0  0  0  0  0  0  0  0  0
    5.1160    1.7050   16.9896 H   0  0  0  0  0  0  0  0  0  0  0  0
    3.8704    1.8593   19.1074 H   0  0  0  0  0  0  0  0  0  0  0  0
    4.8142    0.8326   21.1942 H   0  0  0  0  0  0  0  0  0  0  0  0
    6.5806   -0.4498   22.1941 H   0  0  0  0  0  0  0  0  0  0  0  0
    8.2980   -2.0476   20.2418 H   0  0  0  0  0  0  0  0  0  0  0  0
    7.8872   -2.5072   21.8924 H   0  0  0  0  0  0  0  0  0  0  0  0
    6.5000   -3.7724   20.2150 H   0  0  0  0  0  0  0  0  0  0  0  0
    5.8518   -2.2341   19.6197 H   0  0  0  0  0  0  0  0  0  0  0  0
    5.3243   -1.9059   22.0468 H   0  0  0  0  0  0  0  0  0  0  0  0
  1  2  1  0
  2  3  1  0
  3  4  1  0
  4  5  1  0
  5  6  1  0
  6  7  2  0
  7  8  1  0
  8  9  2  0
  9 10  1  0
 10 11  1  0
 11 12  1  0
 11 13  1  0
 11 14  1  0
 10 15  2  0
 15 16  1  0
  8 17  1  0
  5 18  1  0
  4 19  1  0
 19 20  2  0
 20 21  1  0
 21 22  2  0
 22 23  1  0
 23 24  2  0
 24 25  1  0
 22 26  1  0
 21 27  1  0
 20 28  1  0
  4 29  1  1
  3 30  1  0
  3 31  1  0
  2 32  1  0
  2 33  1  0
  1 34  1  0
 15  6  1  0
 24 19  1  0
M  END
>  <cnnaffinity>  (1) 
-5.23635

>  <filename>  (1) 
OCC[C@@H](Nc1ncnc(C(F)(F)F)c1Br)c1cccnc1

$$$$
