
     RDKit          3D

 34 35  0  0  0  0  0  0  0  0999 V2000
    6.3184   -4.1387   20.3192 O   0  0  0  0  0  0  0  0  0  0  0  0
    6.1035   -2.7805   20.6392 C   0  0  0  0  0  0  0  0  0  0  0  0
    7.3966   -2.0921   21.0289 C   0  0  0  0  0  0  0  0  0  0  0  0
    7.2856   -0.5801   21.2471 C   0  0  1  0  0  0  0  0  0  0  0  0
    8.6196   -0.0434   21.3864 N   0  0  0  0  0  0  0  0  0  0  0  0
    9.3761   -0.2481   22.4588 C   0  0  0  0  0  0  0  0  0  0  0  0
    8.8190   -0.9745   23.4278 N   0  0  0  0  0  0  0  0  0  0  0  0
    9.5099   -1.1482   24.5499 C   0  0  0  0  0  0  0  0  0  0  0  0
    8.8100   -1.9818   25.6856 C   0  0  0  0  0  0  0  0  0  0  0  0
    9.1764   -1.5944   26.9157 F   0  0  0  0  0  0  0  0  0  0  0  0
    7.4680   -1.8914   25.6385 F   0  0  0  0  0  0  0  0  0  0  0  0
    9.1118   -3.2909   25.5834 F   0  0  0  0  0  0  0  0  0  0  0  0
   10.7494   -0.6943   24.7401 N   0  0  0  0  0  0  0  0  0  0  0  0
   11.3097    0.0137   23.7464 C   0  0  0  0  0  0  0  0  0  0  0  0
   10.6673    0.2900   22.5628 C   0  0  0  0  0  0  0  0  0  0  0  0
   11.3922    1.2489   21.3048 Cl  0  0  0  0  0  0  0  0  0  0  0  0
   12.3212    0.3717   23.9276 H   0  0  0  0  0  0  0  0  0  0  0  0
    9.0129    0.5211   20.6626 H   0  0  0  0  0  0  0  0  0  0  0  0
    6.6125    0.1400   20.1163 C   0  0  0  0  0  0  0  0  0  0  0  0
    5.3739    0.7801   20.2366 C   0  0  0  0  0  0  0  0  0  0  0  0
    4.8065    1.3507   19.0959 C   0  0  0  0  0  0  0  0  0  0  0  0
    5.5047    1.2752   17.8862 C   0  0  0  0  0  0  0  0  0  0  0  0
    6.6976    0.6739   17.7592 N   0  0  0  0  0  0  0  0  0  0  0  0
    7.2239    0.1284   18.8606 C   0  0  0  0  0  0  0  0  0  0  0  0
    8.1890   -0.3716   18.7437 H   0  0  0  0  0  0  0  0  0  0  0  0
    5.0820    1.7096   16.9806 H   0  0  0  0  0  0  0  0  0  0  0  0
    3.8431    1.8482   19.1337 H   0  0  0  0  0  0  0  0  0  0  0  0
    4.8765    0.8404   21.2096 H   0  0  0  0  0  0  0  0  0  0  0  0
    6.7275   -0.3931   22.1753 H   0  0  0  0  0  0  0  0  0  0  0  0
    8.1622   -2.2182   20.2639 H   0  0  0  0  0  0  0  0  0  0  0  0
    7.8206   -2.5390   21.9312 H   0  0  0  0  0  0  0  0  0  0  0  0
    5.4018   -2.7545   21.4792 H   0  0  0  0  0  0  0  0  0  0  0  0
    5.6285   -2.2474   19.8010 H   0  0  0  0  0  0  0  0  0  0  0  0
    6.9484   -4.1336   19.5861 H   0  0  0  0  0  0  0  0  0  0  0  0
  1  2  1  0
  2  3  1  0
  3  4  1  0
  4  5  1  0
  5  6  1  0
  6  7  2  0
  7  8  1  0
  8  9  1  0
  9 10  1  0
  9 11  1  0
  9 12  1  0
  8 13  2  0
 13 14  1  0
 14 15  2  0
 15 16  1  0
 14 17  1  0
  5 18  1  0
  4 19  1  0
 19 20  2  0
 20 21  1  0
 21 22  2  0
 22 23  1  0
 23 24  2  0
 24 25  1  0
 22 26  1  0
 21 27  1  0
 20 28  1  0
  4 29  1  1
  3 30  1  0
  3 31  1  0
  2 32  1  0
  2 33  1  0
  1 34  1  0
 15  6  1  0
 24 19  1  0
M  END
>  <cnnaffinity>  (1) 
-5.38977

>  <filename>  (1) 
OCC[C@@H](Nc1nc(C(F)(F)F)ncc1Cl)c1cccnc1

$$$$
