
     RDKit          3D

 35 36  0  0  0  0  0  0  0  0999 V2000
    7.6239   -4.1665   21.8350 O   0  0  0  0  0  0  0  0  0  0  0  0
    7.7205   -2.7976   22.2015 C   0  0  0  0  0  0  0  0  0  0  0  0
    6.9747   -2.0568   21.1076 C   0  0  0  0  0  0  0  0  0  0  0  0
    7.1035   -0.5593   21.2641 C   0  0  1  0  0  0  0  0  0  0  0  0
    8.5219   -0.2032   21.2608 N   0  0  0  0  0  0  0  0  0  0  0  0
    8.9760    1.0056   21.6842 C   0  0  0  0  0  0  0  0  0  0  0  0
    8.0780    1.9976   22.0152 C   0  0  0  0  0  0  0  0  0  0  0  0
    8.5367    3.2081   22.5138 C   0  0  0  0  0  0  0  0  0  0  0  0
    9.9138    3.3654   22.6492 C   0  0  0  0  0  0  0  0  0  0  0  0
   10.5810    5.0280   23.3384 Br  0  0  0  0  0  0  0  0  0  0  0  0
   10.7919    2.3276   22.2423 C   0  0  0  0  0  0  0  0  0  0  0  0
   12.3088    2.5825   22.3019 C   0  0  0  0  0  0  0  0  0  0  0  0
   13.0175    1.4112   22.3045 F   0  0  0  0  0  0  0  0  0  0  0  0
   12.6244    3.3234   21.2013 F   0  0  0  0  0  0  0  0  0  0  0  0
   12.6835    3.2880   23.4162 F   0  0  0  0  0  0  0  0  0  0  0  0
   10.2925    1.1543   21.7559 N   0  0  0  0  0  0  0  0  0  0  0  0
    7.8481    4.0136   22.7738 H   0  0  0  0  0  0  0  0  0  0  0  0
    7.0334    1.7865   21.8514 H   0  0  0  0  0  0  0  0  0  0  0  0
    9.2125   -0.7966   20.8218 H   0  0  0  0  0  0  0  0  0  0  0  0
    6.4959    0.1286   20.0859 C   0  0  0  0  0  0  0  0  0  0  0  0
    5.2751    0.8012   20.1785 C   0  0  0  0  0  0  0  0  0  0  0  0
    4.7766    1.3870   19.0194 C   0  0  0  0  0  0  0  0  0  0  0  0
    5.4904    1.2903   17.8216 C   0  0  0  0  0  0  0  0  0  0  0  0
    6.6693    0.6476   17.7367 N   0  0  0  0  0  0  0  0  0  0  0  0
    7.1631    0.0877   18.8520 C   0  0  0  0  0  0  0  0  0  0  0  0
    8.1211   -0.4219   18.7890 H   0  0  0  0  0  0  0  0  0  0  0  0
    5.0731    1.7455   16.9296 H   0  0  0  0  0  0  0  0  0  0  0  0
    3.8417    1.9335   19.0279 H   0  0  0  0  0  0  0  0  0  0  0  0
    4.7321    0.8744   21.1205 H   0  0  0  0  0  0  0  0  0  0  0  0
    6.6096   -0.2610   22.2010 H   0  0  0  0  0  0  0  0  0  0  0  0
    5.9216   -2.3527   21.1178 H   0  0  0  0  0  0  0  0  0  0  0  0
    7.3912   -2.3287   20.1411 H   0  0  0  0  0  0  0  0  0  0  0  0
    8.7684   -2.4715   22.2369 H   0  0  0  0  0  0  0  0  0  0  0  0
    7.2621   -2.6334   23.1847 H   0  0  0  0  0  0  0  0  0  0  0  0
    7.6579   -4.2326   20.8665 H   0  0  0  0  0  0  0  0  0  0  0  0
  1  2  1  0
  2  3  1  0
  3  4  1  0
  4  5  1  0
  5  6  1  0
  6  7  2  0
  7  8  1  0
  8  9  2  0
  9 10  1  0
  9 11  1  0
 11 12  1  0
 12 13  1  0
 12 14  1  0
 12 15  1  0
 11 16  2  0
  8 17  1  0
  7 18  1  0
  5 19  1  0
  4 20  1  0
 20 21  2  0
 21 22  1  0
 22 23  2  0
 23 24  1  0
 24 25  2  0
 25 26  1  0
 23 27  1  0
 22 28  1  0
 21 29  1  0
  4 30  1  1
  3 31  1  0
  3 32  1  0
  2 33  1  0
  2 34  1  0
  1 35  1  0
 16  6  1  0
 25 20  1  0
M  END
>  <cnnaffinity>  (1) 
-5.2977

>  <filename>  (1) 
OCC[C@@H](Nc1ccc(Br)c(C(F)(F)F)n1)c1cccnc1

$$$$
