
     RDKit          3D

 35 36  0  0  0  0  0  0  0  0999 V2000
    6.0051   -4.0584   20.0936 O   0  0  0  0  0  0  0  0  0  0  0  0
    5.6911   -2.7212   20.4259 C   0  0  0  0  0  0  0  0  0  0  0  0
    6.9355   -1.9931   20.9024 C   0  0  0  0  0  0  0  0  0  0  0  0
    6.8274   -0.4722   21.0683 C   0  0  1  0  0  0  0  0  0  0  0  0
    8.1485    0.0788   21.2386 N   0  0  0  0  0  0  0  0  0  0  0  0
    9.0126   -0.0057   22.2639 C   0  0  0  0  0  0  0  0  0  0  0  0
    8.8178   -0.6826   23.4765 C   0  0  0  0  0  0  0  0  0  0  0  0
    9.8430   -0.6350   24.4167 C   0  0  0  0  0  0  0  0  0  0  0  0
   11.0266    0.0397   24.1110 C   0  0  0  0  0  0  0  0  0  0  0  0
   12.3368    0.0050   25.2401 Cl  0  0  0  0  0  0  0  0  0  0  0  0
   11.1236    0.7118   22.8760 C   0  0  0  0  0  0  0  0  0  0  0  0
   12.4235    1.4705   22.5097 C   0  0  0  0  0  0  0  0  0  0  0  0
   12.3158    2.1461   21.3634 F   0  0  0  0  0  0  0  0  0  0  0  0
   13.4484    0.6064   22.3779 F   0  0  0  0  0  0  0  0  0  0  0  0
   12.7742    2.3585   23.4592 F   0  0  0  0  0  0  0  0  0  0  0  0
   10.1240    0.6869   21.9868 N   0  0  0  0  0  0  0  0  0  0  0  0
    9.7391   -1.1282   25.3821 H   0  0  0  0  0  0  0  0  0  0  0  0
    7.8964   -1.2241   23.6384 H   0  0  0  0  0  0  0  0  0  0  0  0
    8.5335    0.7589   20.6081 H   0  0  0  0  0  0  0  0  0  0  0  0
    6.2428    0.2053   19.8448 C   0  0  0  0  0  0  0  0  0  0  0  0
    5.0295    0.9020   19.8830 C   0  0  0  0  0  0  0  0  0  0  0  0
    4.5714    1.5221   18.7145 C   0  0  0  0  0  0  0  0  0  0  0  0
    5.3407    1.4149   17.5527 C   0  0  0  0  0  0  0  0  0  0  0  0
    6.4897    0.7273   17.4869 N   0  0  0  0  0  0  0  0  0  0  0  0
    6.9255    0.1540   18.6181 C   0  0  0  0  0  0  0  0  0  0  0  0
    7.8761   -0.3756   18.5247 H   0  0  0  0  0  0  0  0  0  0  0  0
    5.0258    1.8997   16.6310 H   0  0  0  0  0  0  0  0  0  0  0  0
    3.6475    2.0889   18.6982 H   0  0  0  0  0  0  0  0  0  0  0  0
    4.4674    0.9786   20.8155 H   0  0  0  0  0  0  0  0  0  0  0  0
    6.1901   -0.2390   21.9424 H   0  0  0  0  0  0  0  0  0  0  0  0
    7.2925   -2.4519   21.8329 H   0  0  0  0  0  0  0  0  0  0  0  0
    7.7230   -2.1558   20.1653 H   0  0  0  0  0  0  0  0  0  0  0  0
    5.2447   -2.1982   19.5609 H   0  0  0  0  0  0  0  0  0  0  0  0
    4.9469   -2.7740   21.2308 H   0  0  0  0  0  0  0  0  0  0  0  0
    6.8329   -4.0298   19.5881 H   0  0  0  0  0  0  0  0  0  0  0  0
  1  2  1  0
  2  3  1  0
  3  4  1  0
  4  5  1  0
  5  6  1  0
  6  7  2  0
  7  8  1  0
  8  9  2  0
  9 10  1  0
  9 11  1  0
 11 12  1  0
 12 13  1  0
 12 14  1  0
 12 15  1  0
 11 16  2  0
  8 17  1  0
  7 18  1  0
  5 19  1  0
  4 20  1  0
 20 21  2  0
 21 22  1  0
 22 23  2  0
 23 24  1  0
 24 25  2  0
 25 26  1  0
 23 27  1  0
 22 28  1  0
 21 29  1  0
  4 30  1  1
  3 31  1  0
  3 32  1  0
  2 33  1  0
  2 34  1  0
  1 35  1  0
 16  6  1  0
 25 20  1  0
M  END
>  <cnnaffinity>  (1) 
-4.96129

>  <filename>  (1) 
OCC[C@@H](Nc1ccc(Cl)c(C(F)(F)F)n1)c1cccnc1

$$$$
