
     RDKit          3D

 35 36  0  0  0  0  0  0  0  0999 V2000
    9.0240   -2.5105   22.2501 O   0  0  0  0  0  0  0  0  0  0  0  0
    7.6239   -2.7775   22.2373 C   0  0  0  0  0  0  0  0  0  0  0  0
    6.9838   -2.0030   21.0938 C   0  0  0  0  0  0  0  0  0  0  0  0
    7.2125   -0.5098   21.2632 C   0  0  1  0  0  0  0  0  0  0  0  0
    8.6562   -0.2817   21.1745 N   0  0  0  0  0  0  0  0  0  0  0  0
    9.2481    0.8087   21.7606 C   0  0  0  0  0  0  0  0  0  0  0  0
    8.4753    1.8898   22.1229 C   0  0  0  0  0  0  0  0  0  0  0  0
    9.0295    2.9587   22.8361 C   0  0  0  0  0  0  0  0  0  0  0  0
    8.0875    4.0922   23.3019 C   0  0  0  0  0  0  0  0  0  0  0  0
    8.7272    5.0656   24.0145 F   0  0  0  0  0  0  0  0  0  0  0  0
    7.1076    3.5693   24.1012 F   0  0  0  0  0  0  0  0  0  0  0  0
    7.4931    4.6764   22.2203 F   0  0  0  0  0  0  0  0  0  0  0  0
   10.3569    2.9313   23.1295 N   0  0  0  0  0  0  0  0  0  0  0  0
   11.1184    1.8912   22.7346 C   0  0  0  0  0  0  0  0  0  0  0  0
   10.5959    0.7998   22.0500 C   0  0  0  0  0  0  0  0  0  0  0  0
   11.7186   -0.6823   21.5824 Br  0  0  0  0  0  0  0  0  0  0  0  0
   12.1770    1.8897   22.9834 H   0  0  0  0  0  0  0  0  0  0  0  0
    7.4261    1.8550   21.8662 H   0  0  0  0  0  0  0  0  0  0  0  0
    9.2395   -1.1149   21.1726 H   0  0  0  0  0  0  0  0  0  0  0  0
    6.5638    0.1966   20.1130 C   0  0  0  0  0  0  0  0  0  0  0  0
    5.3302    0.8498   20.2102 C   0  0  0  0  0  0  0  0  0  0  0  0
    4.8009    1.3970   19.0411 C   0  0  0  0  0  0  0  0  0  0  0  0
    5.5055    1.2840   17.8369 C   0  0  0  0  0  0  0  0  0  0  0  0
    6.6963    0.6660   17.7513 N   0  0  0  0  0  0  0  0  0  0  0  0
    7.2123    0.1420   18.8730 C   0  0  0  0  0  0  0  0  0  0  0  0
    8.1700   -0.3645   18.8107 H   0  0  0  0  0  0  0  0  0  0  0  0
    5.0733    1.7136   16.9391 H   0  0  0  0  0  0  0  0  0  0  0  0
    3.8495    1.9168   19.0437 H   0  0  0  0  0  0  0  0  0  0  0  0
    4.7873    0.9253   21.1536 H   0  0  0  0  0  0  0  0  0  0  0  0
    6.8073   -0.1729   22.2278 H   0  0  0  0  0  0  0  0  0  0  0  0
    5.9123   -2.2150   21.0506 H   0  0  0  0  0  0  0  0  0  0  0  0
    7.4301   -2.3092   20.1490 H   0  0  0  0  0  0  0  0  0  0  0  0
    7.4525   -3.8514   22.1137 H   0  0  0  0  0  0  0  0  0  0  0  0
    7.1783   -2.4762   23.1884 H   0  0  0  0  0  0  0  0  0  0  0  0
    9.4373   -2.7849   21.4157 H   0  0  0  0  0  0  0  0  0  0  0  0
  1  2  1  0
  2  3  1  0
  3  4  1  0
  4  5  1  0
  5  6  1  0
  6  7  2  0
  7  8  1  0
  8  9  1  0
  9 10  1  0
  9 11  1  0
  9 12  1  0
  8 13  2  0
 13 14  1  0
 14 15  2  0
 15 16  1  0
 14 17  1  0
  7 18  1  0
  5 19  1  0
  4 20  1  0
 20 21  2  0
 21 22  1  0
 22 23  2  0
 23 24  1  0
 24 25  2  0
 25 26  1  0
 23 27  1  0
 22 28  1  0
 21 29  1  0
  4 30  1  1
  3 31  1  0
  3 32  1  0
  2 33  1  0
  2 34  1  0
  1 35  1  0
 15  6  1  0
 25 20  1  0
M  END
>  <cnnaffinity>  (1) 
-5.93773

>  <filename>  (1) 
OCC[C@@H](Nc1cc(C(F)(F)F)ncc1Br)c1cccnc1

$$$$
