
     RDKit          3D

 38 40  0  0  0  0  0  0  0  0999 V2000
   13.9717    2.2520   23.7331 H   0  0  0  0  0  0  0  0  0  0  0  0
   13.7903    1.5712   23.0728 O   0  0  0  0  0  0  0  0  0  0  0  0
   13.6649    0.3538   23.7771 C   0  0  0  0  0  0  0  0  0  0  0  0
   13.4727   -0.4177   23.0226 H   0  0  0  0  0  0  0  0  0  0  0  0
   14.6051    0.1057   24.2903 H   0  0  0  0  0  0  0  0  0  0  0  0
   12.5426    0.4075   24.8026 C   0  0  0  0  0  0  0  0  0  0  0  0
   12.6801    1.3209   25.3877 H   0  0  0  0  0  0  0  0  0  0  0  0
   12.6401   -0.4388   25.4924 H   0  0  0  0  0  0  0  0  0  0  0  0
   11.1371    0.4828   24.2195 C   0  0  0  0  0  0  0  0  0  0  0  0
   11.0219    1.4046   23.6417 H   0  0  0  0  0  0  0  0  0  0  0  0
   10.3945    0.5174   25.0324 H   0  0  0  0  0  0  0  0  0  0  0  0
   10.8379   -0.6090   23.2963 N   0  0  0  0  0  0  0  0  0  0  0  0
   10.8478   -1.5203   23.7603 H   0  0  0  0  0  0  0  0  0  0  0  0
    9.6281   -0.3518   22.6214 N   0  0  0  0  0  0  0  0  0  0  0  0
    9.7311   -0.5338   21.1501 C   0  0  0  0  0  0  0  0  0  0  0  0
   10.6666   -1.0405   20.8882 H   0  0  0  0  0  0  0  0  0  0  0  0
    9.6872    0.4359   20.6386 H   0  0  0  0  0  0  0  0  0  0  0  0
    8.5118   -1.4240   20.8327 C   0  0  2  0  0  0  0  0  0  0  0  0
    8.5708   -1.9068   19.8681 H   0  0  0  0  0  0  0  0  0  0  0  0
    7.2748   -0.6629   20.9858 N   0  0  0  0  0  0  0  0  0  0  0  0
    6.6659    0.0330   19.9490 C   0  0  0  0  0  0  0  0  0  0  0  0
    7.1829    0.0738   18.6185 C   0  0  0  0  0  0  0  0  0  0  0  0
    8.1202   -0.4261   18.3937 H   0  0  0  0  0  0  0  0  0  0  0  0
    6.6033    0.6940   17.5810 N   0  0  0  0  0  0  0  0  0  0  0  0
    5.4398    1.3218   17.8111 C   0  0  0  0  0  0  0  0  0  0  0  0
    4.9876    1.8318   16.9627 H   0  0  0  0  0  0  0  0  0  0  0  0
    4.8242    1.3351   19.0688 C   0  0  0  0  0  0  0  0  0  0  0  0
    3.8821    1.8581   19.1941 H   0  0  0  0  0  0  0  0  0  0  0  0
    5.4358    0.6928   20.1494 C   0  0  0  0  0  0  0  0  0  0  0  0
    4.9843    0.6880   21.1413 H   0  0  0  0  0  0  0  0  0  0  0  0
    7.2169   -0.2950   22.4257 C   0  0  0  0  0  0  0  0  0  0  0  0
    6.2608   -0.5946   22.8724 H   0  0  0  0  0  0  0  0  0  0  0  0
    7.3818    0.7804   22.5812 H   0  0  0  0  0  0  0  0  0  0  0  0
    8.4025   -1.1086   23.0023 C   0  0  1  0  0  0  0  0  0  0  0  0
    8.3385   -1.3073   24.0753 H   0  0  0  0  0  0  0  0  0  0  0  0
    8.4407   -2.3232   22.0678 C   0  0  0  0  0  0  0  0  0  0  0  0
    9.3402   -2.9286   22.2056 H   0  0  0  0  0  0  0  0  0  0  0  0
    7.5502   -2.9565   22.0963 H   0  0  0  0  0  0  0  0  0  0  0  0
  1  2  1  0
  2  3  1  0
  3  4  1  0
  3  5  1  0
  3  6  1  0
  6  7  1  0
  6  8  1  0
  6  9  1  0
  9 10  1  0
  9 11  1  0
  9 12  1  0
 12 13  1  0
 12 14  1  0
 14 15  1  0
 15 16  1  0
 15 17  1  0
 15 18  1  0
 18 19  1  6
 18 20  1  0
 20 21  1  0
 21 22  2  0
 22 23  1  0
 22 24  1  0
 24 25  2  0
 25 26  1  0
 25 27  1  0
 27 28  1  0
 27 29  2  0
 29 30  1  0
 20 31  1  0
 31 32  1  0
 31 33  1  0
 31 34  1  0
 34 35  1  1
 34 36  1  0
 36 37  1  0
 36 38  1  0
 34 14  1  0
 36 18  1  0
 29 21  1  0
M  END
>  <cnnaffinity>  (1) 
-4.88583

>  <filename>  (1) 
OCCCNN1C[C@H]2C[C@@H]1CN2c1cccnc1

$$$$
