
     RDKit          3D

 40 42  0  0  0  0  0  0  0  0999 V2000
    5.6996   -5.6904   23.1847 O   0  0  0  0  0  0  0  0  0  0  0  0
    6.4633   -4.8361   22.3564 C   0  0  0  0  0  0  0  0  0  0  0  0
    7.7547   -4.4279   23.0604 C   0  0  0  0  0  0  0  0  0  0  0  0
    8.6573   -3.5137   22.2085 C   0  0  0  0  0  0  0  0  0  0  0  0
    8.0695   -2.1550   21.9834 C   0  0  0  0  0  0  0  0  0  0  0  0
    7.5835   -1.8050   20.8154 N   0  0  0  0  0  0  0  0  0  0  0  0
    7.1350   -0.5409   21.0178 N   0  0  0  0  0  0  0  0  0  0  0  0
    6.5145    0.1362   19.9311 C   0  0  0  0  0  0  0  0  0  0  0  0
    5.3124    0.8453   20.0645 C   0  0  0  0  0  0  0  0  0  0  0  0
    4.7673    1.4329   18.9150 C   0  0  0  0  0  0  0  0  0  0  0  0
    5.4509    1.3156   17.6996 C   0  0  0  0  0  0  0  0  0  0  0  0
    6.5981    0.6270   17.5659 N   0  0  0  0  0  0  0  0  0  0  0  0
    7.0976    0.0310   18.6504 C   0  0  0  0  0  0  0  0  0  0  0  0
    7.9895   -0.5795   18.5157 H   0  0  0  0  0  0  0  0  0  0  0  0
    5.0748    1.7859   16.7940 H   0  0  0  0  0  0  0  0  0  0  0  0
    3.8409    1.9984   18.9533 H   0  0  0  0  0  0  0  0  0  0  0  0
    4.8059    0.9127   21.0289 H   0  0  0  0  0  0  0  0  0  0  0  0
    7.4221   -0.1795   22.3101 C   0  0  0  0  0  0  0  0  0  0  0  0
    7.2264    1.1603   22.9553 C   0  0  0  0  0  0  0  0  0  0  0  0
    8.5270    1.6836   23.5523 C   0  0  0  0  0  0  0  0  0  0  0  0
    8.7845    1.5557   24.9227 C   0  0  0  0  0  0  0  0  0  0  0  0
   10.0568    1.7933   25.4480 C   0  0  0  0  0  0  0  0  0  0  0  0
   11.0802    2.2536   24.6197 C   0  0  0  0  0  0  0  0  0  0  0  0
   10.8263    2.4804   23.2657 C   0  0  0  0  0  0  0  0  0  0  0  0
    9.5635    2.1764   22.7439 C   0  0  0  0  0  0  0  0  0  0  0  0
    9.2882    2.3790   21.0424 Cl  0  0  0  0  0  0  0  0  0  0  0  0
   11.5934    2.8842   22.6148 H   0  0  0  0  0  0  0  0  0  0  0  0
   12.0664    2.4501   25.0322 H   0  0  0  0  0  0  0  0  0  0  0  0
   10.2492    1.5990   26.4929 H   0  0  0  0  0  0  0  0  0  0  0  0
    7.9715    1.2620   25.5813 H   0  0  0  0  0  0  0  0  0  0  0  0
    6.8373    1.8667   22.2202 H   0  0  0  0  0  0  0  0  0  0  0  0
    6.4851    1.0481   23.7538 H   0  0  0  0  0  0  0  0  0  0  0  0
    7.9778   -1.2002   22.9429 N   0  0  0  0  0  0  0  0  0  0  0  0
    8.8173   -3.9435   21.2151 H   0  0  0  0  0  0  0  0  0  0  0  0
    9.6374   -3.3892   22.6867 H   0  0  0  0  0  0  0  0  0  0  0  0
    8.2984   -5.3428   23.3349 H   0  0  0  0  0  0  0  0  0  0  0  0
    7.4842   -3.9156   23.9972 H   0  0  0  0  0  0  0  0  0  0  0  0
    6.7012   -5.4008   21.4476 H   0  0  0  0  0  0  0  0  0  0  0  0
    5.8785   -3.9554   22.0399 H   0  0  0  0  0  0  0  0  0  0  0  0
    5.6264   -5.2509   24.0409 H   0  0  0  0  0  0  0  0  0  0  0  0
  1  2  1  0
  2  3  1  0
  3  4  1  0
  4  5  1  0
  5  6  2  0
  6  7  1  0
  7  8  1  0
  8  9  2  0
  9 10  1  0
 10 11  2  0
 11 12  1  0
 12 13  2  0
 13 14  1  0
 11 15  1  0
 10 16  1  0
  9 17  1  0
  7 18  1  0
 18 19  1  0
 19 20  1  0
 20 21  2  0
 21 22  1  0
 22 23  2  0
 23 24  1  0
 24 25  2  0
 25 26  1  0
 24 27  1  0
 23 28  1  0
 22 29  1  0
 21 30  1  0
 19 31  1  0
 19 32  1  0
 18 33  2  0
  4 34  1  0
  4 35  1  0
  3 36  1  0
  3 37  1  0
  2 38  1  0
  2 39  1  0
  1 40  1  0
 33  5  1  0
 13  8  1  0
 25 20  1  0
M  END
>  <cnnaffinity>  (1) 
-5.57878

>  <filename>  (1) 
OCCCc1nc(Cc2ccccc2Cl)n(-c2cccnc2)n1

$$$$
