
     RDKit          3D

 41 43  0  0  0  0  0  0  0  0999 V2000
    8.1012    6.0448   23.8823 H   0  0  0  0  0  0  0  0  0  0  0  0
    7.8746    6.9046   23.4929 O   0  0  0  0  0  0  0  0  0  0  0  0
    7.0171    6.5986   22.4071 C   0  0  0  0  0  0  0  0  0  0  0  0
    6.4023    7.4863   22.2200 H   0  0  0  0  0  0  0  0  0  0  0  0
    7.5913    6.4279   21.4773 H   0  0  0  0  0  0  0  0  0  0  0  0
    6.0831    5.4111   22.6866 C   0  0  0  0  0  0  0  0  0  0  0  0
    5.3798    5.2980   21.8372 H   0  0  0  0  0  0  0  0  0  0  0  0
    5.4749    5.6700   23.5652 H   0  0  0  0  0  0  0  0  0  0  0  0
    6.8004    4.1552   22.9709 N   0  0  0  0  0  0  0  0  0  0  0  0
    5.9046    3.0941   23.4743 C   0  0  0  0  0  0  0  0  0  0  0  0
    5.3607    3.4487   24.3554 H   0  0  0  0  0  0  0  0  0  0  0  0
    5.1456    2.8230   22.7180 H   0  0  0  0  0  0  0  0  0  0  0  0
    6.6842    1.8063   23.7877 C   0  0  0  0  0  0  0  0  0  0  0  0
    7.4504    2.0399   24.5455 H   0  0  0  0  0  0  0  0  0  0  0  0
    6.0112    1.0421   24.1945 H   0  0  0  0  0  0  0  0  0  0  0  0
    7.2808    1.3226   22.5359 N   0  0  0  0  0  0  0  0  0  0  0  0
    7.6037   -0.0413   22.3064 C   0  0  0  0  0  0  0  0  0  0  0  0
    8.3425   -0.8120   23.2289 C   0  0  0  0  0  0  0  0  0  0  0  0
    8.7015   -0.3231   24.1355 H   0  0  0  0  0  0  0  0  0  0  0  0
    8.6741   -2.1018   23.0648 N   0  0  0  0  0  0  0  0  0  0  0  0
    8.2549   -2.7066   21.9454 C   0  0  0  0  0  0  0  0  0  0  0  0
    8.5173   -3.7594   21.8417 H   0  0  0  0  0  0  0  0  0  0  0  0
    7.5356   -2.0451   20.9501 C   0  0  0  0  0  0  0  0  0  0  0  0
    7.1358   -2.5812   20.0982 H   0  0  0  0  0  0  0  0  0  0  0  0
    7.2564   -0.6749   21.0804 C   0  0  0  0  0  0  0  0  0  0  0  0
    6.6118    0.0585   19.9451 C   0  0  0  0  0  0  0  0  0  0  0  0
    7.1403    0.0297   18.6370 C   0  0  0  0  0  0  0  0  0  0  0  0
    8.0707   -0.5006   18.4271 H   0  0  0  0  0  0  0  0  0  0  0  0
    6.5837    0.6445   17.5841 N   0  0  0  0  0  0  0  0  0  0  0  0
    5.4358    1.3078   17.7901 C   0  0  0  0  0  0  0  0  0  0  0  0
    4.9934    1.7882   16.9187 H   0  0  0  0  0  0  0  0  0  0  0  0
    4.8135    1.3939   19.0401 C   0  0  0  0  0  0  0  0  0  0  0  0
    3.8779    1.9329   19.1453 H   0  0  0  0  0  0  0  0  0  0  0  0
    5.4302    0.7880   20.1343 C   0  0  0  0  0  0  0  0  0  0  0  0
    5.0116    0.8553   21.1373 H   0  0  0  0  0  0  0  0  0  0  0  0
    8.1827    2.3237   21.9630 C   0  0  0  0  0  0  0  0  0  0  0  0
    9.0741    2.4873   22.5978 H   0  0  0  0  0  0  0  0  0  0  0  0
    8.5249    1.9551   20.9934 H   0  0  0  0  0  0  0  0  0  0  0  0
    7.4382    3.6423   21.7453 C   0  0  0  0  0  0  0  0  0  0  0  0
    8.1631    4.3834   21.3824 H   0  0  0  0  0  0  0  0  0  0  0  0
    6.6438    3.4556   20.9856 H   0  0  0  0  0  0  0  0  0  0  0  0
  1  2  1  0
  2  3  1  0
  3  4  1  0
  3  5  1  0
  3  6  1  0
  6  7  1  0
  6  8  1  0
  6  9  1  0
  9 10  1  0
 10 11  1  0
 10 12  1  0
 10 13  1  0
 13 14  1  0
 13 15  1  0
 13 16  1  0
 16 17  1  0
 17 18  2  0
 18 19  1  0
 18 20  1  0
 20 21  2  0
 21 22  1  0
 21 23  1  0
 23 24  1  0
 23 25  2  0
 25 26  1  0
 26 27  2  0
 27 28  1  0
 27 29  1  0
 29 30  2  0
 30 31  1  0
 30 32  1  0
 32 33  1  0
 32 34  2  0
 34 35  1  0
 16 36  1  0
 36 37  1  0
 36 38  1  0
 36 39  1  0
 39 40  1  0
 39 41  1  0
 39  9  1  0
 25 17  1  0
 34 26  1  0
M  END
>  <cnnaffinity>  (1) 
-4.66154

>  <filename>  (1) 
OCCN1CCN(c2cnccc2-c2cccnc2)CC1

$$$$
