
     RDKit          3D

 44 47  0  0  0  0  0  0  0  0999 V2000
   -0.9044   -8.1907   22.5592 H   0  0  0  0  0  0  0  0  0  0  0  0
    0.0289   -8.2830   22.3309 O   0  0  0  0  0  0  0  0  0  0  0  0
    0.7696   -7.3333   23.0870 C   0  0  0  0  0  0  0  0  0  0  0  0
    0.4212   -6.3046   22.8910 H   0  0  0  0  0  0  0  0  0  0  0  0
    0.6922   -7.5123   24.1711 H   0  0  0  0  0  0  0  0  0  0  0  0
    2.2380   -7.4628   22.6902 C   0  0  0  0  0  0  0  0  0  0  0  0
    2.5204   -8.5142   22.8319 H   0  0  0  0  0  0  0  0  0  0  0  0
    2.3431   -7.2418   21.6084 H   0  0  0  0  0  0  0  0  0  0  0  0
    3.0981   -6.6183   23.5322 N   0  0  0  0  0  0  0  0  0  0  0  0
    2.8557   -5.1613   23.3279 C   0  0  0  0  0  0  0  0  0  0  0  0
    2.0988   -4.8247   24.0533 H   0  0  0  0  0  0  0  0  0  0  0  0
    2.4600   -4.9697   22.3102 H   0  0  0  0  0  0  0  0  0  0  0  0
    4.1327   -4.3023   23.4673 C   0  0  0  0  0  0  0  0  0  0  0  0
    4.5356   -4.3996   24.4917 H   0  0  0  0  0  0  0  0  0  0  0  0
    3.8888   -3.2500   23.3184 H   0  0  0  0  0  0  0  0  0  0  0  0
    5.1196   -4.7621   22.4668 N   0  0  0  0  0  0  0  0  0  0  0  0
    6.0978   -3.9745   21.9467 C   0  0  0  0  0  0  0  0  0  0  0  0
    7.2717   -4.3353   21.5281 N   0  0  0  0  0  0  0  0  0  0  0  0
    7.9096   -3.1602   21.1571 N   0  0  0  0  0  0  0  0  0  0  0  0
    7.0673   -2.2001   21.3200 C   0  0  0  0  0  0  0  0  0  0  0  0
    7.3177   -0.7377   21.0972 C   0  0  0  0  0  0  0  0  0  0  0  0
    6.5900   -0.0377   19.9704 C   0  0  0  0  0  0  0  0  0  0  0  0
    7.1372   -0.0016   18.6728 C   0  0  0  0  0  0  0  0  0  0  0  0
    8.0803   -0.5104   18.4746 H   0  0  0  0  0  0  0  0  0  0  0  0
    6.5829    0.6250   17.6268 N   0  0  0  0  0  0  0  0  0  0  0  0
    5.4287    1.2716   17.8413 C   0  0  0  0  0  0  0  0  0  0  0  0
    5.0010    1.7963   16.9844 H   0  0  0  0  0  0  0  0  0  0  0  0
    4.7901    1.2997   19.0849 C   0  0  0  0  0  0  0  0  0  0  0  0
    3.8575    1.8413   19.1928 H   0  0  0  0  0  0  0  0  0  0  0  0
    5.3826    0.6422   20.1666 C   0  0  0  0  0  0  0  0  0  0  0  0
    4.9273    0.6602   21.1586 H   0  0  0  0  0  0  0  0  0  0  0  0
    7.7286    0.0969   22.3083 C   0  0  0  0  0  0  0  0  0  0  0  0
    7.4482    1.1500   22.3208 H   0  0  0  0  0  0  0  0  0  0  0  0
    7.7260   -0.3802   23.2843 H   0  0  0  0  0  0  0  0  0  0  0  0
    8.7566   -0.3302   21.3141 C   0  0  0  0  0  0  0  0  0  0  0  0
    9.1794    0.4201   20.6472 H   0  0  0  0  0  0  0  0  0  0  0  0
    9.4230   -1.1413   21.6010 H   0  0  0  0  0  0  0  0  0  0  0  0
    5.8744   -2.6417   21.8310 O   0  0  0  0  0  0  0  0  0  0  0  0
    5.2841   -6.2297   22.3309 C   0  0  0  0  0  0  0  0  0  0  0  0
    4.9137   -6.5567   21.3436 H   0  0  0  0  0  0  0  0  0  0  0  0
    6.3503   -6.4830   22.3799 H   0  0  0  0  0  0  0  0  0  0  0  0
    4.5294   -6.9668   23.4573 C   0  0  0  0  0  0  0  0  0  0  0  0
    5.0099   -6.7056   24.4161 H   0  0  0  0  0  0  0  0  0  0  0  0
    4.6413   -8.0490   23.3382 H   0  0  0  0  0  0  0  0  0  0  0  0
  1  2  1  0
  2  3  1  0
  3  4  1  0
  3  5  1  0
  3  6  1  0
  6  7  1  0
  6  8  1  0
  6  9  1  0
  9 10  1  0
 10 11  1  0
 10 12  1  0
 10 13  1  0
 13 14  1  0
 13 15  1  0
 13 16  1  0
 16 17  1  0
 17 18  2  0
 18 19  1  0
 19 20  2  0
 20 21  1  0
 21 22  1  0
 22 23  2  0
 23 24  1  0
 23 25  1  0
 25 26  2  0
 26 27  1  0
 26 28  1  0
 28 29  1  0
 28 30  2  0
 30 31  1  0
 21 32  1  0
 32 33  1  0
 32 34  1  0
 32 35  1  0
 35 36  1  0
 35 37  1  0
 20 38  1  0
 16 39  1  0
 39 40  1  0
 39 41  1  0
 39 42  1  0
 42 43  1  0
 42 44  1  0
 42  9  1  0
 38 17  1  0
 35 21  1  0
 30 22  1  0
M  END
>  <cnnaffinity>  (1) 
-4.50187

>  <filename>  (1) 
OCCN1CCN(c2nnc(C3(c4cccnc4)CC3)o2)CC1

$$$$
