
     RDKit          3D

 43 46  0  0  0  0  0  0  0  0999 V2000
    2.1389   -9.6697   26.2880 H   0  0  0  0  0  0  0  0  0  0  0  0
    1.5242   -8.9282   26.2493 O   0  0  0  0  0  0  0  0  0  0  0  0
    2.2936   -7.7351   26.1476 C   0  0  0  0  0  0  0  0  0  0  0  0
    1.6917   -6.9209   26.5616 H   0  0  0  0  0  0  0  0  0  0  0  0
    3.2075   -7.7896   26.7557 H   0  0  0  0  0  0  0  0  0  0  0  0
    2.6268   -7.4044   24.6923 C   0  0  0  0  0  0  0  0  0  0  0  0
    3.1143   -8.2790   24.2147 H   0  0  0  0  0  0  0  0  0  0  0  0
    1.6628   -7.2812   24.1811 H   0  0  0  0  0  0  0  0  0  0  0  0
    3.3965   -6.1684   24.5663 N   0  0  0  0  0  0  0  0  0  0  0  0
    3.2117   -5.5530   23.2528 C   0  0  0  0  0  0  0  0  0  0  0  0
    2.1414   -5.3665   23.0967 H   0  0  0  0  0  0  0  0  0  0  0  0
    3.5628   -6.1999   22.4251 H   0  0  0  0  0  0  0  0  0  0  0  0
    3.9427   -4.2220   23.1357 C   0  0  0  0  0  0  0  0  0  0  0  0
    3.4755   -3.4822   23.8070 H   0  0  0  0  0  0  0  0  0  0  0  0
    3.8021   -3.9010   22.1047 H   0  0  0  0  0  0  0  0  0  0  0  0
    5.3721   -4.3474   23.4304 N   0  0  0  0  0  0  0  0  0  0  0  0
    6.2243   -3.4009   22.8899 C   0  0  0  0  0  0  0  0  0  0  0  0
    7.5297   -3.3241   23.1798 N   0  0  0  0  0  0  0  0  0  0  0  0
    7.9364   -2.3139   22.3586 N   0  0  0  0  0  0  0  0  0  0  0  0
    9.1427   -1.6992   22.0681 C   0  0  0  0  0  0  0  0  0  0  0  0
   10.0374   -1.9378   22.6112 H   0  0  0  0  0  0  0  0  0  0  0  0
    8.8850   -0.8062   21.0739 C   0  0  0  0  0  0  0  0  0  0  0  0
    9.5351   -0.1223   20.5501 H   0  0  0  0  0  0  0  0  0  0  0  0
    7.5251   -0.8335   20.7641 N   0  0  0  0  0  0  0  0  0  0  0  0
    6.8367   -0.0537   19.7918 C   0  0  0  0  0  0  0  0  0  0  0  0
    7.3103    0.0619   18.4693 C   0  0  0  0  0  0  0  0  0  0  0  0
    8.2451   -0.4110   18.1664 H   0  0  0  0  0  0  0  0  0  0  0  0
    6.6542    0.7162   17.5020 N   0  0  0  0  0  0  0  0  0  0  0  0
    5.4930    1.3103   17.8203 C   0  0  0  0  0  0  0  0  0  0  0  0
    4.9853    1.8363   17.0161 H   0  0  0  0  0  0  0  0  0  0  0  0
    4.9464    1.2791   19.1083 C   0  0  0  0  0  0  0  0  0  0  0  0
    4.0198    1.8061   19.3136 H   0  0  0  0  0  0  0  0  0  0  0  0
    5.6293    0.5901   20.1146 C   0  0  0  0  0  0  0  0  0  0  0  0
    5.2561    0.5680   21.1390 H   0  0  0  0  0  0  0  0  0  0  0  0
    6.9559   -1.7914   21.5910 C   0  0  0  0  0  0  0  0  0  0  0  0
    5.8081   -2.4869   21.8882 C   0  0  0  0  0  0  0  0  0  0  0  0
    4.8039   -2.3265   21.5813 H   0  0  0  0  0  0  0  0  0  0  0  0
    5.5642   -4.9529   24.7586 C   0  0  0  0  0  0  0  0  0  0  0  0
    6.6320   -5.0551   24.9696 H   0  0  0  0  0  0  0  0  0  0  0  0
    5.1140   -4.3092   25.5312 H   0  0  0  0  0  0  0  0  0  0  0  0
    4.8425   -6.3145   24.8369 C   0  0  0  0  0  0  0  0  0  0  0  0
    4.9850   -6.7329   25.8401 H   0  0  0  0  0  0  0  0  0  0  0  0
    5.3170   -6.9946   24.1076 H   0  0  0  0  0  0  0  0  0  0  0  0
  1  2  1  0
  2  3  1  0
  3  4  1  0
  3  5  1  0
  3  6  1  0
  6  7  1  0
  6  8  1  0
  6  9  1  0
  9 10  1  0
 10 11  1  0
 10 12  1  0
 10 13  1  0
 13 14  1  0
 13 15  1  0
 13 16  1  0
 16 17  1  0
 17 18  2  0
 18 19  1  0
 19 20  1  0
 20 21  1  0
 20 22  2  0
 22 23  1  0
 22 24  1  0
 24 25  1  0
 25 26  2  0
 26 27  1  0
 26 28  1  0
 28 29  2  0
 29 30  1  0
 29 31  1  0
 31 32  1  0
 31 33  2  0
 33 34  1  0
 24 35  1  0
 35 36  2  0
 36 37  1  0
 16 38  1  0
 38 39  1  0
 38 40  1  0
 38 41  1  0
 41 42  1  0
 41 43  1  0
 41  9  1  0
 36 17  1  0
 35 19  1  0
 33 25  1  0
M  END
>  <cnnaffinity>  (1) 
-5.25162

>  <filename>  (1) 
OCCN1CCN(c2cc3n(-c4cccnc4)ccn3n2)CC1

$$$$
