
     RDKit          3D

 27 27  0  0  0  0  0  0  0  0999 V2000
   13.8084    3.2814   21.0746 H   0  0  0  0  0  0  0  0  0  0  0  0
   13.2747    3.4736   21.8649 O   0  0  0  0  0  0  0  0  0  0  0  0
   12.5615    2.2868   22.2032 C   0  0  0  0  0  0  0  0  0  0  0  0
   12.1802    2.4426   23.2170 H   0  0  0  0  0  0  0  0  0  0  0  0
   13.2156    1.3965   22.2272 H   0  0  0  0  0  0  0  0  0  0  0  0
   11.3928    2.0144   21.2519 C   0  0  0  0  0  0  0  0  0  0  0  0
   10.7361    2.8939   21.2781 H   0  0  0  0  0  0  0  0  0  0  0  0
   11.7878    1.9590   20.2179 H   0  0  0  0  0  0  0  0  0  0  0  0
   10.6040    0.8585   21.6649 N   0  0  0  0  0  0  0  0  0  0  0  0
   11.1452   -0.0049   21.6541 H   0  0  0  0  0  0  0  0  0  0  0  0
    9.4038    0.6645   20.8691 C   0  0  0  0  0  0  0  0  0  0  0  0
    9.6011    0.4751   19.7975 H   0  0  0  0  0  0  0  0  0  0  0  0
    8.8164    1.5996   20.8572 H   0  0  0  0  0  0  0  0  0  0  0  0
    8.5698   -0.4566   21.4310 C   0  0  0  0  0  0  0  0  0  0  0  0
    9.0323   -1.0051   22.2576 H   0  0  0  0  0  0  0  0  0  0  0  0
    7.3314   -0.7440   21.0096 C   0  0  0  0  0  0  0  0  0  0  0  0
    6.7401   -1.4927   21.5450 H   0  0  0  0  0  0  0  0  0  0  0  0
    6.6381   -0.0263   19.9040 C   0  0  0  0  0  0  0  0  0  0  0  0
    7.1491    0.0531   18.5923 C   0  0  0  0  0  0  0  0  0  0  0  0
    8.0933   -0.4305   18.3407 H   0  0  0  0  0  0  0  0  0  0  0  0
    6.5519    0.6839   17.5703 N   0  0  0  0  0  0  0  0  0  0  0  0
    5.3920    1.3073   17.8242 C   0  0  0  0  0  0  0  0  0  0  0  0
    4.9281    1.8118   16.9750 H   0  0  0  0  0  0  0  0  0  0  0  0
    4.7964    1.3133   19.0887 C   0  0  0  0  0  0  0  0  0  0  0  0
    3.8688    1.8512   19.2342 H   0  0  0  0  0  0  0  0  0  0  0  0
    5.4202    0.6345   20.1375 C   0  0  0  0  0  0  0  0  0  0  0  0
    4.9949    0.6313   21.1414 H   0  0  0  0  0  0  0  0  0  0  0  0
  1  2  1  0
  2  3  1  0
  3  4  1  0
  3  5  1  0
  3  6  1  0
  6  7  1  0
  6  8  1  0
  6  9  1  0
  9 10  1  0
  9 11  1  0
 11 12  1  0
 11 13  1  0
 11 14  1  0
 14 15  1  0
 14 16  2  3
 16 17  1  0
 16 18  1  0
 18 19  2  0
 19 20  1  0
 19 21  1  0
 21 22  2  0
 22 23  1  0
 22 24  1  0
 24 25  1  0
 24 26  2  0
 26 27  1  0
 26 18  1  0
M  END
>  <cnnaffinity>  (1) 
-3.86455

>  <filename>  (1) 
OCCNCC=Cc1cccnc1

$$$$
