
     RDKit          3D

 30 31  0  0  0  0  0  0  0  0999 V2000
    9.9711    4.6958   25.5465 H   0  0  0  0  0  0  0  0  0  0  0  0
    9.8320    4.0894   24.8080 O   0  0  0  0  0  0  0  0  0  0  0  0
    8.8341    3.1364   25.1470 C   0  0  0  0  0  0  0  0  0  0  0  0
    7.8751    3.6112   25.4037 H   0  0  0  0  0  0  0  0  0  0  0  0
    9.1337    2.5114   26.0022 H   0  0  0  0  0  0  0  0  0  0  0  0
    8.6648    2.2697   23.9128 C   0  0  0  0  0  0  0  0  0  0  0  0
    9.6251    1.7891   23.6810 H   0  0  0  0  0  0  0  0  0  0  0  0
    8.3826    2.9081   23.0635 H   0  0  0  0  0  0  0  0  0  0  0  0
    7.6582    1.2750   24.1594 O   0  0  0  0  0  0  0  0  0  0  0  0
    7.4986    0.3465   23.2138 C   0  0  0  0  0  0  0  0  0  0  0  0
    8.0292    0.2966   21.9751 C   0  0  0  0  0  0  0  0  0  0  0  0
    8.7102    1.0464   21.6204 H   0  0  0  0  0  0  0  0  0  0  0  0
    7.5063   -0.6683   20.9852 C   0  0  2  0  0  0  0  0  0  0  0  0
    8.3566   -1.1261   20.4485 H   0  0  0  0  0  0  0  0  0  0  0  0
    6.6578    0.0006   19.8934 C   0  0  0  0  0  0  0  0  0  0  0  0
    7.1597    0.0446   18.5874 C   0  0  0  0  0  0  0  0  0  0  0  0
    8.1082   -0.4403   18.3543 H   0  0  0  0  0  0  0  0  0  0  0  0
    6.5597    0.6617   17.5621 N   0  0  0  0  0  0  0  0  0  0  0  0
    5.4033    1.2870   17.8220 C   0  0  0  0  0  0  0  0  0  0  0  0
    4.9367    1.8078   16.9851 H   0  0  0  0  0  0  0  0  0  0  0  0
    4.8035    1.2958   19.0862 C   0  0  0  0  0  0  0  0  0  0  0  0
    3.8740    1.8348   19.2283 H   0  0  0  0  0  0  0  0  0  0  0  0
    5.4367    0.6374   20.1448 C   0  0  0  0  0  0  0  0  0  0  0  0
    4.9898    0.6355   21.1402 H   0  0  0  0  0  0  0  0  0  0  0  0
    6.7779   -1.7527   21.6462 N   0  0  0  0  0  0  0  0  0  0  0  0
    6.3362   -2.4651   21.0964 H   0  0  0  0  0  0  0  0  0  0  0  0
    6.4095   -1.7890   22.9419 C   0  0  0  0  0  0  0  0  0  0  0  0
    5.6725   -3.1038   23.6305 S   0  0  0  0  0  0  0  0  0  0  0  0
    6.6664   -0.6555   23.6466 N   0  0  0  0  0  0  0  0  0  0  0  0
    6.1918   -0.5705   24.5273 H   0  0  0  0  0  0  0  0  0  0  0  0
  1  2  1  0
  2  3  1  0
  3  4  1  0
  3  5  1  0
  3  6  1  0
  6  7  1  0
  6  8  1  0
  6  9  1  0
  9 10  1  0
 10 11  2  0
 11 12  1  0
 11 13  1  0
 13 14  1  6
 13 15  1  0
 15 16  2  0
 16 17  1  0
 16 18  1  0
 18 19  2  0
 19 20  1  0
 19 21  1  0
 21 22  1  0
 21 23  2  0
 23 24  1  0
 13 25  1  0
 25 26  1  0
 25 27  1  0
 27 28  2  0
 27 29  1  0
 29 30  1  0
 29 10  1  0
 23 15  1  0
M  END
>  <cnnaffinity>  (1) 
-4.33645

>  <filename>  (1) 
OCCOC1=C[C@H](c2cccnc2)NC(=S)N1

$$$$
