
     RDKit          3D

 21 22  0  0  0  0  0  0  0  0999 V2000
    9.4014   -1.1633   20.5632 H   0  0  0  0  0  0  0  0  0  0  0  0
    8.6995   -0.5786   20.8837 O   0  0  0  0  0  0  0  0  0  0  0  0
    7.5144   -1.2345   20.4693 N   0  0  0  0  0  0  0  0  0  0  0  0
    6.7745   -0.3040   19.6661 C   0  0  0  0  0  0  0  0  0  0  0  0
    7.2548   -0.0427   18.3676 C   0  0  0  0  0  0  0  0  0  0  0  0
    8.1700   -0.5210   18.0144 H   0  0  0  0  0  0  0  0  0  0  0  0
    6.6269    0.7504   17.4977 N   0  0  0  0  0  0  0  0  0  0  0  0
    5.4942    1.3527   17.9098 C   0  0  0  0  0  0  0  0  0  0  0  0
    5.0053    2.0013   17.1862 H   0  0  0  0  0  0  0  0  0  0  0  0
    4.9607    1.1907   19.1930 C   0  0  0  0  0  0  0  0  0  0  0  0
    4.0604    1.7330   19.4686 H   0  0  0  0  0  0  0  0  0  0  0  0
    5.6139    0.3495   20.1033 C   0  0  0  0  0  0  0  0  0  0  0  0
    5.2464    0.1878   21.1152 H   0  0  0  0  0  0  0  0  0  0  0  0
    6.8146   -1.8579   21.5563 N   0  0  0  0  0  0  0  0  0  0  0  0
    5.9344   -2.8473   21.2874 N   0  0  0  0  0  0  0  0  0  0  0  0
    5.6918   -3.4125   22.4612 C   0  0  0  0  0  0  0  0  0  0  0  0
    4.9951   -4.2388   22.5507 H   0  0  0  0  0  0  0  0  0  0  0  0
    6.4393   -2.8130   23.5019 C   0  0  0  0  0  0  0  0  0  0  0  0
    6.5016   -3.1267   24.5358 H   0  0  0  0  0  0  0  0  0  0  0  0
    7.1344   -1.8043   22.8866 C   0  0  0  0  0  0  0  0  0  0  0  0
    7.7546   -1.0052   23.2635 H   0  0  0  0  0  0  0  0  0  0  0  0
  1  2  1  0
  2  3  1  0
  3  4  1  0
  4  5  2  0
  5  6  1  0
  5  7  1  0
  7  8  2  0
  8  9  1  0
  8 10  1  0
 10 11  1  0
 10 12  2  0
 12 13  1  0
  3 14  1  0
 14 15  1  0
 15 16  2  0
 16 17  1  0
 16 18  1  0
 18 19  1  0
 18 20  2  0
 20 21  1  0
 12  4  1  0
 20 14  1  0
M  END
>  <cnnaffinity>  (1) 
-3.85806

>  <filename>  (1) 
ON(c1cccnc1)n1cccn1

$$$$
