
     RDKit          3D

 25 26  0  0  0  0  0  0  0  0999 V2000
    8.9466    0.1525   21.5538 H   0  0  0  0  0  0  0  0  0  0  0  0
    8.7032   -0.5303   20.8975 O   0  0  0  0  0  0  0  0  0  0  0  0
    7.3122   -0.6848   20.9817 N   0  0  0  0  0  0  0  0  0  0  0  0
    6.7750   -1.6959   21.8073 C   0  0  0  0  0  0  0  0  0  0  0  0
    5.6425   -2.2825   21.4153 N   0  0  0  0  0  0  0  0  0  0  0  0
    5.0969   -3.1258   22.2855 C   0  0  0  0  0  0  0  0  0  0  0  0
    4.1747   -3.6025   21.9670 H   0  0  0  0  0  0  0  0  0  0  0  0
    5.6436   -3.4076   23.5331 C   0  0  0  0  0  0  0  0  0  0  0  0
    5.1260   -4.0291   24.2527 H   0  0  0  0  0  0  0  0  0  0  0  0
    6.8973   -2.8458   23.7867 C   0  0  0  0  0  0  0  0  0  0  0  0
    7.6839   -3.2846   25.0731 C   0  0  0  0  0  0  0  0  0  0  0  0
    7.0000   -2.9391   26.1840 F   0  0  0  0  0  0  0  0  0  0  0  0
    8.9084   -2.7623   25.1576 F   0  0  0  0  0  0  0  0  0  0  0  0
    7.8185   -4.6295   25.1219 F   0  0  0  0  0  0  0  0  0  0  0  0
    7.4463   -1.9766   22.9323 N   0  0  0  0  0  0  0  0  0  0  0  0
    6.6103   -0.0241   19.9270 C   0  0  0  0  0  0  0  0  0  0  0  0
    7.1746    0.0444   18.6307 C   0  0  0  0  0  0  0  0  0  0  0  0
    8.1320   -0.4393   18.4509 H   0  0  0  0  0  0  0  0  0  0  0  0
    6.5891    0.6599   17.6005 N   0  0  0  0  0  0  0  0  0  0  0  0
    5.4218    1.2913   17.8205 C   0  0  0  0  0  0  0  0  0  0  0  0
    4.9848    1.8071   16.9681 H   0  0  0  0  0  0  0  0  0  0  0  0
    4.7950    1.3156   19.0728 C   0  0  0  0  0  0  0  0  0  0  0  0
    3.8723    1.8731   19.1922 H   0  0  0  0  0  0  0  0  0  0  0  0
    5.3914    0.6422   20.1446 C   0  0  0  0  0  0  0  0  0  0  0  0
    4.9416    0.6359   21.1387 H   0  0  0  0  0  0  0  0  0  0  0  0
  1  2  1  0
  2  3  1  0
  3  4  1  0
  4  5  2  0
  5  6  1  0
  6  7  1  0
  6  8  2  0
  8  9  1  0
  8 10  1  0
 10 11  1  0
 11 12  1  0
 11 13  1  0
 11 14  1  0
 10 15  2  0
  3 16  1  0
 16 17  2  0
 17 18  1  0
 17 19  1  0
 19 20  2  0
 20 21  1  0
 20 22  1  0
 22 23  1  0
 22 24  2  0
 24 25  1  0
 15  4  1  0
 24 16  1  0
M  END
>  <cnnaffinity>  (1) 
-4.95193

>  <filename>  (1) 
ON(c1cccnc1)c1nccc(C(F)(F)F)n1

$$$$
