
     RDKit          3D

 32 33  0  0  0  0  0  0  0  0999 V2000
    7.9801   -2.2915   20.1255 H   0  0  0  0  0  0  0  0  0  0  0  0
    8.4187   -1.5331   20.5485 O   0  0  0  0  0  0  0  0  0  0  0  0
    7.3918   -0.6503   20.9164 N   0  0  0  0  0  0  0  0  0  0  0  0
    6.6961   -0.0448   19.8755 C   0  0  0  0  0  0  0  0  0  0  0  0
    7.1976   -0.0139   18.5457 C   0  0  0  0  0  0  0  0  0  0  0  0
    8.1546   -0.4900   18.3250 H   0  0  0  0  0  0  0  0  0  0  0  0
    6.5891    0.6177   17.5359 N   0  0  0  0  0  0  0  0  0  0  0  0
    5.4376    1.2605   17.8031 C   0  0  0  0  0  0  0  0  0  0  0  0
    4.9846    1.8061   16.9788 H   0  0  0  0  0  0  0  0  0  0  0  0
    4.8398    1.2735   19.0669 C   0  0  0  0  0  0  0  0  0  0  0  0
    3.9083    1.8113   19.2271 H   0  0  0  0  0  0  0  0  0  0  0  0
    5.4823    0.6325   20.1254 C   0  0  0  0  0  0  0  0  0  0  0  0
    5.0912    0.6929   21.1371 H   0  0  0  0  0  0  0  0  0  0  0  0
    7.0417   -0.5506   22.3248 C   0  0  0  0  0  0  0  0  0  0  0  0
    6.0257   -0.9458   22.4624 H   0  0  0  0  0  0  0  0  0  0  0  0
    7.7152   -1.2192   22.8803 H   0  0  0  0  0  0  0  0  0  0  0  0
    7.0832    0.8352   22.7740 N   0  0  0  0  0  0  0  0  0  0  0  0
    7.9470    1.2615   22.4538 H   0  0  0  0  0  0  0  0  0  0  0  0
    6.7841    1.1171   24.1698 C   0  0  0  0  0  0  0  0  0  0  0  0
    5.7646    0.7519   24.3909 H   0  0  0  0  0  0  0  0  0  0  0  0
    7.7410    0.5481   25.2304 C   0  0  0  0  0  0  0  0  0  0  0  0
    7.5175   -0.4989   25.4620 H   0  0  0  0  0  0  0  0  0  0  0  0
    8.7630    0.5973   24.8348 H   0  0  0  0  0  0  0  0  0  0  0  0
    7.6166    1.4719   26.4655 C   0  0  0  0  0  0  0  0  0  0  0  0
    7.0375    0.9972   27.2628 H   0  0  0  0  0  0  0  0  0  0  0  0
    8.6048    1.6855   26.8848 H   0  0  0  0  0  0  0  0  0  0  0  0
    6.8987    2.7548   25.9767 C   0  0  0  0  0  0  0  0  0  0  0  0
    5.8933    2.8052   26.4065 H   0  0  0  0  0  0  0  0  0  0  0  0
    7.4156    3.6681   26.2880 H   0  0  0  0  0  0  0  0  0  0  0  0
    6.8168    2.6179   24.4469 C   0  0  0  0  0  0  0  0  0  0  0  0
    7.7258    3.0305   23.9900 H   0  0  0  0  0  0  0  0  0  0  0  0
    5.9549    3.1218   23.9983 H   0  0  0  0  0  0  0  0  0  0  0  0
  1  2  1  0
  2  3  1  0
  3  4  1  0
  4  5  2  0
  5  6  1  0
  5  7  1  0
  7  8  2  0
  8  9  1  0
  8 10  1  0
 10 11  1  0
 10 12  2  0
 12 13  1  0
  3 14  1  0
 14 15  1  0
 14 16  1  0
 14 17  1  0
 17 18  1  0
 17 19  1  0
 19 20  1  0
 19 21  1  0
 21 22  1  0
 21 23  1  0
 21 24  1  0
 24 25  1  0
 24 26  1  0
 24 27  1  0
 27 28  1  0
 27 29  1  0
 27 30  1  0
 30 31  1  0
 30 32  1  0
 12  4  1  0
 30 19  1  0
M  END
>  <cnnaffinity>  (1) 
-4.17869

>  <filename>  (1) 
ON(CNC1CCCC1)c1cccnc1

$$$$
