
     RDKit          3D

 30 32  0  0  0  0  0  0  0  0999 V2000
    5.7009   -1.2972   22.1973 H   0  0  0  0  0  0  0  0  0  0  0  0
    6.3275   -1.4262   21.4630 O   0  0  0  0  0  0  0  0  0  0  0  0
    6.8464   -0.1369   21.2072 N   0  0  0  0  0  0  0  0  0  0  0  0
    6.3203    0.3448   19.9656 C   0  0  0  0  0  0  0  0  0  0  0  0
    7.0300    0.2268   18.7518 C   0  0  0  0  0  0  0  0  0  0  0  0
    7.9991   -0.2677   18.7380 H   0  0  0  0  0  0  0  0  0  0  0  0
    6.5954    0.7157   17.5814 N   0  0  0  0  0  0  0  0  0  0  0  0
    5.4094    1.3396   17.5733 C   0  0  0  0  0  0  0  0  0  0  0  0
    5.0877    1.7398   16.6135 H   0  0  0  0  0  0  0  0  0  0  0  0
    4.6006    1.4637   18.7105 C   0  0  0  0  0  0  0  0  0  0  0  0
    3.6448    1.9664   18.6302 H   0  0  0  0  0  0  0  0  0  0  0  0
    5.0540    0.9490   19.9270 C   0  0  0  0  0  0  0  0  0  0  0  0
    4.4588    1.0227   20.8377 H   0  0  0  0  0  0  0  0  0  0  0  0
    8.2592    0.0139   21.4358 C   0  0  0  0  0  0  0  0  0  0  0  0
    8.7760    1.3486   21.4139 C   0  0  0  0  0  0  0  0  0  0  0  0
    8.0782    2.1630   21.2369 H   0  0  0  0  0  0  0  0  0  0  0  0
   10.1116    1.6015   21.6208 C   0  0  0  0  0  0  0  0  0  0  0  0
   10.4849    2.6227   21.6054 H   0  0  0  0  0  0  0  0  0  0  0  0
   11.0347    0.5334   21.8387 C   0  0  0  0  0  0  0  0  0  0  0  0
   12.4315    0.7553   22.0667 C   0  0  0  0  0  0  0  0  0  0  0  0
   12.8126    1.7755   22.1074 H   0  0  0  0  0  0  0  0  0  0  0  0
   13.3006   -0.3027   22.2033 C   0  0  0  0  0  0  0  0  0  0  0  0
   14.3624   -0.1388   22.3820 H   0  0  0  0  0  0  0  0  0  0  0  0
   12.8085   -1.6368   22.1209 C   0  0  0  0  0  0  0  0  0  0  0  0
   13.5050   -2.4690   22.1624 H   0  0  0  0  0  0  0  0  0  0  0  0
   11.4587   -1.8776   21.9900 C   0  0  0  0  0  0  0  0  0  0  0  0
   11.0746   -2.8904   22.0393 H   0  0  0  0  0  0  0  0  0  0  0  0
   10.5260   -0.8097   21.8386 C   0  0  0  0  0  0  0  0  0  0  0  0
    9.1172   -1.0409   21.6857 C   0  0  0  0  0  0  0  0  0  0  0  0
    8.7274   -2.0498   21.7567 H   0  0  0  0  0  0  0  0  0  0  0  0
  1  2  1  0
  2  3  1  0
  3  4  1  0
  4  5  2  0
  5  6  1  0
  5  7  1  0
  7  8  2  0
  8  9  1  0
  8 10  1  0
 10 11  1  0
 10 12  2  0
 12 13  1  0
  3 14  1  0
 14 15  2  0
 15 16  1  0
 15 17  1  0
 17 18  1  0
 17 19  2  0
 19 20  1  0
 20 21  1  0
 20 22  2  0
 22 23  1  0
 22 24  1  0
 24 25  1  0
 24 26  2  0
 26 27  1  0
 26 28  1  0
 28 29  2  0
 29 30  1  0
 12  4  1  0
 29 14  1  0
 28 19  1  0
M  END
>  <cnnaffinity>  (1) 
-4.92131

>  <filename>  (1) 
ON(c1cccnc1)c1ccc2ccccc2c1

$$$$
