
     RDKit          3D

 27 28  0  0  0  0  0  0  0  0999 V2000
    7.5298   -2.5475   20.6389 H   0  0  0  0  0  0  0  0  0  0  0  0
    8.1064   -1.7671   20.5991 O   0  0  0  0  0  0  0  0  0  0  0  0
    7.2689   -0.7189   20.9509 N   0  0  0  0  0  0  0  0  0  0  0  0
    6.6564   -0.0140   19.9165 C   0  0  0  0  0  0  0  0  0  0  0  0
    7.1763    0.0354   18.5929 C   0  0  0  0  0  0  0  0  0  0  0  0
    8.1276   -0.4363   18.3690 H   0  0  0  0  0  0  0  0  0  0  0  0
    6.5679    0.6633   17.5776 N   0  0  0  0  0  0  0  0  0  0  0  0
    5.4071    1.2883   17.8348 C   0  0  0  0  0  0  0  0  0  0  0  0
    4.9278    1.7868   16.9936 H   0  0  0  0  0  0  0  0  0  0  0  0
    4.8153    1.3063   19.1038 C   0  0  0  0  0  0  0  0  0  0  0  0
    3.8834    1.8353   19.2531 H   0  0  0  0  0  0  0  0  0  0  0  0
    5.4424    0.6539   20.1674 C   0  0  0  0  0  0  0  0  0  0  0  0
    5.0062    0.6303   21.1683 H   0  0  0  0  0  0  0  0  0  0  0  0
    7.4007   -0.2169   22.3086 C   0  0  0  0  0  0  0  0  0  0  0  0
    6.4016   -0.2417   22.7641 H   0  0  0  0  0  0  0  0  0  0  0  0
    8.0312   -0.9333   22.8477 H   0  0  0  0  0  0  0  0  0  0  0  0
    7.9569    1.1992   22.4274 C   0  0  0  0  0  0  0  0  0  0  0  0
    7.1052    2.2743   22.7279 C   0  0  0  0  0  0  0  0  0  0  0  0
    6.0510    2.0698   22.9033 H   0  0  0  0  0  0  0  0  0  0  0  0
    7.5791    3.5874   22.7745 C   0  0  0  0  0  0  0  0  0  0  0  0
    6.8991    4.4023   23.0084 H   0  0  0  0  0  0  0  0  0  0  0  0
    8.9284    3.8407   22.5165 C   0  0  0  0  0  0  0  0  0  0  0  0
    9.3133    4.8545   22.5448 H   0  0  0  0  0  0  0  0  0  0  0  0
    9.7957    2.7944   22.1996 C   0  0  0  0  0  0  0  0  0  0  0  0
   10.8470    2.9643   21.9838 H   0  0  0  0  0  0  0  0  0  0  0  0
    9.3028    1.4898   22.1553 C   0  0  0  0  0  0  0  0  0  0  0  0
   10.4261    0.2265   21.7496 Cl  0  0  0  0  0  0  0  0  0  0  0  0
  1  2  1  0
  2  3  1  0
  3  4  1  0
  4  5  2  0
  5  6  1  0
  5  7  1  0
  7  8  2  0
  8  9  1  0
  8 10  1  0
 10 11  1  0
 10 12  2  0
 12 13  1  0
  3 14  1  0
 14 15  1  0
 14 16  1  0
 14 17  1  0
 17 18  2  0
 18 19  1  0
 18 20  1  0
 20 21  1  0
 20 22  2  0
 22 23  1  0
 22 24  1  0
 24 25  1  0
 24 26  2  0
 26 27  1  0
 12  4  1  0
 26 17  1  0
M  END
>  <cnnaffinity>  (1) 
-4.53704

>  <filename>  (1) 
ON(Cc1ccccc1Cl)c1cccnc1

$$$$
