
     RDKit          3D

 24 25  0  0  0  0  0  0  0  0999 V2000
   11.9716   -3.8171   23.0704 H   0  0  0  0  0  0  0  0  0  0  0  0
   11.2071   -3.2468   22.9039 O   0  0  0  0  0  0  0  0  0  0  0  0
   11.7580   -2.0211   22.5813 N   0  0  0  0  0  0  0  0  0  0  0  0
   10.8874   -1.1318   22.2885 C   0  0  0  0  0  0  0  0  0  0  0  0
   11.3349   -0.1643   22.0691 H   0  0  0  0  0  0  0  0  0  0  0  0
    9.4286   -1.2423   22.1454 C   0  0  0  0  0  0  0  0  0  0  0  0
    8.6552   -2.0360   23.0062 C   0  0  0  0  0  0  0  0  0  0  0  0
    9.1274   -2.5557   23.8304 H   0  0  0  0  0  0  0  0  0  0  0  0
    7.3338   -2.1940   22.8811 N   0  0  0  0  0  0  0  0  0  0  0  0
    6.7269   -1.5338   21.8905 C   0  0  0  0  0  0  0  0  0  0  0  0
    5.6527   -1.6871   21.7823 H   0  0  0  0  0  0  0  0  0  0  0  0
    7.3928   -0.6966   20.9739 C   0  0  0  0  0  0  0  0  0  0  0  0
    6.6599    0.0117   19.8974 C   0  0  0  0  0  0  0  0  0  0  0  0
    7.1726    0.0740   18.5873 C   0  0  0  0  0  0  0  0  0  0  0  0
    8.1150   -0.4272   18.3676 H   0  0  0  0  0  0  0  0  0  0  0  0
    6.5608    0.6825   17.5651 N   0  0  0  0  0  0  0  0  0  0  0  0
    5.3961    1.2967   17.8345 C   0  0  0  0  0  0  0  0  0  0  0  0
    4.9100    1.7828   16.9941 H   0  0  0  0  0  0  0  0  0  0  0  0
    4.8026    1.3155   19.1017 C   0  0  0  0  0  0  0  0  0  0  0  0
    3.8716    1.8455   19.2579 H   0  0  0  0  0  0  0  0  0  0  0  0
    5.4355    0.6479   20.1500 C   0  0  0  0  0  0  0  0  0  0  0  0
    5.0152    0.6334   21.1587 H   0  0  0  0  0  0  0  0  0  0  0  0
    8.7752   -0.5549   21.1191 C   0  0  0  0  0  0  0  0  0  0  0  0
    9.3152    0.1048   20.4357 H   0  0  0  0  0  0  0  0  0  0  0  0
  1  2  1  0
  2  3  1  0
  3  4  2  3
  4  5  1  0
  4  6  1  0
  6  7  2  0
  7  8  1  0
  7  9  1  0
  9 10  2  0
 10 11  1  0
 10 12  1  0
 12 13  1  0
 13 14  2  0
 14 15  1  0
 14 16  1  0
 16 17  2  0
 17 18  1  0
 17 19  1  0
 19 20  1  0
 19 21  2  0
 21 22  1  0
 12 23  2  0
 23 24  1  0
 23  6  1  0
 21 13  1  0
M  END
>  <cnnaffinity>  (1) 
-4.70404

>  <filename>  (1) 
ON=Cc1cncc(-c2cccnc2)c1

$$$$
