
     RDKit          3D

 21 21  0  0  0  0  0  0  0  0999 V2000
   10.7476    3.5927   20.5593 H   0  0  0  0  0  0  0  0  0  0  0  0
   10.7803    2.6198   20.7066 O   0  0  0  0  0  0  0  0  0  0  0  0
    9.5466    2.1582   21.2463 N   0  0  0  0  0  0  0  0  0  0  0  0
    9.3328    0.8646   21.1964 C   0  0  0  0  0  0  0  0  0  0  0  0
   10.0688    0.2178   20.7257 H   0  0  0  0  0  0  0  0  0  0  0  0
    8.1553    0.2389   21.9013 C   0  0  2  0  0  0  0  0  0  0  0  0
    7.4617    1.0082   22.2661 H   0  0  0  0  0  0  0  0  0  0  0  0
    8.9093   -0.7467   23.4518 Br  0  0  0  0  0  0  0  0  0  0  0  0
    7.3832   -0.7348   21.0002 C   0  0  0  0  0  0  0  0  0  0  0  0
    8.0531   -1.4976   20.5911 H   0  0  0  0  0  0  0  0  0  0  0  0
    6.6385   -1.2618   21.6095 H   0  0  0  0  0  0  0  0  0  0  0  0
    6.6656   -0.0026   19.8834 C   0  0  0  0  0  0  0  0  0  0  0  0
    7.1882    0.0453   18.5778 C   0  0  0  0  0  0  0  0  0  0  0  0
    8.1363   -0.4439   18.3776 H   0  0  0  0  0  0  0  0  0  0  0  0
    6.5749    0.6778   17.5573 N   0  0  0  0  0  0  0  0  0  0  0  0
    5.4093    1.3027   17.8095 C   0  0  0  0  0  0  0  0  0  0  0  0
    4.9060    1.8318   17.0055 H   0  0  0  0  0  0  0  0  0  0  0  0
    4.8204    1.3008   19.0766 C   0  0  0  0  0  0  0  0  0  0  0  0
    3.8843    1.8281   19.2253 H   0  0  0  0  0  0  0  0  0  0  0  0
    5.4524    0.6433   20.1329 C   0  0  0  0  0  0  0  0  0  0  0  0
    5.0195    0.6495   21.1308 H   0  0  0  0  0  0  0  0  0  0  0  0
  1  2  1  0
  2  3  1  0
  3  4  2  3
  4  5  1  0
  4  6  1  0
  6  7  1  1
  6  8  1  0
  6  9  1  0
  9 10  1  0
  9 11  1  0
  9 12  1  0
 12 13  2  0
 13 14  1  0
 13 15  1  0
 15 16  2  0
 16 17  1  0
 16 18  1  0
 18 19  1  0
 18 20  2  0
 20 21  1  0
 20 12  1  0
M  END
>  <cnnaffinity>  (1) 
-4.10801

>  <filename>  (1) 
ON=C[C@H](Br)Cc1cccnc1

$$$$
