
     RDKit          3D

 23 24  0  0  0  0  0  0  0  0999 V2000
    5.1041   -3.1933   17.8649 H   0  0  0  0  0  0  0  0  0  0  0  0
    5.4348   -3.6552   18.6539 O   0  0  0  0  0  0  0  0  0  0  0  0
    5.8729   -2.6193   19.4397 N   0  0  0  0  0  0  0  0  0  0  0  0
    6.6642   -3.0237   20.3561 C   0  0  0  0  0  0  0  0  0  0  0  0
    6.8906   -4.0825   20.4689 H   0  0  0  0  0  0  0  0  0  0  0  0
    7.4329   -2.0651   21.1747 C   0  0  0  0  0  0  0  0  0  0  0  0
    8.2569   -2.6301   22.0778 N   0  0  0  0  0  0  0  0  0  0  0  0
    8.8570   -1.8171   22.9384 C   0  0  0  0  0  0  0  0  0  0  0  0
    9.5341   -2.2671   23.6671 H   0  0  0  0  0  0  0  0  0  0  0  0
    8.6766   -0.4944   23.0153 N   0  0  0  0  0  0  0  0  0  0  0  0
    7.9100    0.0593   22.0803 C   0  0  0  0  0  0  0  0  0  0  0  0
    7.7557    1.1397   22.1573 H   0  0  0  0  0  0  0  0  0  0  0  0
    7.3419   -0.6612   21.0196 C   0  0  0  0  0  0  0  0  0  0  0  0
    6.6545    0.0489   19.8802 C   0  0  0  0  0  0  0  0  0  0  0  0
    7.1621    0.0991   18.5629 C   0  0  0  0  0  0  0  0  0  0  0  0
    8.1028   -0.4063   18.3356 H   0  0  0  0  0  0  0  0  0  0  0  0
    6.5502    0.7132   17.5402 N   0  0  0  0  0  0  0  0  0  0  0  0
    5.3832    1.3262   17.8024 C   0  0  0  0  0  0  0  0  0  0  0  0
    4.9079    1.8236   16.9585 H   0  0  0  0  0  0  0  0  0  0  0  0
    4.7855    1.3419   19.0657 C   0  0  0  0  0  0  0  0  0  0  0  0
    3.8413    1.8580   19.2110 H   0  0  0  0  0  0  0  0  0  0  0  0
    5.4389    0.6970   20.1237 C   0  0  0  0  0  0  0  0  0  0  0  0
    5.0200    0.6644   21.1306 H   0  0  0  0  0  0  0  0  0  0  0  0
  1  2  1  0
  2  3  1  0
  3  4  2  3
  4  5  1  0
  4  6  1  0
  6  7  2  0
  7  8  1  0
  8  9  1  0
  8 10  2  0
 10 11  1  0
 11 12  1  0
 11 13  2  0
 13 14  1  0
 14 15  2  0
 15 16  1  0
 15 17  1  0
 17 18  2  0
 18 19  1  0
 18 20  1  0
 20 21  1  0
 20 22  2  0
 22 23  1  0
 13  6  1  0
 22 14  1  0
M  END
>  <cnnaffinity>  (1) 
-4.38702

>  <filename>  (1) 
ON=Cc1ncncc1-c1cccnc1

$$$$
