
     RDKit          3D

 43 45  0  0  0  0  0  0  0  0999 V2000
    5.8550   -2.6235   21.6767 S   0  0  0  0  0  0  0  0  0  0  0  0
    6.9617   -1.4200   21.9801 C   0  0  0  0  0  0  0  0  0  0  0  0
    7.4504   -0.6171   20.9782 N   0  0  0  0  0  0  0  0  0  0  0  0
    6.7082    0.0311   19.9592 C   0  0  0  0  0  0  0  0  0  0  0  0
    5.4794    0.6555   20.2027 C   0  0  0  0  0  0  0  0  0  0  0  0
    4.8388    1.2918   19.1296 C   0  0  0  0  0  0  0  0  0  0  0  0
    5.4365    1.2805   17.8645 C   0  0  0  0  0  0  0  0  0  0  0  0
    6.6118    0.6811   17.6175 N   0  0  0  0  0  0  0  0  0  0  0  0
    7.2232    0.0864   18.6478 C   0  0  0  0  0  0  0  0  0  0  0  0
    8.1805   -0.3953   18.4552 H   0  0  0  0  0  0  0  0  0  0  0  0
    4.9505    1.7590   17.0146 H   0  0  0  0  0  0  0  0  0  0  0  0
    3.8840    1.7897   19.2581 H   0  0  0  0  0  0  0  0  0  0  0  0
    5.0801    0.6812   21.2188 H   0  0  0  0  0  0  0  0  0  0  0  0
    8.3806   -0.2731   21.1523 H   0  0  0  0  0  0  0  0  0  0  0  0
    7.5042   -1.1397   23.2112 N   0  0  0  0  0  0  0  0  0  0  0  0
    8.0596    0.1952   23.5475 C   0  0  0  0  0  0  0  0  0  0  0  0
    7.1601    1.3820   23.2110 C   0  0  0  0  0  0  0  0  0  0  0  0
    5.9108    1.5047   23.8509 C   0  0  0  0  0  0  0  0  0  0  0  0
    5.0548    2.5764   23.5959 C   0  0  0  0  0  0  0  0  0  0  0  0
    5.4282    3.5654   22.6817 C   0  0  0  0  0  0  0  0  0  0  0  0
    6.6679    3.4880   22.0443 C   0  0  0  0  0  0  0  0  0  0  0  0
    7.5126    2.4013   22.3026 C   0  0  0  0  0  0  0  0  0  0  0  0
    8.9975    2.3369   21.3762 Cl  0  0  0  0  0  0  0  0  0  0  0  0
    6.9870    4.2732   21.3652 H   0  0  0  0  0  0  0  0  0  0  0  0
    4.7631    4.3962   22.4610 H   0  0  0  0  0  0  0  0  0  0  0  0
    4.1041    2.6495   24.1177 H   0  0  0  0  0  0  0  0  0  0  0  0
    5.5977    0.7403   24.5608 H   0  0  0  0  0  0  0  0  0  0  0  0
    9.0390    0.3199   23.0769 H   0  0  0  0  0  0  0  0  0  0  0  0
    8.2574    0.2245   24.6235 H   0  0  0  0  0  0  0  0  0  0  0  0
    7.6065   -2.1871   24.2442 C   0  0  0  0  0  0  0  0  0  0  0  0
    9.0717   -2.5218   24.6276 C   0  0  0  0  0  0  0  0  0  0  0  0
    9.1737   -2.3593   26.1562 C   0  0  0  0  0  0  0  0  0  0  0  0
    7.7342   -2.4750   26.6698 C   0  0  0  0  0  0  0  0  0  0  0  0
    6.8805   -1.8432   25.5623 C   0  0  0  0  0  0  0  0  0  0  0  0
    6.8265   -0.7588   25.7077 H   0  0  0  0  0  0  0  0  0  0  0  0
    5.8461   -2.2097   25.5468 H   0  0  0  0  0  0  0  0  0  0  0  0
    7.5948   -1.9708   27.6305 H   0  0  0  0  0  0  0  0  0  0  0  0
    7.4698   -3.5326   26.8017 H   0  0  0  0  0  0  0  0  0  0  0  0
    9.5978   -1.3746   26.4005 H   0  0  0  0  0  0  0  0  0  0  0  0
    9.8227   -3.1156   26.6063 H   0  0  0  0  0  0  0  0  0  0  0  0
    9.3033   -3.5482   24.3202 H   0  0  0  0  0  0  0  0  0  0  0  0
    9.7774   -1.8752   24.0942 H   0  0  0  0  0  0  0  0  0  0  0  0
    7.1518   -3.0907   23.8337 H   0  0  0  0  0  0  0  0  0  0  0  0
  1  2  2  0
  2  3  1  0
  3  4  1  0
  4  5  2  0
  5  6  1  0
  6  7  2  0
  7  8  1  0
  8  9  2  0
  9 10  1  0
  7 11  1  0
  6 12  1  0
  5 13  1  0
  3 14  1  0
  2 15  1  0
 15 16  1  0
 16 17  1  0
 17 18  2  0
 18 19  1  0
 19 20  2  0
 20 21  1  0
 21 22  2  0
 22 23  1  0
 21 24  1  0
 20 25  1  0
 19 26  1  0
 18 27  1  0
 16 28  1  0
 16 29  1  0
 15 30  1  0
 30 31  1  0
 31 32  1  0
 32 33  1  0
 33 34  1  0
 34 35  1  0
 34 36  1  0
 33 37  1  0
 33 38  1  0
 32 39  1  0
 32 40  1  0
 31 41  1  0
 31 42  1  0
 30 43  1  0
  9  4  1  0
 22 17  1  0
 34 30  1  0
M  END
>  <cnnaffinity>  (1) 
-5.73434

>  <filename>  (1) 
S=C(Nc1cccnc1)N(Cc1ccccc1Cl)C1CCCC1

$$$$
