
     RDKit          3D

 37 39  0  0  0  0  0  0  0  0999 V2000
    5.6756   -2.5219   21.5032 S   0  0  0  0  0  0  0  0  0  0  0  0
    6.8259   -1.3790   21.8718 C   0  0  0  0  0  0  0  0  0  0  0  0
    7.5039   -0.7001   20.8724 N   0  0  0  0  0  0  0  0  0  0  0  0
    6.8233   -0.0449   19.8271 C   0  0  0  0  0  0  0  0  0  0  0  0
    5.5548    0.4883   20.0633 C   0  0  0  0  0  0  0  0  0  0  0  0
    4.8968    1.1470   19.0208 C   0  0  0  0  0  0  0  0  0  0  0  0
    5.5058    1.2469   17.7653 C   0  0  0  0  0  0  0  0  0  0  0  0
    6.7330    0.7503   17.5211 N   0  0  0  0  0  0  0  0  0  0  0  0
    7.3773    0.1341   18.5361 C   0  0  0  0  0  0  0  0  0  0  0  0
    8.3672   -0.2612   18.3391 H   0  0  0  0  0  0  0  0  0  0  0  0
    4.9694    1.7463   16.9643 H   0  0  0  0  0  0  0  0  0  0  0  0
    3.9183    1.5883   19.1719 H   0  0  0  0  0  0  0  0  0  0  0  0
    5.1126    0.3970   21.0536 H   0  0  0  0  0  0  0  0  0  0  0  0
    8.3554   -0.2605   21.2070 H   0  0  0  0  0  0  0  0  0  0  0  0
    7.2158   -1.2467   23.1885 N   0  0  0  0  0  0  0  0  0  0  0  0
    8.3428   -0.4228   23.6275 C   0  0  0  0  0  0  0  0  0  0  0  0
    9.7117   -1.0762   23.4490 C   0  0  0  0  0  0  0  0  0  0  0  0
   10.8531   -0.0984   23.5373 C   0  0  0  0  0  0  0  0  0  0  0  0
   11.7029   -0.1518   24.6453 C   0  0  0  0  0  0  0  0  0  0  0  0
   12.8247    0.6706   24.7238 C   0  0  0  0  0  0  0  0  0  0  0  0
   13.0578    1.6322   23.7406 C   0  0  0  0  0  0  0  0  0  0  0  0
   12.1652    1.7506   22.6673 C   0  0  0  0  0  0  0  0  0  0  0  0
   11.0802    0.8658   22.5386 C   0  0  0  0  0  0  0  0  0  0  0  0
    9.9160    0.9869   21.0150 Br  0  0  0  0  0  0  0  0  0  0  0  0
   12.3230    2.5385   21.9370 H   0  0  0  0  0  0  0  0  0  0  0  0
   13.9138    2.2935   23.8287 H   0  0  0  0  0  0  0  0  0  0  0  0
   13.5127    0.5661   25.5549 H   0  0  0  0  0  0  0  0  0  0  0  0
   11.5057   -0.8738   25.4279 H   0  0  0  0  0  0  0  0  0  0  0  0
    9.7484   -1.5769   22.4810 H   0  0  0  0  0  0  0  0  0  0  0  0
    9.8355   -1.8512   24.2073 H   0  0  0  0  0  0  0  0  0  0  0  0
    8.1091    0.5054   24.8110 C   0  0  0  0  0  0  0  0  0  0  0  0
    8.1980    1.0739   23.3972 C   0  0  0  0  0  0  0  0  0  0  0  0
    9.0968    1.6425   23.1504 H   0  0  0  0  0  0  0  0  0  0  0  0
    7.2802    1.4250   22.9211 H   0  0  0  0  0  0  0  0  0  0  0  0
    7.1247    0.5024   25.2867 H   0  0  0  0  0  0  0  0  0  0  0  0
    8.9554    0.6831   25.4823 H   0  0  0  0  0  0  0  0  0  0  0  0
    6.7877   -1.8899   23.8450 H   0  0  0  0  0  0  0  0  0  0  0  0
  1  2  2  0
  2  3  1  0
  3  4  1  0
  4  5  2  0
  5  6  1  0
  6  7  2  0
  7  8  1  0
  8  9  2  0
  9 10  1  0
  7 11  1  0
  6 12  1  0
  5 13  1  0
  3 14  1  0
  2 15  1  0
 15 16  1  0
 16 17  1  0
 17 18  1  0
 18 19  2  0
 19 20  1  0
 20 21  2  0
 21 22  1  0
 22 23  2  0
 23 24  1  0
 22 25  1  0
 21 26  1  0
 20 27  1  0
 19 28  1  0
 17 29  1  0
 17 30  1  0
 16 31  1  0
 31 32  1  0
 32 33  1  0
 32 34  1  0
 31 35  1  0
 31 36  1  0
 15 37  1  0
  9  4  1  0
 32 16  1  0
 23 18  1  0
M  END
>  <cnnaffinity>  (1) 
-5.45278

>  <filename>  (1) 
S=C(Nc1cccnc1)NC1(Cc2ccccc2Br)CC1

$$$$
