
     RDKit          3D

 33 35  0  0  0  0  0  0  0  0999 V2000
    4.9234    1.7806   16.9957 H   0  0  0  0  0  0  0  0  0  0  0  0
    5.4042    1.2916   17.8404 C   0  0  0  0  0  0  0  0  0  0  0  0
    6.5680    0.6723   17.5837 N   0  0  0  0  0  0  0  0  0  0  0  0
    7.1715    0.0583   18.6016 C   0  0  0  0  0  0  0  0  0  0  0  0
    8.1160   -0.4330   18.3745 H   0  0  0  0  0  0  0  0  0  0  0  0
    6.6625    0.0284   19.9132 C   0  0  0  0  0  0  0  0  0  0  0  0
    7.3798   -0.7048   20.9908 C   0  0  0  0  0  0  0  0  0  0  0  0
    8.0830   -2.1558   20.7469 S   0  0  0  0  0  0  0  0  0  0  0  0
    7.4394   -0.0948   22.3471 C   0  0  0  0  0  0  0  0  0  0  0  0
    7.4021   -0.9234   23.4881 C   0  0  0  0  0  0  0  0  0  0  0  0
    7.3014   -2.0006   23.3665 H   0  0  0  0  0  0  0  0  0  0  0  0
    7.4975   -0.3605   24.7542 C   0  0  0  0  0  0  0  0  0  0  0  0
    7.4590   -1.0031   25.6275 H   0  0  0  0  0  0  0  0  0  0  0  0
    7.6308    1.0225   24.9029 C   0  0  0  0  0  0  0  0  0  0  0  0
    7.7134    1.4530   25.8957 H   0  0  0  0  0  0  0  0  0  0  0  0
    7.6863    1.8677   23.7800 C   0  0  0  0  0  0  0  0  0  0  0  0
    7.8286    3.3421   23.9351 C   0  0  0  0  0  0  0  0  0  0  0  0
    7.1169    4.0292   24.9355 C   0  0  0  0  0  0  0  0  0  0  0  0
    6.4466    3.4693   25.5847 H   0  0  0  0  0  0  0  0  0  0  0  0
    7.2467    5.4112   25.0836 C   0  0  0  0  0  0  0  0  0  0  0  0
    6.6885    5.9211   25.8654 H   0  0  0  0  0  0  0  0  0  0  0  0
    8.0990    6.1293   24.2354 C   0  0  0  0  0  0  0  0  0  0  0  0
    8.1997    7.2045   24.3493 H   0  0  0  0  0  0  0  0  0  0  0  0
    8.8161    5.4577   23.2366 C   0  0  0  0  0  0  0  0  0  0  0  0
    9.4714    6.0060   22.5636 H   0  0  0  0  0  0  0  0  0  0  0  0
    8.6771    4.0756   23.0850 C   0  0  0  0  0  0  0  0  0  0  0  0
    9.2395    3.5494   22.3149 H   0  0  0  0  0  0  0  0  0  0  0  0
    7.5977    1.2901   22.5063 C   0  0  0  0  0  0  0  0  0  0  0  0
    7.6166    1.9315   21.6270 H   0  0  0  0  0  0  0  0  0  0  0  0
    5.4339    0.6627   20.1624 C   0  0  0  0  0  0  0  0  0  0  0  0
    5.0032    0.6448   21.1685 H   0  0  0  0  0  0  0  0  0  0  0  0
    4.7997    1.3085   19.1026 C   0  0  0  0  0  0  0  0  0  0  0  0
    3.8671    1.8457   19.2529 H   0  0  0  0  0  0  0  0  0  0  0  0
  1  2  1  0
  2  3  2  0
  3  4  1  0
  4  5  1  0
  4  6  2  0
  6  7  1  0
  7  8  2  0
  7  9  1  0
  9 10  2  0
 10 11  1  0
 10 12  1  0
 12 13  1  0
 12 14  2  0
 14 15  1  0
 14 16  1  0
 16 17  1  0
 17 18  2  0
 18 19  1  0
 18 20  1  0
 20 21  1  0
 20 22  2  0
 22 23  1  0
 22 24  1  0
 24 25  1  0
 24 26  2  0
 26 27  1  0
 16 28  2  0
 28 29  1  0
  6 30  1  0
 30 31  1  0
 30 32  2  0
 32 33  1  0
 32  2  1  0
 28  9  1  0
 26 17  1  0
M  END
>  <cnnaffinity>  (1) 
-4.85176

>  <filename>  (1) 
S=C(c1cccnc1)c1cccc(-c2ccccc2)c1

$$$$
