
     RDKit          3D

 35 37  0  0  0  0  0  0  0  0999 V2000
    5.5809   -1.5461   21.8718 H   0  0  0  0  0  0  0  0  0  0  0  0
    6.6614   -1.4772   21.9005 C   0  0  0  0  0  0  0  0  0  0  0  0
    7.3144   -2.1037   22.9032 N   0  0  0  0  0  0  0  0  0  0  0  0
    8.6516   -2.0232   22.8778 C   0  0  0  0  0  0  0  0  0  0  0  0
    9.2279   -2.4722   23.6779 H   0  0  0  0  0  0  0  0  0  0  0  0
    9.3319   -1.3720   21.8029 C   0  0  0  0  0  0  0  0  0  0  0  0
   10.7070   -1.2793   21.6562 N   0  0  0  0  0  0  0  0  0  0  0  0
   10.9663   -1.1471   20.6901 H   0  0  0  0  0  0  0  0  0  0  0  0
   11.6534   -0.9044   22.5510 C   0  0  0  0  0  0  0  0  0  0  0  0
   13.2486   -0.8983   22.1441 S   0  0  0  0  0  0  0  0  0  0  0  0
   11.2185   -0.5640   23.8121 N   0  0  0  0  0  0  0  0  0  0  0  0
   12.0332   -0.5741   24.4132 H   0  0  0  0  0  0  0  0  0  0  0  0
   10.3461    0.5336   24.1220 C   0  0  0  0  0  0  0  0  0  0  0  0
    9.6632    0.5111   25.3437 C   0  0  0  0  0  0  0  0  0  0  0  0
    9.7906   -0.3539   25.9882 H   0  0  0  0  0  0  0  0  0  0  0  0
    8.8535    1.5927   25.7167 C   0  0  0  0  0  0  0  0  0  0  0  0
    8.3431    1.5727   26.6759 H   0  0  0  0  0  0  0  0  0  0  0  0
    8.7288    2.7049   24.8751 C   0  0  0  0  0  0  0  0  0  0  0  0
    8.1071    3.5515   25.1623 H   0  0  0  0  0  0  0  0  0  0  0  0
    9.4270    2.7313   23.6625 C   0  0  0  0  0  0  0  0  0  0  0  0
    9.3719    3.5999   23.0094 H   0  0  0  0  0  0  0  0  0  0  0  0
   10.2280    1.6469   23.2851 C   0  0  0  0  0  0  0  0  0  0  0  0
   10.7912    1.6602   22.3555 H   0  0  0  0  0  0  0  0  0  0  0  0
    8.6932   -0.8361   20.7722 N   0  0  0  0  0  0  0  0  0  0  0  0
    7.3435   -0.7970   20.8626 C   0  0  0  0  0  0  0  0  0  0  0  0
    6.6316   -0.0199   19.8245 C   0  0  0  0  0  0  0  0  0  0  0  0
    7.1934    0.0702   18.5387 C   0  0  0  0  0  0  0  0  0  0  0  0
    8.1496   -0.4026   18.3289 H   0  0  0  0  0  0  0  0  0  0  0  0
    6.6117    0.6978   17.5128 N   0  0  0  0  0  0  0  0  0  0  0  0
    5.4464    1.3196   17.7520 C   0  0  0  0  0  0  0  0  0  0  0  0
    4.9929    1.8353   16.9077 H   0  0  0  0  0  0  0  0  0  0  0  0
    4.8192    1.3329   19.0029 C   0  0  0  0  0  0  0  0  0  0  0  0
    3.8836    1.8721   19.1289 H   0  0  0  0  0  0  0  0  0  0  0  0
    5.4161    0.6486   20.0615 C   0  0  0  0  0  0  0  0  0  0  0  0
    4.9483    0.6602   21.0491 H   0  0  0  0  0  0  0  0  0  0  0  0
  1  2  1  0
  2  3  2  0
  3  4  1  0
  4  5  1  0
  4  6  2  0
  6  7  1  0
  7  8  1  0
  7  9  1  0
  9 10  2  0
  9 11  1  0
 11 12  1  0
 11 13  1  0
 13 14  2  0
 14 15  1  0
 14 16  1  0
 16 17  1  0
 16 18  2  0
 18 19  1  0
 18 20  1  0
 20 21  1  0
 20 22  2  0
 22 23  1  0
  6 24  1  0
 24 25  2  0
 25 26  1  0
 26 27  2  0
 27 28  1  0
 27 29  1  0
 29 30  2  0
 30 31  1  0
 30 32  1  0
 32 33  1  0
 32 34  2  0
 34 35  1  0
 25  2  1  0
 34 26  1  0
 22 13  1  0
M  END
>  <cnnaffinity>  (1) 
-5.96397

>  <filename>  (1) 
S=C(Nc1ccccc1)Nc1cncc(-c2cccnc2)n1

$$$$
