
     RDKit          3D

 22 23  0  0  0  0  0  0  0  0999 V2000
    4.9655    1.8178   16.9846 H   0  0  0  0  0  0  0  0  0  0  0  0
    5.4249    1.3125   17.8297 C   0  0  0  0  0  0  0  0  0  0  0  0
    6.5995    0.7056   17.5809 N   0  0  0  0  0  0  0  0  0  0  0  0
    7.1877    0.0662   18.5915 C   0  0  0  0  0  0  0  0  0  0  0  0
    8.1555   -0.3872   18.3852 H   0  0  0  0  0  0  0  0  0  0  0  0
    6.6282   -0.0507   19.8848 C   0  0  0  0  0  0  0  0  0  0  0  0
    7.3679   -0.7962   20.9438 C   0  0  0  0  0  0  0  0  0  0  0  0
    8.9715   -0.5477   21.1825 S   0  0  0  0  0  0  0  0  0  0  0  0
    6.6340   -1.8255   21.8119 C   0  0  0  0  0  0  0  0  0  0  0  0
    5.5232   -2.3942   21.5050 N   0  0  0  0  0  0  0  0  0  0  0  0
    5.2473   -3.3886   22.5528 C   0  0  0  0  0  0  0  0  0  0  0  0
    4.2406   -3.2140   22.9507 H   0  0  0  0  0  0  0  0  0  0  0  0
    5.2750   -4.3966   22.1113 H   0  0  0  0  0  0  0  0  0  0  0  0
    6.3484   -3.2110   23.6410 C   0  0  0  0  0  0  0  0  0  0  0  0
    5.9475   -2.8085   24.5855 H   0  0  0  0  0  0  0  0  0  0  0  0
    6.8830   -4.1427   23.8689 H   0  0  0  0  0  0  0  0  0  0  0  0
    7.2167   -2.2686   22.9723 N   0  0  0  0  0  0  0  0  0  0  0  0
    8.1112   -1.9198   23.2800 H   0  0  0  0  0  0  0  0  0  0  0  0
    5.4038    0.5987   20.1317 C   0  0  0  0  0  0  0  0  0  0  0  0
    4.9490    0.5598   21.1223 H   0  0  0  0  0  0  0  0  0  0  0  0
    4.8054    1.3028   19.0833 C   0  0  0  0  0  0  0  0  0  0  0  0
    3.8740    1.8417   19.2162 H   0  0  0  0  0  0  0  0  0  0  0  0
  1  2  1  0
  2  3  2  0
  3  4  1  0
  4  5  1  0
  4  6  2  0
  6  7  1  0
  7  8  2  0
  7  9  1  0
  9 10  2  0
 10 11  1  0
 11 12  1  0
 11 13  1  0
 11 14  1  0
 14 15  1  0
 14 16  1  0
 14 17  1  0
 17 18  1  0
  6 19  1  0
 19 20  1  0
 19 21  2  0
 21 22  1  0
 21  2  1  0
 17  9  1  0
M  END
>  <cnnaffinity>  (1) 
-3.92951

>  <filename>  (1) 
S=C(C1=NCCN1)c1cccnc1

$$$$
