
     RDKit          3D

 27 29  0  0  0  0  0  0  0  0999 V2000
    4.8530    2.0203   16.9713 H   0  0  0  0  0  0  0  0  0  0  0  0
    5.3194    1.4268   17.7550 C   0  0  0  0  0  0  0  0  0  0  0  0
    6.4489    0.7842   17.4090 N   0  0  0  0  0  0  0  0  0  0  0  0
    7.0598    0.0557   18.3497 C   0  0  0  0  0  0  0  0  0  0  0  0
    7.9883   -0.4479   18.0812 H   0  0  0  0  0  0  0  0  0  0  0  0
    6.5793   -0.0920   19.6666 C   0  0  0  0  0  0  0  0  0  0  0  0
    7.2629   -0.8943   20.6352 N   0  0  0  0  0  0  0  0  0  0  0  0
    6.7477   -1.6719   21.0301 H   0  0  0  0  0  0  0  0  0  0  0  0
    8.5096   -0.6984   21.1469 C   0  0  0  0  0  0  0  0  0  0  0  0
    9.4490    0.6044   20.8058 S   0  0  0  0  0  0  0  0  0  0  0  0
    8.9611   -1.7981   22.0804 C   0  0  0  0  0  0  0  0  0  0  0  0
    8.1894   -2.7644   22.4767 N   0  0  0  0  0  0  0  0  0  0  0  0
    8.8428   -3.5677   23.3844 C   0  0  0  0  0  0  0  0  0  0  0  0
    8.2479   -4.6290   24.0873 C   0  0  0  0  0  0  0  0  0  0  0  0
    7.1956   -4.8114   23.9104 H   0  0  0  0  0  0  0  0  0  0  0  0
    9.0191   -5.3760   24.9725 C   0  0  0  0  0  0  0  0  0  0  0  0
    8.5663   -6.1761   25.5476 H   0  0  0  0  0  0  0  0  0  0  0  0
   10.3938   -5.1075   25.1122 C   0  0  0  0  0  0  0  0  0  0  0  0
   10.9906   -5.7445   25.7563 H   0  0  0  0  0  0  0  0  0  0  0  0
   10.9979   -4.0672   24.4127 C   0  0  0  0  0  0  0  0  0  0  0  0
   12.0675   -3.9468   24.4537 H   0  0  0  0  0  0  0  0  0  0  0  0
   10.1972   -3.2441   23.6047 C   0  0  0  0  0  0  0  0  0  0  0  0
   10.5909   -1.7992   22.7227 S   0  0  0  0  0  0  0  0  0  0  0  0
    5.3914    0.5672   20.0094 C   0  0  0  0  0  0  0  0  0  0  0  0
    4.9936    0.4853   21.0227 H   0  0  0  0  0  0  0  0  0  0  0  0
    4.7609    1.3545   19.0356 C   0  0  0  0  0  0  0  0  0  0  0  0
    3.8580    1.9175   19.2578 H   0  0  0  0  0  0  0  0  0  0  0  0
  1  2  1  0
  2  3  2  0
  3  4  1  0
  4  5  1  0
  4  6  2  0
  6  7  1  0
  7  8  1  0
  7  9  1  0
  9 10  2  0
  9 11  1  0
 11 12  2  0
 12 13  1  0
 13 14  2  0
 14 15  1  0
 14 16  1  0
 16 17  1  0
 16 18  2  0
 18 19  1  0
 18 20  1  0
 20 21  1  0
 20 22  2  0
 22 23  1  0
  6 24  1  0
 24 25  1  0
 24 26  2  0
 26 27  1  0
 26  2  1  0
 23 11  1  0
 22 13  1  0
M  END
>  <cnnaffinity>  (1) 
-5.5007

>  <filename>  (1) 
S=C(Nc1cccnc1)c1nc2ccccc2s1

$$$$
