
     RDKit          3D

 37 39  0  0  0  0  0  0  0  0999 V2000
    4.9822    1.8209   16.9464 H   0  0  0  0  0  0  0  0  0  0  0  0
    5.4311    1.2983   17.7901 C   0  0  0  0  0  0  0  0  0  0  0  0
    6.5752    0.6460   17.5427 N   0  0  0  0  0  0  0  0  0  0  0  0
    7.1461   -0.0077   18.5653 C   0  0  0  0  0  0  0  0  0  0  0  0
    8.0758   -0.5336   18.3304 H   0  0  0  0  0  0  0  0  0  0  0  0
    6.6257   -0.0444   19.8689 C   0  0  0  0  0  0  0  0  0  0  0  0
    7.3559   -0.7265   21.0126 C   0  0  0  0  0  0  0  0  0  0  0  0
    6.6180   -1.1234   21.7236 H   0  0  0  0  0  0  0  0  0  0  0  0
    7.9444   -1.5700   20.6347 H   0  0  0  0  0  0  0  0  0  0  0  0
    8.2904    0.2159   21.7578 C   0  0  0  0  0  0  0  0  0  0  0  0
    7.6395    1.3523   22.3360 N   0  0  0  0  0  0  0  0  0  0  0  0
    7.4871    2.1555   21.7503 H   0  0  0  0  0  0  0  0  0  0  0  0
    7.2181    1.5779   23.5921 C   0  0  0  0  0  0  0  0  0  0  0  0
    6.6074    3.0736   23.9976 S   0  0  0  0  0  0  0  0  0  0  0  0
    7.3280    0.5068   24.4026 N   0  0  0  0  0  0  0  0  0  0  0  0
    7.5943   -0.3337   23.9214 H   0  0  0  0  0  0  0  0  0  0  0  0
    7.2817    0.4863   25.8127 C   0  0  0  0  0  0  0  0  0  0  0  0
    7.8899    1.5133   26.5483 C   0  0  0  0  0  0  0  0  0  0  0  0
    8.3902    2.3175   26.0209 H   0  0  0  0  0  0  0  0  0  0  0  0
    7.8156    1.4960   27.9399 C   0  0  0  0  0  0  0  0  0  0  0  0
    8.2622    2.3112   28.5056 H   0  0  0  0  0  0  0  0  0  0  0  0
    7.1638    0.4500   28.5952 C   0  0  0  0  0  0  0  0  0  0  0  0
    7.0998    0.4590   29.6773 H   0  0  0  0  0  0  0  0  0  0  0  0
    6.5863   -0.5946   27.8611 C   0  0  0  0  0  0  0  0  0  0  0  0
    6.1110   -1.4296   28.3769 H   0  0  0  0  0  0  0  0  0  0  0  0
    6.6478   -0.5785   26.4614 C   0  0  0  0  0  0  0  0  0  0  0  0
    6.2077   -1.3803   25.8738 H   0  0  0  0  0  0  0  0  0  0  0  0
    9.5336   -0.2913   22.4271 C   0  0  0  0  0  0  0  0  0  0  0  0
    9.8494    0.2026   23.3404 H   0  0  0  0  0  0  0  0  0  0  0  0
    9.7550   -1.3545   22.3832 H   0  0  0  0  0  0  0  0  0  0  0  0
    9.6333    0.5242   21.1684 C   0  0  0  0  0  0  0  0  0  0  0  0
    9.8877    0.0142   20.2494 H   0  0  0  0  0  0  0  0  0  0  0  0
   10.0051    1.5399   21.2541 H   0  0  0  0  0  0  0  0  0  0  0  0
    5.4329    0.6513   20.1030 C   0  0  0  0  0  0  0  0  0  0  0  0
    5.0150    0.6824   21.1107 H   0  0  0  0  0  0  0  0  0  0  0  0
    4.8172    1.3228   19.0451 C   0  0  0  0  0  0  0  0  0  0  0  0
    3.8885    1.8596   19.1849 H   0  0  0  0  0  0  0  0  0  0  0  0
  1  2  1  0
  2  3  2  0
  3  4  1  0
  4  5  1  0
  4  6  2  0
  6  7  1  0
  7  8  1  0
  7  9  1  0
  7 10  1  0
 10 11  1  0
 11 12  1  0
 11 13  1  0
 13 14  2  0
 13 15  1  0
 15 16  1  0
 15 17  1  0
 17 18  2  0
 18 19  1  0
 18 20  1  0
 20 21  1  0
 20 22  2  0
 22 23  1  0
 22 24  1  0
 24 25  1  0
 24 26  2  0
 26 27  1  0
 10 28  1  0
 28 29  1  0
 28 30  1  0
 28 31  1  0
 31 32  1  0
 31 33  1  0
  6 34  1  0
 34 35  1  0
 34 36  2  0
 36 37  1  0
 36  2  1  0
 31 10  1  0
 26 17  1  0
M  END
>  <cnnaffinity>  (1) 
-4.88446

>  <filename>  (1) 
S=C(Nc1ccccc1)NC1(Cc2cccnc2)CC1

$$$$
