
     RDKit          3D

 34 36  0  0  0  0  0  0  0  0999 V2000
    9.2715   -0.4728   19.7225 H   0  0  0  0  0  0  0  0  0  0  0  0
    8.6114   -0.9096   20.4627 C   0  0  0  0  0  0  0  0  0  0  0  0
    9.1285   -1.7741   21.3094 N   0  0  0  0  0  0  0  0  0  0  0  0
    8.3077   -2.3100   22.2453 N   0  0  0  0  0  0  0  0  0  0  0  0
    7.0423   -1.9240   22.3028 C   0  0  0  0  0  0  0  0  0  0  0  0
    6.1687   -2.4060   23.2379 N   0  0  0  0  0  0  0  0  0  0  0  0
    5.3219   -1.8846   23.1643 H   0  0  0  0  0  0  0  0  0  0  0  0
    6.3694   -3.0139   24.4501 C   0  0  0  0  0  0  0  0  0  0  0  0
    5.2548   -2.8719   25.6504 S   0  0  0  0  0  0  0  0  0  0  0  0
    7.4755   -3.7633   24.4285 N   0  0  0  0  0  0  0  0  0  0  0  0
    7.9864   -3.6844   23.5558 H   0  0  0  0  0  0  0  0  0  0  0  0
    8.1821   -4.4480   25.4308 C   0  0  0  0  0  0  0  0  0  0  0  0
    8.5713   -3.8428   26.6260 C   0  0  0  0  0  0  0  0  0  0  0  0
    8.1110   -2.8980   26.9185 H   0  0  0  0  0  0  0  0  0  0  0  0
    9.5900   -4.4746   27.3515 C   0  0  0  0  0  0  0  0  0  0  0  0
   10.0183   -4.1051   28.2669 H   0  0  0  0  0  0  0  0  0  0  0  0
   10.1745   -5.6495   26.8907 C   0  0  0  0  0  0  0  0  0  0  0  0
   11.0183   -6.0299   27.4371 H   0  0  0  0  0  0  0  0  0  0  0  0
    9.6854   -6.3139   25.7652 C   0  0  0  0  0  0  0  0  0  0  0  0
   10.1059   -7.2675   25.4523 H   0  0  0  0  0  0  0  0  0  0  0  0
    8.6674   -5.7077   25.0379 C   0  0  0  0  0  0  0  0  0  0  0  0
    8.2300   -6.1656   24.1560 H   0  0  0  0  0  0  0  0  0  0  0  0
    6.4355   -1.0658   21.4709 N   0  0  0  0  0  0  0  0  0  0  0  0
    7.2128   -0.5818   20.5155 C   0  0  0  0  0  0  0  0  0  0  0  0
    6.5735    0.2574   19.4922 C   0  0  0  0  0  0  0  0  0  0  0  0
    7.0813    0.2552   18.1870 C   0  0  0  0  0  0  0  0  0  0  0  0
    7.9933   -0.2951   17.9532 H   0  0  0  0  0  0  0  0  0  0  0  0
    6.5104    0.8832   17.1616 N   0  0  0  0  0  0  0  0  0  0  0  0
    5.3932    1.5807   17.4158 C   0  0  0  0  0  0  0  0  0  0  0  0
    4.9211    2.0447   16.5552 H   0  0  0  0  0  0  0  0  0  0  0  0
    4.8275    1.6963   18.6891 C   0  0  0  0  0  0  0  0  0  0  0  0
    3.9383    2.3012   18.8309 H   0  0  0  0  0  0  0  0  0  0  0  0
    5.4198    1.0178   19.7510 C   0  0  0  0  0  0  0  0  0  0  0  0
    5.0064    1.0675   20.7595 H   0  0  0  0  0  0  0  0  0  0  0  0
  1  2  1  0
  2  3  2  0
  3  4  1  0
  4  5  2  0
  5  6  1  0
  6  7  1  0
  6  8  1  0
  8  9  2  0
  8 10  1  0
 10 11  1  0
 10 12  1  0
 12 13  2  0
 13 14  1  0
 13 15  1  0
 15 16  1  0
 15 17  2  0
 17 18  1  0
 17 19  1  0
 19 20  1  0
 19 21  2  0
 21 22  1  0
  5 23  1  0
 23 24  2  0
 24 25  1  0
 25 26  2  0
 26 27  1  0
 26 28  1  0
 28 29  2  0
 29 30  1  0
 29 31  1  0
 31 32  1  0
 31 33  2  0
 33 34  1  0
 24  2  1  0
 33 25  1  0
 21 12  1  0
M  END
>  <cnnaffinity>  (1) 
-5.14381

>  <filename>  (1) 
S=C(Nc1ccccc1)Nc1nncc(-c2cccnc2)n1

$$$$
