
     RDKit          3D

 40 42  0  0  0  0  0  0  0  0999 V2000
    8.0760   -2.3037   24.9322 S   0  0  0  0  0  0  0  0  0  0  0  0
    7.6953   -0.9500   24.0474 C   0  0  0  0  0  0  0  0  0  0  0  0
    6.4068   -0.4639   24.0991 N   0  0  0  0  0  0  0  0  0  0  0  0
    6.0031    0.8656   24.3874 C   0  0  0  0  0  0  0  0  0  0  0  0
    6.9006    1.8481   24.8248 C   0  0  0  0  0  0  0  0  0  0  0  0
    6.4696    3.1737   24.9771 C   0  0  0  0  0  0  0  0  0  0  0  0
    5.1421    3.5241   24.6925 C   0  0  0  0  0  0  0  0  0  0  0  0
    4.2317    2.5277   24.3223 C   0  0  0  0  0  0  0  0  0  0  0  0
    4.6520    1.1972   24.2433 C   0  0  0  0  0  0  0  0  0  0  0  0
    3.9291    0.4000   24.1804 H   0  0  0  0  0  0  0  0  0  0  0  0
    3.1933    2.7732   24.1043 H   0  0  0  0  0  0  0  0  0  0  0  0
    4.8095    4.5559   24.7912 H   0  0  0  0  0  0  0  0  0  0  0  0
    7.1744    3.9332   25.3104 H   0  0  0  0  0  0  0  0  0  0  0  0
    7.9149    1.5552   25.0759 H   0  0  0  0  0  0  0  0  0  0  0  0
    5.8024   -1.1851   24.4514 H   0  0  0  0  0  0  0  0  0  0  0  0
    8.5296   -0.3121   23.2004 N   0  0  0  0  0  0  0  0  0  0  0  0
    9.9890   -0.4460   23.2766 C   0  0  0  0  0  0  0  0  0  0  0  0
   10.4887    0.1714   21.9589 C   0  0  0  0  0  0  0  0  0  0  0  0
    9.3019    0.9674   21.3899 C   0  0  0  0  0  0  0  0  0  0  0  0
    8.0444    0.3137   21.9630 C   0  0  0  0  0  0  0  0  0  0  0  0
    7.3755   -0.7077   21.0115 C   0  0  0  0  0  0  0  0  0  0  0  0
    6.6385   -0.0252   19.8798 C   0  0  0  0  0  0  0  0  0  0  0  0
    5.4298    0.6449   20.1290 C   0  0  0  0  0  0  0  0  0  0  0  0
    4.7907    1.3126   19.0832 C   0  0  0  0  0  0  0  0  0  0  0  0
    5.3880    1.3044   17.8178 C   0  0  0  0  0  0  0  0  0  0  0  0
    6.5477    0.6839   17.5569 N   0  0  0  0  0  0  0  0  0  0  0  0
    7.1497    0.0506   18.5723 C   0  0  0  0  0  0  0  0  0  0  0  0
    8.1039   -0.4203   18.3285 H   0  0  0  0  0  0  0  0  0  0  0  0
    4.9181    1.8137   16.9778 H   0  0  0  0  0  0  0  0  0  0  0  0
    3.8615    1.8561   19.2328 H   0  0  0  0  0  0  0  0  0  0  0  0
    5.0169    0.6468   21.1424 H   0  0  0  0  0  0  0  0  0  0  0  0
    8.1402   -1.3985   20.6334 H   0  0  0  0  0  0  0  0  0  0  0  0
    6.6671   -1.3095   21.5943 H   0  0  0  0  0  0  0  0  0  0  0  0
    7.2866    1.0713   22.2057 H   0  0  0  0  0  0  0  0  0  0  0  0
    9.2794    0.9437   20.2948 H   0  0  0  0  0  0  0  0  0  0  0  0
    9.3336    2.0159   21.7020 H   0  0  0  0  0  0  0  0  0  0  0  0
   11.3575    0.8156   22.1257 H   0  0  0  0  0  0  0  0  0  0  0  0
   10.7938   -0.6200   21.2640 H   0  0  0  0  0  0  0  0  0  0  0  0
   10.3599    0.0885   24.1637 H   0  0  0  0  0  0  0  0  0  0  0  0
   10.2613   -1.5038   23.3982 H   0  0  0  0  0  0  0  0  0  0  0  0
  1  2  2  0
  2  3  1  0
  3  4  1  0
  4  5  2  0
  5  6  1  0
  6  7  2  0
  7  8  1  0
  8  9  2  0
  9 10  1  0
  8 11  1  0
  7 12  1  0
  6 13  1  0
  5 14  1  0
  3 15  1  0
  2 16  1  0
 16 17  1  0
 17 18  1  0
 18 19  1  0
 19 20  1  0
 20 21  1  0
 21 22  1  0
 22 23  2  0
 23 24  1  0
 24 25  2  0
 25 26  1  0
 26 27  2  0
 27 28  1  0
 25 29  1  0
 24 30  1  0
 23 31  1  0
 21 32  1  0
 21 33  1  0
 20 34  1  0
 19 35  1  0
 19 36  1  0
 18 37  1  0
 18 38  1  0
 17 39  1  0
 17 40  1  0
  9  4  1  0
 20 16  1  0
 27 22  1  0
M  END
>  <cnnaffinity>  (1) 
-5.29433

>  <filename>  (1) 
S=C(Nc1ccccc1)N1CCCC1Cc1cccnc1

$$$$
