
     RDKit          3D

 24 25  0  0  0  0  0  0  0  0999 V2000
    5.0314    1.8005   16.9936 H   0  0  0  0  0  0  0  0  0  0  0  0
    5.4745    1.2567   17.8233 C   0  0  0  0  0  0  0  0  0  0  0  0
    6.5975    0.5552   17.6079 N   0  0  0  0  0  0  0  0  0  0  0  0
    7.1431   -0.0966   18.6479 C   0  0  0  0  0  0  0  0  0  0  0  0
    8.0656   -0.6407   18.4753 H   0  0  0  0  0  0  0  0  0  0  0  0
    6.6148   -0.0686   19.9462 C   0  0  0  0  0  0  0  0  0  0  0  0
    7.3750   -0.7182   21.0223 C   0  0  0  0  0  0  0  0  0  0  0  0
    8.6967   -1.6791   20.6653 S   0  0  0  0  0  0  0  0  0  0  0  0
    7.1948   -0.2142   22.6953 S   0  0  0  0  0  0  0  0  0  0  0  0
    8.3840    1.0896   22.6199 C   0  0  0  0  0  0  0  0  0  0  0  0
    9.7560    0.8022   22.7101 C   0  0  0  0  0  0  0  0  0  0  0  0
   10.1046   -0.2167   22.8502 H   0  0  0  0  0  0  0  0  0  0  0  0
   10.6987    1.8343   22.6290 C   0  0  0  0  0  0  0  0  0  0  0  0
   11.7616    1.6109   22.6794 H   0  0  0  0  0  0  0  0  0  0  0  0
   10.2691    3.1556   22.4851 C   0  0  0  0  0  0  0  0  0  0  0  0
   10.9935    3.9584   22.4212 H   0  0  0  0  0  0  0  0  0  0  0  0
    8.9070    3.4586   22.3863 C   0  0  0  0  0  0  0  0  0  0  0  0
    8.3266    5.2686   22.1528 Br  0  0  0  0  0  0  0  0  0  0  0  0
    7.9755    2.4170   22.4382 C   0  0  0  0  0  0  0  0  0  0  0  0
    6.9173    2.6358   22.3470 H   0  0  0  0  0  0  0  0  0  0  0  0
    5.4272    0.6447   20.1671 C   0  0  0  0  0  0  0  0  0  0  0  0
    4.9656    0.7138   21.1539 H   0  0  0  0  0  0  0  0  0  0  0  0
    4.8567    1.3070   19.0773 C   0  0  0  0  0  0  0  0  0  0  0  0
    3.9485    1.8894   19.1798 H   0  0  0  0  0  0  0  0  0  0  0  0
  1  2  1  0
  2  3  2  0
  3  4  1  0
  4  5  1  0
  4  6  2  0
  6  7  1  0
  7  8  2  0
  7  9  1  0
  9 10  1  0
 10 11  2  0
 11 12  1  0
 11 13  1  0
 13 14  1  0
 13 15  2  0
 15 16  1  0
 15 17  1  0
 17 18  1  0
 17 19  2  0
 19 20  1  0
  6 21  1  0
 21 22  1  0
 21 23  2  0
 23 24  1  0
 23  2  1  0
 19 10  1  0
M  END
>  <cnnaffinity>  (1) 
-4.71627

>  <filename>  (1) 
S=C(Sc1cccc(Br)c1)c1cccnc1

$$$$
