
     RDKit          3D

 34 36  0  0  0  0  0  0  0  0999 V2000
    4.9604    1.8126   16.9793 H   0  0  0  0  0  0  0  0  0  0  0  0
    5.4271    1.2936   17.8156 C   0  0  0  0  0  0  0  0  0  0  0  0
    6.5868    0.6688   17.5530 N   0  0  0  0  0  0  0  0  0  0  0  0
    7.1964    0.0439   18.5690 C   0  0  0  0  0  0  0  0  0  0  0  0
    8.1341   -0.4522   18.3281 H   0  0  0  0  0  0  0  0  0  0  0  0
    6.7016    0.0018   19.8914 C   0  0  0  0  0  0  0  0  0  0  0  0
    7.4318   -0.6527   21.0023 C   0  0  0  0  0  0  0  0  0  0  0  0
    8.6937   -1.8226   20.7609 S   0  0  0  0  0  0  0  0  0  0  0  0
    8.8461   -2.1075   22.4475 C   0  0  0  0  0  0  0  0  0  0  0  0
    9.5364   -2.8428   22.8264 H   0  0  0  0  0  0  0  0  0  0  0  0
    8.0261   -1.2948   23.1635 C   0  0  0  0  0  0  0  0  0  0  0  0
    7.9703   -1.3208   24.5667 N   0  0  0  0  0  0  0  0  0  0  0  0
    7.8936   -2.2286   24.9980 H   0  0  0  0  0  0  0  0  0  0  0  0
    7.5933   -0.2895   25.3605 C   0  0  0  0  0  0  0  0  0  0  0  0
    7.8951    1.3148   25.1111 S   0  0  0  0  0  0  0  0  0  0  0  0
    6.9717   -0.6828   26.5093 N   0  0  0  0  0  0  0  0  0  0  0  0
    6.8626    0.1005   27.1307 H   0  0  0  0  0  0  0  0  0  0  0  0
    6.1017   -1.7684   26.7429 C   0  0  0  0  0  0  0  0  0  0  0  0
    5.5754   -2.5992   25.7430 C   0  0  0  0  0  0  0  0  0  0  0  0
    5.6466   -2.3225   24.7007 H   0  0  0  0  0  0  0  0  0  0  0  0
    4.9166   -3.7741   26.1167 C   0  0  0  0  0  0  0  0  0  0  0  0
    4.5230   -4.4199   25.3357 H   0  0  0  0  0  0  0  0  0  0  0  0
    4.7641   -4.1060   27.4654 C   0  0  0  0  0  0  0  0  0  0  0  0
    4.3373   -5.0660   27.7338 H   0  0  0  0  0  0  0  0  0  0  0  0
    5.1549   -3.1959   28.4579 C   0  0  0  0  0  0  0  0  0  0  0  0
    4.9764   -3.4034   29.5127 H   0  0  0  0  0  0  0  0  0  0  0  0
    5.7871   -2.0101   28.0790 C   0  0  0  0  0  0  0  0  0  0  0  0
    6.1158   -1.2670   28.7980 H   0  0  0  0  0  0  0  0  0  0  0  0
    7.2231   -0.4551   22.3396 C   0  0  0  0  0  0  0  0  0  0  0  0
    6.5496    0.2823   22.7631 H   0  0  0  0  0  0  0  0  0  0  0  0
    5.4709    0.6373   20.1288 C   0  0  0  0  0  0  0  0  0  0  0  0
    5.0267    0.6100   21.1239 H   0  0  0  0  0  0  0  0  0  0  0  0
    4.8269    1.2943   19.0783 C   0  0  0  0  0  0  0  0  0  0  0  0
    3.8902    1.8191   19.2282 H   0  0  0  0  0  0  0  0  0  0  0  0
  1  2  1  0
  2  3  2  0
  3  4  1  0
  4  5  1  0
  4  6  2  0
  6  7  1  0
  7  8  1  0
  8  9  1  0
  9 10  1  0
  9 11  2  0
 11 12  1  0
 12 13  1  0
 12 14  1  0
 14 15  2  0
 14 16  1  0
 16 17  1  0
 16 18  1  0
 18 19  2  0
 19 20  1  0
 19 21  1  0
 21 22  1  0
 21 23  2  0
 23 24  1  0
 23 25  1  0
 25 26  1  0
 25 27  2  0
 27 28  1  0
 11 29  1  0
 29 30  1  0
  6 31  1  0
 31 32  1  0
 31 33  2  0
 33 34  1  0
 33  2  1  0
 29  7  2  0
 27 18  1  0
M  END
>  <cnnaffinity>  (1) 
-5.26749

>  <filename>  (1) 
S=C(Nc1ccccc1)Nc1csc(-c2cccnc2)c1

$$$$
