
     RDKit          3D

 25 26  0  0  0  0  0  0  0  0999 V2000
    4.8922    1.7399   17.0297 H   0  0  0  0  0  0  0  0  0  0  0  0
    5.4313    1.2213   17.8215 C   0  0  0  0  0  0  0  0  0  0  0  0
    6.5615    0.5987   17.4587 N   0  0  0  0  0  0  0  0  0  0  0  0
    7.2923    0.0240   18.4179 C   0  0  0  0  0  0  0  0  0  0  0  0
    8.2047   -0.4711   18.0934 H   0  0  0  0  0  0  0  0  0  0  0  0
    6.9478    0.0502   19.7836 C   0  0  0  0  0  0  0  0  0  0  0  0
    7.9297   -0.4393   20.8404 C   0  0  0  0  0  0  0  0  0  0  0  0
    9.1905   -1.4349   20.4086 S   0  0  0  0  0  0  0  0  0  0  0  0
    7.7588    0.0390   22.4163 S   0  0  0  0  0  0  0  0  0  0  0  0
    6.4079   -1.5058   24.0835 O   0  0  0  0  0  0  0  0  0  0  0  0
    6.4571   -2.6947   23.8082 C   0  0  0  0  0  0  0  0  0  0  0  0
    7.6721   -3.5143   24.0128 C   0  0  0  0  0  0  0  0  0  0  0  0
    8.6215   -2.9992   24.1190 H   0  0  0  0  0  0  0  0  0  0  0  0
    7.5576   -4.8803   24.1374 C   0  0  0  0  0  0  0  0  0  0  0  0
    8.4446   -5.4687   24.3673 H   0  0  0  0  0  0  0  0  0  0  0  0
    6.3203   -5.5342   23.9857 C   0  0  0  0  0  0  0  0  0  0  0  0
    6.1646   -6.5794   24.1700 H   0  0  0  0  0  0  0  0  0  0  0  0
    5.2120   -4.7887   23.5594 C   0  0  0  0  0  0  0  0  0  0  0  0
    3.7102   -5.6281   23.2749 Cl  0  0  0  0  0  0  0  0  0  0  0  0
    5.2597   -3.4389   23.3667 C   0  0  0  0  0  0  0  0  0  0  0  0
    4.4102   -2.9361   22.9339 H   0  0  0  0  0  0  0  0  0  0  0  0
    5.7117    0.6190   20.1318 C   0  0  0  0  0  0  0  0  0  0  0  0
    5.3730    0.6116   21.1688 H   0  0  0  0  0  0  0  0  0  0  0  0
    4.9545    1.2281   19.1340 C   0  0  0  0  0  0  0  0  0  0  0  0
    4.0337    1.7374   19.3731 H   0  0  0  0  0  0  0  0  0  0  0  0
  1  2  1  0
  2  3  2  0
  3  4  1  0
  4  5  1  0
  4  6  2  0
  6  7  1  0
  7  8  2  0
  7  9  1  0
  9 10  1  0
 10 11  1  0
 11 12  2  0
 12 13  1  0
 12 14  1  0
 14 15  1  0
 14 16  2  0
 16 17  1  0
 16 18  1  0
 18 19  1  0
 18 20  2  0
 20 21  1  0
  6 22  1  0
 22 23  1  0
 22 24  2  0
 24 25  1  0
 24  2  1  0
 20 11  1  0
M  END
>  <cnnaffinity>  (1) 
-4.58353

>  <filename>  (1) 
S=C(SOc1cccc(Cl)c1)c1cccnc1

$$$$
