
     RDKit          3D

 31 32  0  0  0  0  0  0  0  0999 V2000
    7.9756    0.1068   21.6934 H   0  0  0  0  0  0  0  0  0  0  0  0
    7.3824   -0.5302   21.0439 C   0  0  0  0  0  0  0  0  0  0  0  0
    7.2986   -1.8673   21.3742 C   0  0  0  0  0  0  0  0  0  0  0  0
    8.2571   -2.5059   22.8991 Br  0  0  0  0  0  0  0  0  0  0  0  0
    6.5746   -2.7610   20.5884 N   0  0  0  0  0  0  0  0  0  0  0  0
    6.3830   -2.4912   19.6292 H   0  0  0  0  0  0  0  0  0  0  0  0
    6.3052   -4.0818   20.8765 C   0  0  0  0  0  0  0  0  0  0  0  0
    5.8574   -5.0116   19.5709 S   0  0  0  0  0  0  0  0  0  0  0  0
    6.3859   -4.5682   22.1774 N   0  0  0  0  0  0  0  0  0  0  0  0
    6.8238   -3.9382   22.8386 H   0  0  0  0  0  0  0  0  0  0  0  0
    5.4952   -5.5113   22.7090 C   0  0  0  0  0  0  0  0  0  0  0  0
    5.6048   -5.9506   24.0328 C   0  0  0  0  0  0  0  0  0  0  0  0
    6.4279   -5.5820   24.6399 H   0  0  0  0  0  0  0  0  0  0  0  0
    4.6462   -6.8415   24.5633 C   0  0  0  0  0  0  0  0  0  0  0  0
    4.6950   -7.1453   25.6036 H   0  0  0  0  0  0  0  0  0  0  0  0
    3.5894   -7.3102   23.7684 C   0  0  0  0  0  0  0  0  0  0  0  0
    2.8535   -8.0062   24.1652 H   0  0  0  0  0  0  0  0  0  0  0  0
    3.4772   -6.8670   22.4499 C   0  0  0  0  0  0  0  0  0  0  0  0
    2.6649   -7.2165   21.8199 H   0  0  0  0  0  0  0  0  0  0  0  0
    4.4252   -5.9695   21.9453 C   0  0  0  0  0  0  0  0  0  0  0  0
    4.3492   -5.5906   20.9490 H   0  0  0  0  0  0  0  0  0  0  0  0
    6.6711    0.0977   19.9162 C   0  0  0  0  0  0  0  0  0  0  0  0
    7.1812    0.0466   18.6066 C   0  0  0  0  0  0  0  0  0  0  0  0
    8.1163   -0.4783   18.4392 H   0  0  0  0  0  0  0  0  0  0  0  0
    6.5729    0.6280   17.5536 N   0  0  0  0  0  0  0  0  0  0  0  0
    5.4232    1.2902   17.7793 C   0  0  0  0  0  0  0  0  0  0  0  0
    4.9242    1.7736   16.9448 H   0  0  0  0  0  0  0  0  0  0  0  0
    4.8428    1.3768   19.0503 C   0  0  0  0  0  0  0  0  0  0  0  0
    3.9140    1.9242   19.1725 H   0  0  0  0  0  0  0  0  0  0  0  0
    5.4713    0.7752   20.1419 C   0  0  0  0  0  0  0  0  0  0  0  0
    5.0386    0.8362   21.1404 H   0  0  0  0  0  0  0  0  0  0  0  0
  1  2  1  0
  2  3  2  3
  3  4  1  0
  3  5  1  0
  5  6  1  0
  5  7  1  0
  7  8  2  0
  7  9  1  0
  9 10  1  0
  9 11  1  0
 11 12  2  0
 12 13  1  0
 12 14  1  0
 14 15  1  0
 14 16  2  0
 16 17  1  0
 16 18  1  0
 18 19  1  0
 18 20  2  0
 20 21  1  0
  2 22  1  0
 22 23  2  0
 23 24  1  0
 23 25  1  0
 25 26  2  0
 26 27  1  0
 26 28  1  0
 28 29  1  0
 28 30  2  0
 30 31  1  0
 20 11  1  0
 30 22  1  0
M  END
>  <cnnaffinity>  (1) 
-4.55992

>  <filename>  (1) 
S=C(NC(Br)=Cc1cccnc1)Nc1ccccc1

$$$$
