
     RDKit          3D

 34 36  0  0  0  0  0  0  0  0999 V2000
    4.9304    1.9499   16.3363 H   0  0  0  0  0  0  0  0  0  0  0  0
    5.2100    1.3900   17.2255 C   0  0  0  0  0  0  0  0  0  0  0  0
    6.1847    0.4828   17.0652 N   0  0  0  0  0  0  0  0  0  0  0  0
    6.5725   -0.2089   18.1439 C   0  0  0  0  0  0  0  0  0  0  0  0
    7.3520   -0.9538   17.9990 H   0  0  0  0  0  0  0  0  0  0  0  0
    6.0241   -0.0273   19.4270 C   0  0  0  0  0  0  0  0  0  0  0  0
    6.5268   -0.7773   20.5552 N   0  0  0  0  0  0  0  0  0  0  0  0
    7.4515   -0.3880   21.4928 C   0  0  0  0  0  0  0  0  0  0  0  0
    8.1656    0.7682   21.3448 N   0  0  0  0  0  0  0  0  0  0  0  0
    7.9400    1.3343   20.5476 H   0  0  0  0  0  0  0  0  0  0  0  0
    9.4409    0.9955   21.7868 C   0  0  0  0  0  0  0  0  0  0  0  0
   10.3041    2.1881   21.0505 S   0  0  0  0  0  0  0  0  0  0  0  0
    9.8623    0.2086   22.7866 N   0  0  0  0  0  0  0  0  0  0  0  0
    9.1899   -0.4801   23.1083 H   0  0  0  0  0  0  0  0  0  0  0  0
   11.2182    0.1640   23.2142 C   0  0  0  0  0  0  0  0  0  0  0  0
   12.1960   -0.2038   22.2809 C   0  0  0  0  0  0  0  0  0  0  0  0
   11.8753   -0.4675   21.2755 H   0  0  0  0  0  0  0  0  0  0  0  0
   13.5435   -0.1668   22.6416 C   0  0  0  0  0  0  0  0  0  0  0  0
   14.3133   -0.4470   21.9285 H   0  0  0  0  0  0  0  0  0  0  0  0
   13.8939    0.2129   23.9374 C   0  0  0  0  0  0  0  0  0  0  0  0
   14.9281    0.1953   24.2529 H   0  0  0  0  0  0  0  0  0  0  0  0
   12.9117    0.5163   24.8798 C   0  0  0  0  0  0  0  0  0  0  0  0
   13.2446    0.7031   25.8888 H   0  0  0  0  0  0  0  0  0  0  0  0
   11.5546    0.5069   24.5280 C   0  0  0  0  0  0  0  0  0  0  0  0
   10.7710    0.7502   25.2458 H   0  0  0  0  0  0  0  0  0  0  0  0
    7.5967   -1.2432   22.4636 N   0  0  0  0  0  0  0  0  0  0  0  0
    6.7357   -2.2787   22.1505 C   0  0  0  0  0  0  0  0  0  0  0  0
    6.6458   -3.1445   22.7910 H   0  0  0  0  0  0  0  0  0  0  0  0
    6.0886   -2.0313   20.9792 C   0  0  0  0  0  0  0  0  0  0  0  0
    5.4250   -2.6320   20.3814 H   0  0  0  0  0  0  0  0  0  0  0  0
    5.0079    0.9285   19.5835 C   0  0  0  0  0  0  0  0  0  0  0  0
    4.5555    1.0974   20.5618 H   0  0  0  0  0  0  0  0  0  0  0  0
    4.5903    1.6401   18.4535 C   0  0  0  0  0  0  0  0  0  0  0  0
    3.7969    2.3793   18.5084 H   0  0  0  0  0  0  0  0  0  0  0  0
  1  2  1  0
  2  3  2  0
  3  4  1  0
  4  5  1  0
  4  6  2  0
  6  7  1  0
  7  8  1  0
  8  9  1  0
  9 10  1  0
  9 11  1  0
 11 12  2  0
 11 13  1  0
 13 14  1  0
 13 15  1  0
 15 16  2  0
 16 17  1  0
 16 18  1  0
 18 19  1  0
 18 20  2  0
 20 21  1  0
 20 22  1  0
 22 23  1  0
 22 24  2  0
 24 25  1  0
  8 26  2  0
 26 27  1  0
 27 28  1  0
 27 29  2  0
 29 30  1  0
  6 31  1  0
 31 32  1  0
 31 33  2  0
 33 34  1  0
 33  2  1  0
 29  7  1  0
 24 15  1  0
M  END
>  <cnnaffinity>  (1) 
-5.52604

>  <filename>  (1) 
S=C(Nc1ccccc1)Nc1nccn1-c1cccnc1

$$$$
