
     RDKit          3D

 34 36  0  0  0  0  0  0  0  0999 V2000
    5.0039    1.6818   16.8961 H   0  0  0  0  0  0  0  0  0  0  0  0
    5.4286    1.2456   17.7979 C   0  0  0  0  0  0  0  0  0  0  0  0
    6.6064    0.6186   17.6509 N   0  0  0  0  0  0  0  0  0  0  0  0
    7.1640    0.0905   18.7436 C   0  0  0  0  0  0  0  0  0  0  0  0
    8.1131   -0.4238   18.5861 H   0  0  0  0  0  0  0  0  0  0  0  0
    6.6047    0.1754   20.0326 C   0  0  0  0  0  0  0  0  0  0  0  0
    7.3364   -0.3224   21.2332 C   0  0  0  0  0  0  0  0  0  0  0  0
    7.3021    0.4184   22.6801 S   0  0  0  0  0  0  0  0  0  0  0  0
    8.2708   -1.8184   20.9910 S   0  0  0  0  0  0  0  0  0  0  0  0
    6.9644   -3.0519   21.0163 C   0  0  0  0  0  0  0  0  0  0  0  0
    6.2849   -3.4166   19.8462 C   0  0  0  0  0  0  0  0  0  0  0  0
    6.3511   -2.8015   18.9497 H   0  0  0  0  0  0  0  0  0  0  0  0
    5.6136   -4.6382   19.7936 C   0  0  0  0  0  0  0  0  0  0  0  0
    5.2374   -4.9893   18.8414 H   0  0  0  0  0  0  0  0  0  0  0  0
    5.4140   -5.3723   20.9643 C   0  0  0  0  0  0  0  0  0  0  0  0
    4.9231   -6.3427   20.9349 H   0  0  0  0  0  0  0  0  0  0  0  0
    5.8702   -4.8691   22.2007 C   0  0  0  0  0  0  0  0  0  0  0  0
    5.3927   -5.4483   23.4871 C   0  0  0  0  0  0  0  0  0  0  0  0
    6.2764   -5.8893   24.4858 C   0  0  0  0  0  0  0  0  0  0  0  0
    7.3488   -5.7858   24.3362 H   0  0  0  0  0  0  0  0  0  0  0  0
    5.7855   -6.4825   25.6566 C   0  0  0  0  0  0  0  0  0  0  0  0
    6.4773   -6.8708   26.3992 H   0  0  0  0  0  0  0  0  0  0  0  0
    4.4077   -6.5878   25.8703 C   0  0  0  0  0  0  0  0  0  0  0  0
    4.0299   -7.0538   26.7780 H   0  0  0  0  0  0  0  0  0  0  0  0
    3.5194   -6.0782   24.9175 C   0  0  0  0  0  0  0  0  0  0  0  0
    2.4480   -6.1225   25.0897 H   0  0  0  0  0  0  0  0  0  0  0  0
    4.0086   -5.5110   23.7412 C   0  0  0  0  0  0  0  0  0  0  0  0
    3.3249   -5.0820   23.0109 H   0  0  0  0  0  0  0  0  0  0  0  0
    6.7262   -3.7523   22.2007 C   0  0  0  0  0  0  0  0  0  0  0  0
    7.1638   -3.4040   23.1351 H   0  0  0  0  0  0  0  0  0  0  0  0
    5.3565    0.8089   20.1601 C   0  0  0  0  0  0  0  0  0  0  0  0
    4.8875    0.8888   21.1414 H   0  0  0  0  0  0  0  0  0  0  0  0
    4.7596    1.3473   19.0214 C   0  0  0  0  0  0  0  0  0  0  0  0
    3.8120    1.8720   19.0798 H   0  0  0  0  0  0  0  0  0  0  0  0
  1  2  1  0
  2  3  2  0
  3  4  1  0
  4  5  1  0
  4  6  2  0
  6  7  1  0
  7  8  2  0
  7  9  1  0
  9 10  1  0
 10 11  2  0
 11 12  1  0
 11 13  1  0
 13 14  1  0
 13 15  2  0
 15 16  1  0
 15 17  1  0
 17 18  1  0
 18 19  2  0
 19 20  1  0
 19 21  1  0
 21 22  1  0
 21 23  2  0
 23 24  1  0
 23 25  1  0
 25 26  1  0
 25 27  2  0
 27 28  1  0
 17 29  2  0
 29 30  1  0
  6 31  1  0
 31 32  1  0
 31 33  2  0
 33 34  1  0
 33  2  1  0
 29 10  1  0
 27 18  1  0
M  END
>  <cnnaffinity>  (1) 
-4.42756

>  <filename>  (1) 
S=C(Sc1cccc(-c2ccccc2)c1)c1cccnc1

$$$$
