
     RDKit          3D

 33 35  0  0  0  0  0  0  0  0999 V2000
    9.6684    0.6321   20.6783 S   0  0  0  0  0  0  0  0  0  0  0  0
    8.6650   -0.5125   21.3185 C   0  0  0  0  0  0  0  0  0  0  0  0
    7.3648   -0.6794   20.9670 N   0  0  0  0  0  0  0  0  0  0  0  0
    6.6769   -0.0059   19.9099 C   0  0  0  0  0  0  0  0  0  0  0  0
    5.4575    0.6242   20.1687 C   0  0  0  0  0  0  0  0  0  0  0  0
    4.8196    1.2970   19.1166 C   0  0  0  0  0  0  0  0  0  0  0  0
    5.3968    1.2941   17.8440 C   0  0  0  0  0  0  0  0  0  0  0  0
    6.5573    0.6722   17.5771 N   0  0  0  0  0  0  0  0  0  0  0  0
    7.1768    0.0529   18.5864 C   0  0  0  0  0  0  0  0  0  0  0  0
    8.1196   -0.4349   18.3603 H   0  0  0  0  0  0  0  0  0  0  0  0
    4.9171    1.7870   16.9997 H   0  0  0  0  0  0  0  0  0  0  0  0
    3.8898    1.8304   19.2699 H   0  0  0  0  0  0  0  0  0  0  0  0
    5.0327    0.6143   21.1719 H   0  0  0  0  0  0  0  0  0  0  0  0
    6.8726   -1.3560   21.5323 H   0  0  0  0  0  0  0  0  0  0  0  0
    9.1415   -1.4252   22.2223 N   0  0  0  0  0  0  0  0  0  0  0  0
    8.5528   -1.9270   23.4053 C   0  0  0  0  0  0  0  0  0  0  0  0
    7.5084   -1.1878   24.0402 C   0  0  0  0  0  0  0  0  0  0  0  0
    6.8730   -1.7130   25.1378 C   0  0  0  0  0  0  0  0  0  0  0  0
    7.2489   -2.9797   25.6715 C   0  0  0  0  0  0  0  0  0  0  0  0
    6.5903   -3.5478   26.8029 C   0  0  0  0  0  0  0  0  0  0  0  0
    6.9842   -4.7691   27.3043 C   0  0  0  0  0  0  0  0  0  0  0  0
    8.0606   -5.4823   26.6944 C   0  0  0  0  0  0  0  0  0  0  0  0
    8.7164   -4.9603   25.6011 C   0  0  0  0  0  0  0  0  0  0  0  0
    8.3342   -3.6962   25.0561 C   0  0  0  0  0  0  0  0  0  0  0  0
    8.9904   -3.1264   23.9245 C   0  0  0  0  0  0  0  0  0  0  0  0
    9.8143   -3.6672   23.4565 H   0  0  0  0  0  0  0  0  0  0  0  0
    9.5407   -5.4978   25.1335 H   0  0  0  0  0  0  0  0  0  0  0  0
    8.3595   -6.4451   27.1060 H   0  0  0  0  0  0  0  0  0  0  0  0
    6.4778   -5.1992   28.1677 H   0  0  0  0  0  0  0  0  0  0  0  0
    5.7702   -2.9910   27.2587 H   0  0  0  0  0  0  0  0  0  0  0  0
    6.0567   -1.1680   25.6021 H   0  0  0  0  0  0  0  0  0  0  0  0
    7.2509   -0.2114   23.6396 H   0  0  0  0  0  0  0  0  0  0  0  0
   10.1459   -1.4511   22.1708 H   0  0  0  0  0  0  0  0  0  0  0  0
  1  2  2  0
  2  3  1  0
  3  4  1  0
  4  5  2  0
  5  6  1  0
  6  7  2  0
  7  8  1  0
  8  9  2  0
  9 10  1  0
  7 11  1  0
  6 12  1  0
  5 13  1  0
  3 14  1  0
  2 15  1  0
 15 16  1  0
 16 17  2  0
 17 18  1  0
 18 19  2  0
 19 20  1  0
 20 21  2  0
 21 22  1  0
 22 23  2  0
 23 24  1  0
 24 25  2  0
 25 26  1  0
 23 27  1  0
 22 28  1  0
 21 29  1  0
 20 30  1  0
 18 31  1  0
 17 32  1  0
 15 33  1  0
  9  4  1  0
 25 16  1  0
 24 19  1  0
M  END
>  <cnnaffinity>  (1) 
-5.27496

>  <filename>  (1) 
S=C(Nc1cccnc1)Nc1ccc2ccccc2c1

$$$$
