
     RDKit          3D

 28 29  0  0  0  0  0  0  0  0999 V2000
    5.1424    1.7872   16.9666 H   0  0  0  0  0  0  0  0  0  0  0  0
    5.4935    1.2914   17.8679 C   0  0  0  0  0  0  0  0  0  0  0  0
    6.6415    0.6116   17.7442 N   0  0  0  0  0  0  0  0  0  0  0  0
    7.1220    0.0030   18.8324 C   0  0  0  0  0  0  0  0  0  0  0  0
    8.0554   -0.5450   18.7033 H   0  0  0  0  0  0  0  0  0  0  0  0
    6.5022    0.0570   20.0859 C   0  0  0  0  0  0  0  0  0  0  0  0
    7.1104   -0.7421   21.1840 C   0  0  0  0  0  0  0  0  0  0  0  0
    7.4452   -2.3501   20.9927 S   0  0  0  0  0  0  0  0  0  0  0  0
    7.3395   -0.0395   22.3105 N   0  0  0  0  0  0  0  0  0  0  0  0
    7.3752    0.9662   22.1789 H   0  0  0  0  0  0  0  0  0  0  0  0
    8.1007   -0.5485   23.4564 C   0  0  0  0  0  0  0  0  0  0  0  0
    7.8060   -1.5912   23.6048 H   0  0  0  0  0  0  0  0  0  0  0  0
    7.8069    0.0184   24.3455 H   0  0  0  0  0  0  0  0  0  0  0  0
    9.5972   -0.4431   23.2205 C   0  0  0  0  0  0  0  0  0  0  0  0
   10.3270   -1.5441   22.7307 C   0  0  0  0  0  0  0  0  0  0  0  0
    9.8260   -2.5004   22.6255 H   0  0  0  0  0  0  0  0  0  0  0  0
   11.6627   -1.4237   22.3416 C   0  0  0  0  0  0  0  0  0  0  0  0
   12.1898   -2.2935   21.9517 H   0  0  0  0  0  0  0  0  0  0  0  0
   12.3195   -0.2000   22.4968 C   0  0  0  0  0  0  0  0  0  0  0  0
   13.3553   -0.0897   22.1828 H   0  0  0  0  0  0  0  0  0  0  0  0
   11.6305    0.8986   23.0200 C   0  0  0  0  0  0  0  0  0  0  0  0
   12.1186    1.8575   23.1599 H   0  0  0  0  0  0  0  0  0  0  0  0
   10.2751    0.7826   23.3307 C   0  0  0  0  0  0  0  0  0  0  0  0
    9.4033    2.2284   23.7998 Cl  0  0  0  0  0  0  0  0  0  0  0  0
    5.3043    0.7785   20.2084 C   0  0  0  0  0  0  0  0  0  0  0  0
    4.7970    0.8497   21.1725 H   0  0  0  0  0  0  0  0  0  0  0  0
    4.7767    1.3899   19.0671 C   0  0  0  0  0  0  0  0  0  0  0  0
    3.8583    1.9674   19.0925 H   0  0  0  0  0  0  0  0  0  0  0  0
  1  2  1  0
  2  3  2  0
  3  4  1  0
  4  5  1  0
  4  6  2  0
  6  7  1  0
  7  8  2  0
  7  9  1  0
  9 10  1  0
  9 11  1  0
 11 12  1  0
 11 13  1  0
 11 14  1  0
 14 15  2  0
 15 16  1  0
 15 17  1  0
 17 18  1  0
 17 19  2  0
 19 20  1  0
 19 21  1  0
 21 22  1  0
 21 23  2  0
 23 24  1  0
  6 25  1  0
 25 26  1  0
 25 27  2  0
 27 28  1  0
 27  2  1  0
 23 14  1  0
M  END
>  <cnnaffinity>  (1) 
-5.1584

>  <filename>  (1) 
S=C(NCc1ccccc1Cl)c1cccnc1

$$$$
