
     RDKit          3D

 28 30  0  0  0  0  0  0  0  0999 V2000
    4.8424    1.9384   17.0076 H   0  0  0  0  0  0  0  0  0  0  0  0
    5.3313    1.3706   17.7955 C   0  0  0  0  0  0  0  0  0  0  0  0
    6.4638    0.7362   17.4468 N   0  0  0  0  0  0  0  0  0  0  0  0
    7.0996    0.0321   18.3912 C   0  0  0  0  0  0  0  0  0  0  0  0
    8.0139   -0.4792   18.0943 H   0  0  0  0  0  0  0  0  0  0  0  0
    6.6247   -0.0979   19.7164 C   0  0  0  0  0  0  0  0  0  0  0  0
    7.2941   -0.8682   20.7146 N   0  0  0  0  0  0  0  0  0  0  0  0
    6.7797   -1.6274   21.1519 H   0  0  0  0  0  0  0  0  0  0  0  0
    8.5530   -0.6720   21.1819 C   0  0  0  0  0  0  0  0  0  0  0  0
    9.5035    0.6227   20.8057 S   0  0  0  0  0  0  0  0  0  0  0  0
    9.0521   -1.7408   22.0851 C   0  0  0  0  0  0  0  0  0  0  0  0
    8.1287   -2.6471   22.5879 O   0  0  0  0  0  0  0  0  0  0  0  0
    8.8154   -3.4763   23.4214 C   0  0  0  0  0  0  0  0  0  0  0  0
    8.2638   -4.4793   24.2212 C   0  0  0  0  0  0  0  0  0  0  0  0
    7.2014   -4.6894   24.1980 H   0  0  0  0  0  0  0  0  0  0  0  0
    9.1465   -5.1915   25.0365 C   0  0  0  0  0  0  0  0  0  0  0  0
    8.7673   -5.9388   25.7320 H   0  0  0  0  0  0  0  0  0  0  0  0
   10.5327   -4.9352   25.0157 C   0  0  0  0  0  0  0  0  0  0  0  0
   11.1735   -5.5029   25.6878 H   0  0  0  0  0  0  0  0  0  0  0  0
   11.0711   -3.9557   24.1827 C   0  0  0  0  0  0  0  0  0  0  0  0
   12.1469   -3.8502   24.0843 H   0  0  0  0  0  0  0  0  0  0  0  0
   10.1875   -3.1713   23.4022 C   0  0  0  0  0  0  0  0  0  0  0  0
   10.3044   -2.0227   22.5341 C   0  0  0  0  0  0  0  0  0  0  0  0
   11.2044   -1.4687   22.3013 H   0  0  0  0  0  0  0  0  0  0  0  0
    5.4408    0.5592   20.0608 C   0  0  0  0  0  0  0  0  0  0  0  0
    5.0676    0.4732   21.0825 H   0  0  0  0  0  0  0  0  0  0  0  0
    4.7840    1.3178   19.0828 C   0  0  0  0  0  0  0  0  0  0  0  0
    3.8689    1.8587   19.3087 H   0  0  0  0  0  0  0  0  0  0  0  0
  1  2  1  0
  2  3  2  0
  3  4  1  0
  4  5  1  0
  4  6  2  0
  6  7  1  0
  7  8  1  0
  7  9  1  0
  9 10  2  0
  9 11  1  0
 11 12  1  0
 12 13  1  0
 13 14  2  0
 14 15  1  0
 14 16  1  0
 16 17  1  0
 16 18  2  0
 18 19  1  0
 18 20  1  0
 20 21  1  0
 20 22  2  0
 22 23  1  0
 23 24  1  0
  6 25  1  0
 25 26  1  0
 25 27  2  0
 27 28  1  0
 27  2  1  0
 23 11  2  0
 22 13  1  0
M  END
>  <cnnaffinity>  (1) 
-5.18106

>  <filename>  (1) 
S=C(Nc1cccnc1)c1cc2ccccc2o1

$$$$
