
     RDKit          3D

 36 38  0  0  0  0  0  0  0  0999 V2000
    7.7717   -1.5768   23.3255 S   0  0  0  0  0  0  0  0  0  0  0  0
    7.4281   -0.2926   22.3373 C   0  0  0  0  0  0  0  0  0  0  0  0
    7.5134   -0.4852   20.9743 N   0  0  0  0  0  0  0  0  0  0  0  0
    6.7229    0.0969   19.9229 C   0  0  0  0  0  0  0  0  0  0  0  0
    5.4713    0.6947   20.1550 C   0  0  0  0  0  0  0  0  0  0  0  0
    4.8101    1.3078   19.0820 C   0  0  0  0  0  0  0  0  0  0  0  0
    5.3993    1.2841   17.8168 C   0  0  0  0  0  0  0  0  0  0  0  0
    6.5575    0.6556   17.5613 N   0  0  0  0  0  0  0  0  0  0  0  0
    7.1900    0.0747   18.5859 C   0  0  0  0  0  0  0  0  0  0  0  0
    8.1281   -0.4335   18.3591 H   0  0  0  0  0  0  0  0  0  0  0  0
    4.9327    1.7925   16.9779 H   0  0  0  0  0  0  0  0  0  0  0  0
    3.8657    1.8224   19.2235 H   0  0  0  0  0  0  0  0  0  0  0  0
    5.0168    0.6685   21.1420 H   0  0  0  0  0  0  0  0  0  0  0  0
    7.8041   -1.4532   20.8688 H   0  0  0  0  0  0  0  0  0  0  0  0
    7.1126    0.9764   22.7012 N   0  0  0  0  0  0  0  0  0  0  0  0
    6.5623    1.4334   23.9332 C   0  0  0  0  0  0  0  0  0  0  0  0
    6.8559    2.7036   24.4673 C   0  0  0  0  0  0  0  0  0  0  0  0
    6.3282    3.1609   25.6133 N   0  0  0  0  0  0  0  0  0  0  0  0
    5.4491    2.3796   26.2587 C   0  0  0  0  0  0  0  0  0  0  0  0
    5.0634    1.1043   25.8065 C   0  0  0  0  0  0  0  0  0  0  0  0
    4.0526    0.2740   26.5182 C   0  0  0  0  0  0  0  0  0  0  0  0
    2.9203    0.8529   27.1197 C   0  0  0  0  0  0  0  0  0  0  0  0
    1.9856    0.0574   27.7929 C   0  0  0  0  0  0  0  0  0  0  0  0
    2.1734   -1.3272   27.8752 C   0  0  0  0  0  0  0  0  0  0  0  0
    3.2930   -1.9172   27.2776 C   0  0  0  0  0  0  0  0  0  0  0  0
    4.2185   -1.1203   26.5991 C   0  0  0  0  0  0  0  0  0  0  0  0
    5.0930   -1.5717   26.1336 H   0  0  0  0  0  0  0  0  0  0  0  0
    3.4454   -2.9930   27.3353 H   0  0  0  0  0  0  0  0  0  0  0  0
    1.4519   -1.9467   28.4026 H   0  0  0  0  0  0  0  0  0  0  0  0
    1.1165    0.5164   28.2589 H   0  0  0  0  0  0  0  0  0  0  0  0
    2.7621    1.9257   27.0434 H   0  0  0  0  0  0  0  0  0  0  0  0
    5.6912    0.6190   24.6490 C   0  0  0  0  0  0  0  0  0  0  0  0
    5.5491   -0.3990   24.3049 H   0  0  0  0  0  0  0  0  0  0  0  0
    5.0590    2.7748   27.1952 H   0  0  0  0  0  0  0  0  0  0  0  0
    7.5681    3.3484   23.9599 H   0  0  0  0  0  0  0  0  0  0  0  0
    7.2250    1.6327   21.9405 H   0  0  0  0  0  0  0  0  0  0  0  0
  1  2  2  0
  2  3  1  0
  3  4  1  0
  4  5  2  0
  5  6  1  0
  6  7  2  0
  7  8  1  0
  8  9  2  0
  9 10  1  0
  7 11  1  0
  6 12  1  0
  5 13  1  0
  3 14  1  0
  2 15  1  0
 15 16  1  0
 16 17  2  0
 17 18  1  0
 18 19  2  0
 19 20  1  0
 20 21  1  0
 21 22  2  0
 22 23  1  0
 23 24  2  0
 24 25  1  0
 25 26  2  0
 26 27  1  0
 25 28  1  0
 24 29  1  0
 23 30  1  0
 22 31  1  0
 20 32  2  0
 32 33  1  0
 19 34  1  0
 17 35  1  0
 15 36  1  0
  9  4  1  0
 32 16  1  0
 26 21  1  0
M  END
>  <cnnaffinity>  (1) 
-5.30866

>  <filename>  (1) 
S=C(Nc1cccnc1)Nc1cncc(-c2ccccc2)c1

$$$$
