
     RDKit          3D

 28 29  0  0  0  0  0  0  0  0999 V2000
    4.9384    2.3611   16.4941 H   0  0  0  0  0  0  0  0  0  0  0  0
    5.3238    1.8063   17.3479 C   0  0  0  0  0  0  0  0  0  0  0  0
    6.4471    1.1049   17.1384 N   0  0  0  0  0  0  0  0  0  0  0  0
    6.9330    0.4019   18.1647 C   0  0  0  0  0  0  0  0  0  0  0  0
    7.8327   -0.1750   17.9524 H   0  0  0  0  0  0  0  0  0  0  0  0
    6.3185    0.3399   19.4237 C   0  0  0  0  0  0  0  0  0  0  0  0
    6.8328   -0.6272   20.4266 C   0  0  0  0  0  0  0  0  0  0  0  0
    5.8545   -1.7945   21.0466 S   0  0  0  0  0  0  0  0  0  0  0  0
    8.1648   -0.5059   20.6657 N   0  0  0  0  0  0  0  0  0  0  0  0
    8.6017    0.3864   20.4732 H   0  0  0  0  0  0  0  0  0  0  0  0
    8.7313   -1.1127   21.7673 O   0  0  0  0  0  0  0  0  0  0  0  0
    9.2552   -2.4193   21.4432 C   0  0  0  0  0  0  0  0  0  0  0  0
    8.5513   -2.9257   20.7821 H   0  0  0  0  0  0  0  0  0  0  0  0
   10.2215   -2.3061   20.9369 H   0  0  0  0  0  0  0  0  0  0  0  0
    9.3887   -3.2055   22.7201 C   0  0  0  0  0  0  0  0  0  0  0  0
   10.6247   -3.4171   23.3344 C   0  0  0  0  0  0  0  0  0  0  0  0
   11.5477   -3.0080   22.9360 H   0  0  0  0  0  0  0  0  0  0  0  0
   10.6950   -4.2330   24.4641 C   0  0  0  0  0  0  0  0  0  0  0  0
   11.6602   -4.4604   24.9083 H   0  0  0  0  0  0  0  0  0  0  0  0
    9.6217   -4.7761   25.0505 N   0  0  0  0  0  0  0  0  0  0  0  0
    8.4301   -4.5210   24.4962 C   0  0  0  0  0  0  0  0  0  0  0  0
    7.5679   -4.9705   24.9820 H   0  0  0  0  0  0  0  0  0  0  0  0
    8.2576   -3.7770   23.3265 C   0  0  0  0  0  0  0  0  0  0  0  0
    7.2641   -3.6434   22.9036 H   0  0  0  0  0  0  0  0  0  0  0  0
    5.1345    1.0648   19.6301 C   0  0  0  0  0  0  0  0  0  0  0  0
    4.6080    1.0114   20.5875 H   0  0  0  0  0  0  0  0  0  0  0  0
    4.6420    1.8278   18.5710 C   0  0  0  0  0  0  0  0  0  0  0  0
    3.7438    2.4249   18.6734 H   0  0  0  0  0  0  0  0  0  0  0  0
  1  2  1  0
  2  3  2  0
  3  4  1  0
  4  5  1  0
  4  6  2  0
  6  7  1  0
  7  8  2  0
  7  9  1  0
  9 10  1  0
  9 11  1  0
 11 12  1  0
 12 13  1  0
 12 14  1  0
 12 15  1  0
 15 16  2  0
 16 17  1  0
 16 18  1  0
 18 19  1  0
 18 20  2  0
 20 21  1  0
 21 22  1  0
 21 23  2  0
 23 24  1  0
  6 25  1  0
 25 26  1  0
 25 27  2  0
 27 28  1  0
 27  2  1  0
 23 15  1  0
M  END
>  <cnnaffinity>  (1) 
-4.63367

>  <filename>  (1) 
S=C(NOCc1ccncc1)c1cccnc1

$$$$
