
     RDKit          3D

 26 27  0  0  0  0  0  0  0  0999 V2000
    5.0291    1.7739   16.9842 H   0  0  0  0  0  0  0  0  0  0  0  0
    5.4787    1.2897   17.8474 C   0  0  0  0  0  0  0  0  0  0  0  0
    6.6503    0.6773   17.6295 N   0  0  0  0  0  0  0  0  0  0  0  0
    7.2452    0.1072   18.6753 C   0  0  0  0  0  0  0  0  0  0  0  0
    8.1877   -0.4019   18.4873 H   0  0  0  0  0  0  0  0  0  0  0  0
    6.7386    0.1178   19.9823 C   0  0  0  0  0  0  0  0  0  0  0  0
    7.5577   -0.5950   21.0069 C   0  0  0  0  0  0  0  0  0  0  0  0
    8.8444   -1.5721   20.6851 S   0  0  0  0  0  0  0  0  0  0  0  0
    7.0721   -0.3902   22.2628 N   0  0  0  0  0  0  0  0  0  0  0  0
    6.8090    0.5501   22.5258 H   0  0  0  0  0  0  0  0  0  0  0  0
    7.6114   -1.0826   23.3249 O   0  0  0  0  0  0  0  0  0  0  0  0
    7.0577   -2.3453   23.5510 C   0  0  0  0  0  0  0  0  0  0  0  0
    7.6864   -3.0532   24.5791 C   0  0  0  0  0  0  0  0  0  0  0  0
    8.5394   -2.5937   25.0671 H   0  0  0  0  0  0  0  0  0  0  0  0
    7.1826   -4.2923   24.9678 C   0  0  0  0  0  0  0  0  0  0  0  0
    7.6482   -4.8292   25.7942 H   0  0  0  0  0  0  0  0  0  0  0  0
    6.0587   -4.8376   24.3306 C   0  0  0  0  0  0  0  0  0  0  0  0
    5.6235   -5.7702   24.6688 H   0  0  0  0  0  0  0  0  0  0  0  0
    5.4682   -4.1281   23.2821 C   0  0  0  0  0  0  0  0  0  0  0  0
    4.0581   -4.7625   22.4817 Cl  0  0  0  0  0  0  0  0  0  0  0  0
    5.9608   -2.8882   22.8699 C   0  0  0  0  0  0  0  0  0  0  0  0
    5.4780   -2.3585   22.0590 H   0  0  0  0  0  0  0  0  0  0  0  0
    5.4918    0.7487   20.1940 C   0  0  0  0  0  0  0  0  0  0  0  0
    5.0224    0.7785   21.1809 H   0  0  0  0  0  0  0  0  0  0  0  0
    4.8550    1.3373   19.1000 C   0  0  0  0  0  0  0  0  0  0  0  0
    3.9113    1.8596   19.2085 H   0  0  0  0  0  0  0  0  0  0  0  0
  1  2  1  0
  2  3  2  0
  3  4  1  0
  4  5  1  0
  4  6  2  0
  6  7  1  0
  7  8  2  0
  7  9  1  0
  9 10  1  0
  9 11  1  0
 11 12  1  0
 12 13  2  0
 13 14  1  0
 13 15  1  0
 15 16  1  0
 15 17  2  0
 17 18  1  0
 17 19  1  0
 19 20  1  0
 19 21  2  0
 21 22  1  0
  6 23  1  0
 23 24  1  0
 23 25  2  0
 25 26  1  0
 25  2  1  0
 21 12  1  0
M  END
>  <cnnaffinity>  (1) 
-4.80384

>  <filename>  (1) 
S=C(NOc1cccc(Cl)c1)c1cccnc1

$$$$
