
     RDKit          3D

 29 31  0  0  0  0  0  0  0  0999 V2000
    5.0753    1.7757   16.9836 H   0  0  0  0  0  0  0  0  0  0  0  0
    5.4823    1.2533   17.8468 C   0  0  0  0  0  0  0  0  0  0  0  0
    6.6205    0.5700   17.6385 N   0  0  0  0  0  0  0  0  0  0  0  0
    7.1584   -0.0595   18.6843 C   0  0  0  0  0  0  0  0  0  0  0  0
    8.0745   -0.6208   18.4947 H   0  0  0  0  0  0  0  0  0  0  0  0
    6.6163   -0.0291   19.9823 C   0  0  0  0  0  0  0  0  0  0  0  0
    7.3087   -0.7114   21.0980 C   0  0  0  0  0  0  0  0  0  0  0  0
    8.0542   -2.1468   20.9150 S   0  0  0  0  0  0  0  0  0  0  0  0
    7.2624   -0.0321   22.4604 C   0  0  0  0  0  0  0  0  0  0  0  0
    6.2229   -0.0706   22.8146 H   0  0  0  0  0  0  0  0  0  0  0  0
    7.8370   -0.6561   23.1545 H   0  0  0  0  0  0  0  0  0  0  0  0
    7.7575    1.4013   22.4945 C   0  0  0  0  0  0  0  0  0  0  0  0
    6.9958    2.4684   22.8225 C   0  0  0  0  0  0  0  0  0  0  0  0
    5.9133    2.4896   22.9031 H   0  0  0  0  0  0  0  0  0  0  0  0
    7.8974    3.9366   23.0671 S   0  0  0  0  0  0  0  0  0  0  0  0
    9.3746    3.1341   22.6166 C   0  0  0  0  0  0  0  0  0  0  0  0
   10.6596    3.6990   22.5424 C   0  0  0  0  0  0  0  0  0  0  0  0
   10.8056    4.7580   22.7512 H   0  0  0  0  0  0  0  0  0  0  0  0
   11.7163    2.8903   22.1486 C   0  0  0  0  0  0  0  0  0  0  0  0
   12.7197    3.3013   22.1176 H   0  0  0  0  0  0  0  0  0  0  0  0
   11.5093    1.5376   21.8058 C   0  0  0  0  0  0  0  0  0  0  0  0
   12.3544    0.9292   21.4989 H   0  0  0  0  0  0  0  0  0  0  0  0
   10.2402    0.9786   21.8695 C   0  0  0  0  0  0  0  0  0  0  0  0
   10.0591   -0.0461   21.5475 H   0  0  0  0  0  0  0  0  0  0  0  0
    9.1544    1.7725   22.3139 C   0  0  0  0  0  0  0  0  0  0  0  0
    5.4065    0.6611   20.1734 C   0  0  0  0  0  0  0  0  0  0  0  0
    4.9200    0.6714   21.1512 H   0  0  0  0  0  0  0  0  0  0  0  0
    4.8301    1.3069   19.0824 C   0  0  0  0  0  0  0  0  0  0  0  0
    3.9008    1.8581   19.1768 H   0  0  0  0  0  0  0  0  0  0  0  0
  1  2  1  0
  2  3  2  0
  3  4  1  0
  4  5  1  0
  4  6  2  0
  6  7  1  0
  7  8  2  0
  7  9  1  0
  9 10  1  0
  9 11  1  0
  9 12  1  0
 12 13  2  0
 13 14  1  0
 13 15  1  0
 15 16  1  0
 16 17  2  0
 17 18  1  0
 17 19  1  0
 19 20  1  0
 19 21  2  0
 21 22  1  0
 21 23  1  0
 23 24  1  0
 23 25  2  0
  6 26  1  0
 26 27  1  0
 26 28  2  0
 28 29  1  0
 28  2  1  0
 25 12  1  0
 25 16  1  0
M  END
>  <cnnaffinity>  (1) 
-5.2117

>  <filename>  (1) 
S=C(Cc1csc2ccccc12)c1cccnc1

$$$$
