
     RDKit          3D

 40 42  0  0  0  0  0  0  0  0999 V2000
    7.3851    0.9571   22.3919 H   0  0  0  0  0  0  0  0  0  0  0  0
    7.5628   -0.0947   22.2117 C   0  0  0  0  0  0  0  0  0  0  0  0
    7.2454   -0.6784   21.0413 C   0  0  0  0  0  0  0  0  0  0  0  0
    6.6134    0.0160   19.9147 C   0  0  0  0  0  0  0  0  0  0  0  0
    7.1798   -0.0087   18.6282 C   0  0  0  0  0  0  0  0  0  0  0  0
    8.1274   -0.5191   18.4527 H   0  0  0  0  0  0  0  0  0  0  0  0
    6.6391    0.5979   17.5646 N   0  0  0  0  0  0  0  0  0  0  0  0
    5.4856    1.2596   17.7516 C   0  0  0  0  0  0  0  0  0  0  0  0
    5.0531    1.7361   16.8734 H   0  0  0  0  0  0  0  0  0  0  0  0
    4.8352    1.3416   18.9877 C   0  0  0  0  0  0  0  0  0  0  0  0
    3.9009    1.8821   19.0765 H   0  0  0  0  0  0  0  0  0  0  0  0
    5.4193    0.7297   20.0952 C   0  0  0  0  0  0  0  0  0  0  0  0
    4.9663    0.7805   21.0873 H   0  0  0  0  0  0  0  0  0  0  0  0
    7.5360   -2.0257   20.8561 N   0  0  0  0  0  0  0  0  0  0  0  0
    7.1493   -2.5532   20.0901 H   0  0  0  0  0  0  0  0  0  0  0  0
    7.9969   -2.8360   21.8430 C   0  0  0  0  0  0  0  0  0  0  0  0
    8.0784   -4.4751   21.6099 S   0  0  0  0  0  0  0  0  0  0  0  0
    8.3671   -2.2488   22.9946 N   0  0  0  0  0  0  0  0  0  0  0  0
    8.4745   -2.9272   23.7301 H   0  0  0  0  0  0  0  0  0  0  0  0
    8.2418   -0.8208   23.3205 C   0  0  1  0  0  0  0  0  0  0  0  0
    7.6299   -0.7274   24.2363 H   0  0  0  0  0  0  0  0  0  0  0  0
    9.6404   -0.2144   23.6922 C   0  0  0  0  0  0  0  0  0  0  0  0
   10.0550   -0.8093   24.5163 H   0  0  0  0  0  0  0  0  0  0  0  0
   10.3206   -0.3654   22.8384 H   0  0  0  0  0  0  0  0  0  0  0  0
    9.5360    1.2112   24.0517 N   0  0  0  0  0  0  0  0  0  0  0  0
    9.6952    1.3439   25.0457 H   0  0  0  0  0  0  0  0  0  0  0  0
   10.3873    2.1526   23.3126 C   0  0  0  0  0  0  0  0  0  0  0  0
   10.0610    3.1453   23.6479 H   0  0  0  0  0  0  0  0  0  0  0  0
   11.9132    2.0060   23.5691 C   0  0  0  0  0  0  0  0  0  0  0  0
   12.1100    1.0052   23.9734 H   0  0  0  0  0  0  0  0  0  0  0  0
   12.2527    2.7226   24.3238 H   0  0  0  0  0  0  0  0  0  0  0  0
   12.6170    2.1814   22.2144 C   0  0  0  0  0  0  0  0  0  0  0  0
   13.5402    1.5910   22.1804 H   0  0  0  0  0  0  0  0  0  0  0  0
   12.8843    3.2343   22.0517 H   0  0  0  0  0  0  0  0  0  0  0  0
   11.5834    1.7185   21.1760 C   0  0  0  0  0  0  0  0  0  0  0  0
   11.7354    2.1828   20.1959 H   0  0  0  0  0  0  0  0  0  0  0  0
   11.6441    0.6299   21.0429 H   0  0  0  0  0  0  0  0  0  0  0  0
   10.2072    2.0644   21.7754 C   0  0  0  0  0  0  0  0  0  0  0  0
    9.4464    1.3296   21.4848 H   0  0  0  0  0  0  0  0  0  0  0  0
    9.8468    3.0300   21.4171 H   0  0  0  0  0  0  0  0  0  0  0  0
  1  2  1  0
  2  3  2  0
  3  4  1  0
  4  5  2  0
  5  6  1  0
  5  7  1  0
  7  8  2  0
  8  9  1  0
  8 10  1  0
 10 11  1  0
 10 12  2  0
 12 13  1  0
  3 14  1  0
 14 15  1  0
 14 16  1  0
 16 17  2  0
 16 18  1  0
 18 19  1  0
 18 20  1  0
 20 21  1  1
 20 22  1  0
 22 23  1  0
 22 24  1  0
 22 25  1  0
 25 26  1  0
 25 27  1  0
 27 28  1  0
 27 29  1  0
 29 30  1  0
 29 31  1  0
 29 32  1  0
 32 33  1  0
 32 34  1  0
 32 35  1  0
 35 36  1  0
 35 37  1  0
 35 38  1  0
 38 39  1  0
 38 40  1  0
 20  2  1  0
 38 27  1  0
 12  4  1  0
M  END
>  <cnnaffinity>  (1) 
-4.91819

>  <filename>  (1) 
S=C1NC(c2cccnc2)=C[C@H](CNC2CCCC2)N1

$$$$
