
     RDKit          3D

 35 37  0  0  0  0  0  0  0  0999 V2000
    8.6060    1.0877   21.6885 H   0  0  0  0  0  0  0  0  0  0  0  0
    7.9403    0.2930   21.9937 C   0  0  0  0  0  0  0  0  0  0  0  0
    7.3626    0.2583   23.2094 C   0  0  0  0  0  0  0  0  0  0  0  0
    7.3924    1.3702   24.2257 C   0  0  0  0  0  0  0  0  0  0  0  0
    8.4214    1.7367   24.2860 H   0  0  0  0  0  0  0  0  0  0  0  0
    7.1519    0.9669   25.2192 H   0  0  0  0  0  0  0  0  0  0  0  0
    6.4806    2.5386   23.8729 C   0  0  0  0  0  0  0  0  0  0  0  0
    5.2176    2.6685   24.4653 C   0  0  0  0  0  0  0  0  0  0  0  0
    4.9030    1.9387   25.2096 H   0  0  0  0  0  0  0  0  0  0  0  0
    4.3679    3.7291   24.1334 C   0  0  0  0  0  0  0  0  0  0  0  0
    3.4009    3.8434   24.6135 H   0  0  0  0  0  0  0  0  0  0  0  0
    4.7888    4.6658   23.1870 C   0  0  0  0  0  0  0  0  0  0  0  0
    3.7438    5.9983   22.7797 Cl  0  0  0  0  0  0  0  0  0  0  0  0
    6.0453    4.5646   22.5822 C   0  0  0  0  0  0  0  0  0  0  0  0
    6.3557    5.3144   21.8595 H   0  0  0  0  0  0  0  0  0  0  0  0
    6.8839    3.5032   22.9339 C   0  0  0  0  0  0  0  0  0  0  0  0
    7.8756    3.4412   22.4841 H   0  0  0  0  0  0  0  0  0  0  0  0
    6.6286   -0.8788   23.5399 N   0  0  0  0  0  0  0  0  0  0  0  0
    6.2085   -1.0306   24.4450 H   0  0  0  0  0  0  0  0  0  0  0  0
    6.4493   -1.9579   22.7348 C   0  0  0  0  0  0  0  0  0  0  0  0
    5.6388   -3.3103   23.2594 S   0  0  0  0  0  0  0  0  0  0  0  0
    6.9454   -1.8614   21.4907 N   0  0  0  0  0  0  0  0  0  0  0  0
    6.5819   -2.5736   20.8823 H   0  0  0  0  0  0  0  0  0  0  0  0
    7.5677   -0.6719   20.9211 C   0  0  1  0  0  0  0  0  0  0  0  0
    8.4854   -1.0121   20.4141 H   0  0  0  0  0  0  0  0  0  0  0  0
    6.6860   -0.0342   19.8390 C   0  0  0  0  0  0  0  0  0  0  0  0
    7.1636    0.0118   18.5256 C   0  0  0  0  0  0  0  0  0  0  0  0
    8.1036   -0.4827   18.2827 H   0  0  0  0  0  0  0  0  0  0  0  0
    6.5601    0.6494   17.5146 N   0  0  0  0  0  0  0  0  0  0  0  0
    5.4120    1.2797   17.7989 C   0  0  0  0  0  0  0  0  0  0  0  0
    4.9459    1.8159   16.9726 H   0  0  0  0  0  0  0  0  0  0  0  0
    4.8179    1.2660   19.0678 C   0  0  0  0  0  0  0  0  0  0  0  0
    3.8880    1.8005   19.2255 H   0  0  0  0  0  0  0  0  0  0  0  0
    5.4616    0.5932   20.1111 C   0  0  0  0  0  0  0  0  0  0  0  0
    5.0365    0.5828   21.1188 H   0  0  0  0  0  0  0  0  0  0  0  0
  1  2  1  0
  2  3  2  0
  3  4  1  0
  4  5  1  0
  4  6  1  0
  4  7  1  0
  7  8  2  0
  8  9  1  0
  8 10  1  0
 10 11  1  0
 10 12  2  0
 12 13  1  0
 12 14  1  0
 14 15  1  0
 14 16  2  0
 16 17  1  0
  3 18  1  0
 18 19  1  0
 18 20  1  0
 20 21  2  0
 20 22  1  0
 22 23  1  0
 22 24  1  0
 24 25  1  6
 24 26  1  0
 26 27  2  0
 27 28  1  0
 27 29  1  0
 29 30  2  0
 30 31  1  0
 30 32  1  0
 32 33  1  0
 32 34  2  0
 34 35  1  0
 24  2  1  0
 34 26  1  0
 16  7  1  0
M  END
>  <cnnaffinity>  (1) 
-4.89308

>  <filename>  (1) 
S=C1NC(Cc2ccc(Cl)cc2)=C[C@H](c2cccnc2)N1

$$$$
