
     RDKit          3D

 30 32  0  0  0  0  0  0  0  0999 V2000
    5.0177    1.9237   16.9594 H   0  0  0  0  0  0  0  0  0  0  0  0
    5.4405    1.3237   17.7653 C   0  0  0  0  0  0  0  0  0  0  0  0
    6.5859    0.6772   17.4874 N   0  0  0  0  0  0  0  0  0  0  0  0
    7.1586   -0.0261   18.4741 C   0  0  0  0  0  0  0  0  0  0  0  0
    8.0711   -0.5690   18.2292 H   0  0  0  0  0  0  0  0  0  0  0  0
    6.6259   -0.1094   19.7782 C   0  0  0  0  0  0  0  0  0  0  0  0
    7.3489   -0.7407   20.8453 N   0  0  0  0  0  0  0  0  0  0  0  0
    8.5728   -0.2850   21.3398 C   0  0  0  0  0  0  0  0  0  0  0  0
    9.0222    0.6126   20.9428 H   0  0  0  0  0  0  0  0  0  0  0  0
    8.9701   -1.1258   22.3216 C   0  0  0  0  0  0  0  0  0  0  0  0
   10.2783   -1.2880   23.0130 C   0  0  2  0  0  0  0  0  0  0  0  0
   10.1290   -1.8680   23.9267 H   0  0  0  0  0  0  0  0  0  0  0  0
   10.9646    0.0307   23.4109 C   0  0  0  0  0  0  0  0  0  0  0  0
   10.7338    0.8201   22.6760 H   0  0  0  0  0  0  0  0  0  0  0  0
   10.7077    0.3857   24.4167 H   0  0  0  0  0  0  0  0  0  0  0  0
   12.3440   -0.2682   23.4114 O   0  0  0  0  0  0  0  0  0  0  0  0
   12.5753   -1.0784   22.2734 C   0  0  0  0  0  0  0  0  0  0  0  0
   12.6590   -0.4447   21.3879 H   0  0  0  0  0  0  0  0  0  0  0  0
   13.5206   -1.6084   22.4154 H   0  0  0  0  0  0  0  0  0  0  0  0
   11.3552   -2.0009   22.1373 C   0  0  0  0  0  0  0  0  0  0  0  0
   11.5461   -3.0152   22.4968 H   0  0  0  0  0  0  0  0  0  0  0  0
   11.0448   -2.0915   21.0909 H   0  0  0  0  0  0  0  0  0  0  0  0
    7.9578   -2.0691   22.4261 N   0  0  0  0  0  0  0  0  0  0  0  0
    7.8477   -2.8149   23.0846 H   0  0  0  0  0  0  0  0  0  0  0  0
    6.9288   -1.8357   21.5707 C   0  0  0  0  0  0  0  0  0  0  0  0
    5.5435   -2.7612   21.4895 S   0  0  0  0  0  0  0  0  0  0  0  0
    5.3840    0.4833   20.0298 C   0  0  0  0  0  0  0  0  0  0  0  0
    4.9068    0.3447   21.0034 H   0  0  0  0  0  0  0  0  0  0  0  0
    4.8001    1.2443   19.0090 C   0  0  0  0  0  0  0  0  0  0  0  0
    3.8761    1.7927   19.1694 H   0  0  0  0  0  0  0  0  0  0  0  0
  1  2  1  0
  2  3  2  0
  3  4  1  0
  4  5  1  0
  4  6  2  0
  6  7  1  0
  7  8  1  0
  8  9  1  0
  8 10  2  0
 10 11  1  0
 11 12  1  1
 11 13  1  0
 13 14  1  0
 13 15  1  0
 13 16  1  0
 16 17  1  0
 17 18  1  0
 17 19  1  0
 17 20  1  0
 20 21  1  0
 20 22  1  0
 10 23  1  0
 23 24  1  0
 23 25  1  0
 25 26  2  0
  6 27  1  0
 27 28  1  0
 27 29  2  0
 29 30  1  0
 29  2  1  0
 25  7  1  0
 20 11  1  0
M  END
>  <cnnaffinity>  (1) 
-4.81022

>  <filename>  (1) 
S=c1[nH]c([C@H]2CCOC2)cn1-c1cccnc1

$$$$
