
     RDKit          3D

 35 38  0  0  0  0  0  0  0  0999 V2000
    5.6461   -1.6752   21.7079 H   0  0  0  0  0  0  0  0  0  0  0  0
    6.7155   -1.5494   21.7870 C   0  0  0  0  0  0  0  0  0  0  0  0
    7.3801   -0.7254   20.9524 C   0  0  0  0  0  0  0  0  0  0  0  0
    6.7040    0.0432   19.9041 C   0  0  0  0  0  0  0  0  0  0  0  0
    7.2047    0.0850   18.5918 C   0  0  0  0  0  0  0  0  0  0  0  0
    8.1351   -0.4221   18.3386 H   0  0  0  0  0  0  0  0  0  0  0  0
    6.5748    0.6781   17.5722 N   0  0  0  0  0  0  0  0  0  0  0  0
    5.4106    1.2909   17.8379 C   0  0  0  0  0  0  0  0  0  0  0  0
    4.9284    1.7829   16.9966 H   0  0  0  0  0  0  0  0  0  0  0  0
    4.8206    1.3150   19.1076 C   0  0  0  0  0  0  0  0  0  0  0  0
    3.8795    1.8319   19.2545 H   0  0  0  0  0  0  0  0  0  0  0  0
    5.4672    0.6653   20.1577 C   0  0  0  0  0  0  0  0  0  0  0  0
    5.0324    0.6321   21.1604 H   0  0  0  0  0  0  0  0  0  0  0  0
    8.7641   -0.6097   21.0788 N   0  0  0  0  0  0  0  0  0  0  0  0
    9.3299    0.0507   20.5755 H   0  0  0  0  0  0  0  0  0  0  0  0
    9.5047   -1.3309   21.9537 C   0  0  0  0  0  0  0  0  0  0  0  0
   11.1500   -1.1501   22.0456 S   0  0  0  0  0  0  0  0  0  0  0  0
    8.8432   -2.2054   22.7309 N   0  0  0  0  0  0  0  0  0  0  0  0
    9.4596   -2.6104   23.4152 H   0  0  0  0  0  0  0  0  0  0  0  0
    7.3868   -2.1914   22.9475 C   0  0  1  0  0  0  0  0  0  0  0  0
    7.0712   -3.2433   23.0218 H   0  0  0  0  0  0  0  0  0  0  0  0
    6.9974   -1.5229   24.2808 C   0  0  0  0  0  0  0  0  0  0  0  0
    6.1880   -2.2274   25.2211 C   0  0  0  0  0  0  0  0  0  0  0  0
    5.8838   -3.2458   24.9854 H   0  0  0  0  0  0  0  0  0  0  0  0
    5.7745   -1.6489   26.4122 C   0  0  0  0  0  0  0  0  0  0  0  0
    5.1610   -2.1889   27.1271 H   0  0  0  0  0  0  0  0  0  0  0  0
    6.1878   -0.3163   26.6551 C   0  0  0  0  0  0  0  0  0  0  0  0
    6.9827    0.4010   25.7346 C   0  0  0  0  0  0  0  0  0  0  0  0
    7.1660    1.6786   26.3465 C   0  0  0  0  0  0  0  0  0  0  0  0
    7.7152    2.5356   25.9713 H   0  0  0  0  0  0  0  0  0  0  0  0
    6.5548    1.7450   27.5125 N   0  0  0  0  0  0  0  0  0  0  0  0
    5.9681    0.5377   27.6919 N   0  0  0  0  0  0  0  0  0  0  0  0
    5.4452    0.3531   28.5330 H   0  0  0  0  0  0  0  0  0  0  0  0
    7.3873   -0.2158   24.5280 C   0  0  0  0  0  0  0  0  0  0  0  0
    7.9854    0.3215   23.7973 H   0  0  0  0  0  0  0  0  0  0  0  0
  1  2  1  0
  2  3  2  0
  3  4  1  0
  4  5  2  0
  5  6  1  0
  5  7  1  0
  7  8  2  0
  8  9  1  0
  8 10  1  0
 10 11  1  0
 10 12  2  0
 12 13  1  0
  3 14  1  0
 14 15  1  0
 14 16  1  0
 16 17  2  0
 16 18  1  0
 18 19  1  0
 18 20  1  0
 20 21  1  1
 20 22  1  0
 22 23  2  0
 23 24  1  0
 23 25  1  0
 25 26  1  0
 25 27  2  0
 27 28  1  0
 28 29  1  0
 29 30  1  0
 29 31  2  0
 31 32  1  0
 32 33  1  0
 28 34  2  0
 34 35  1  0
 20  2  1  0
 34 22  1  0
 12  4  1  0
 32 27  1  0
M  END
>  <cnnaffinity>  (1) 
-5.17961

>  <filename>  (1) 
S=C1NC(c2cccnc2)=C[C@H](c2ccc3[nH]ncc3c2)N1

$$$$
