
     RDKit          3D

 36 38  0  0  0  0  0  0  0  0999 V2000
    6.9647    0.8716   22.4911 H   0  0  0  0  0  0  0  0  0  0  0  0
    7.3582   -0.0959   22.2435 C   0  0  0  0  0  0  0  0  0  0  0  0
    7.2150   -0.6373   21.0179 C   0  0  0  0  0  0  0  0  0  0  0  0
    6.5539    0.0167   19.8781 C   0  0  0  0  0  0  0  0  0  0  0  0
    7.1346   -0.0188   18.5982 C   0  0  0  0  0  0  0  0  0  0  0  0
    8.0749   -0.5469   18.4377 H   0  0  0  0  0  0  0  0  0  0  0  0
    6.6223    0.5930   17.5257 N   0  0  0  0  0  0  0  0  0  0  0  0
    5.4754    1.2724   17.6845 C   0  0  0  0  0  0  0  0  0  0  0  0
    5.0871    1.7660   16.7939 H   0  0  0  0  0  0  0  0  0  0  0  0
    4.8010    1.3604   18.9069 C   0  0  0  0  0  0  0  0  0  0  0  0
    3.8903    1.9465   18.9682 H   0  0  0  0  0  0  0  0  0  0  0  0
    5.3473    0.7270   20.0239 C   0  0  0  0  0  0  0  0  0  0  0  0
    4.8447    0.7762   20.9923 H   0  0  0  0  0  0  0  0  0  0  0  0
    7.6849   -1.9284   20.8034 N   0  0  0  0  0  0  0  0  0  0  0  0
    7.3990   -2.4503   19.9909 H   0  0  0  0  0  0  0  0  0  0  0  0
    8.0564   -2.7695   21.8109 C   0  0  0  0  0  0  0  0  0  0  0  0
    8.0741   -4.4056   21.5859 S   0  0  0  0  0  0  0  0  0  0  0  0
    8.3983   -2.1683   22.9529 N   0  0  0  0  0  0  0  0  0  0  0  0
    8.8539   -2.7108   23.6570 H   0  0  0  0  0  0  0  0  0  0  0  0
    8.0108   -0.8380   23.3577 C   0  0  1  0  0  0  0  0  0  0  0  0
    7.3019   -0.9043   24.2073 H   0  0  0  0  0  0  0  0  0  0  0  0
    9.2929   -0.3259   23.8301 N   0  0  0  0  0  0  0  0  0  0  0  0
    9.9427   -0.7143   23.1525 H   0  0  0  0  0  0  0  0  0  0  0  0
    9.4552    1.1430   23.8977 C   0  0  0  0  0  0  0  0  0  0  0  0
    8.6980    1.6585   23.2912 H   0  0  0  0  0  0  0  0  0  0  0  0
    9.2881    1.4759   24.9318 H   0  0  0  0  0  0  0  0  0  0  0  0
   10.8244    1.6183   23.4247 C   0  0  0  0  0  0  0  0  0  0  0  0
   10.9903    2.5122   22.3472 C   0  0  0  0  0  0  0  0  0  0  0  0
   10.1379    2.9041   21.8008 H   0  0  0  0  0  0  0  0  0  0  0  0
   12.2776    2.9309   21.9912 C   0  0  0  0  0  0  0  0  0  0  0  0
   12.4282    3.6321   21.1685 H   0  0  0  0  0  0  0  0  0  0  0  0
   13.3826    2.5139   22.6208 N   0  0  0  0  0  0  0  0  0  0  0  0
   13.2302    1.6365   23.6153 C   0  0  0  0  0  0  0  0  0  0  0  0
   14.1474    1.2769   24.0735 H   0  0  0  0  0  0  0  0  0  0  0  0
   11.9931    1.1859   24.0731 C   0  0  0  0  0  0  0  0  0  0  0  0
   11.9570    0.5039   24.9177 H   0  0  0  0  0  0  0  0  0  0  0  0
  1  2  1  0
  2  3  2  0
  3  4  1  0
  4  5  2  0
  5  6  1  0
  5  7  1  0
  7  8  2  0
  8  9  1  0
  8 10  1  0
 10 11  1  0
 10 12  2  0
 12 13  1  0
  3 14  1  0
 14 15  1  0
 14 16  1  0
 16 17  2  0
 16 18  1  0
 18 19  1  0
 18 20  1  0
 20 21  1  1
 20 22  1  0
 22 23  1  0
 22 24  1  0
 24 25  1  0
 24 26  1  0
 24 27  1  0
 27 28  2  0
 28 29  1  0
 28 30  1  0
 30 31  1  0
 30 32  2  0
 32 33  1  0
 33 34  1  0
 33 35  2  0
 35 36  1  0
 20  2  1  0
 35 27  1  0
 12  4  1  0
M  END
>  <cnnaffinity>  (1) 
-4.97029

>  <filename>  (1) 
S=C1NC(c2cccnc2)=C[C@H](NCc2ccncc2)N1

$$$$
