
     RDKit          3D

 34 37  0  0  0  0  0  0  0  0999 V2000
    4.9339    1.7973   16.9954 H   0  0  0  0  0  0  0  0  0  0  0  0
    5.3978    1.2894   17.8359 C   0  0  0  0  0  0  0  0  0  0  0  0
    6.5520    0.6588   17.5703 N   0  0  0  0  0  0  0  0  0  0  0  0
    7.1728    0.0427   18.5828 C   0  0  0  0  0  0  0  0  0  0  0  0
    8.1254   -0.4319   18.3552 H   0  0  0  0  0  0  0  0  0  0  0  0
    6.6561   -0.0003   19.8937 C   0  0  0  0  0  0  0  0  0  0  0  0
    7.3376   -0.6856   20.9456 N   0  0  0  0  0  0  0  0  0  0  0  0
    6.7362   -1.6058   21.7937 C   0  0  0  0  0  0  0  0  0  0  0  0
    5.6884   -1.8376   21.6891 H   0  0  0  0  0  0  0  0  0  0  0  0
    7.6766   -2.0699   22.6528 C   0  0  0  0  0  0  0  0  0  0  0  0
    7.5446   -2.9994   23.7730 C   0  0  0  0  0  0  0  0  0  0  0  0
    8.6461   -3.7030   24.3695 C   0  0  0  0  0  0  0  0  0  0  0  0
    9.6595   -3.5485   23.9984 H   0  0  0  0  0  0  0  0  0  0  0  0
    8.5336   -4.5724   25.3469 N   0  0  0  0  0  0  0  0  0  0  0  0
    7.2730   -4.8203   25.8405 C   0  0  0  0  0  0  0  0  0  0  0  0
    7.1363   -5.7582   26.9014 C   0  0  0  0  0  0  0  0  0  0  0  0
    8.0577   -6.2146   27.2503 H   0  0  0  0  0  0  0  0  0  0  0  0
    5.8902   -6.0374   27.4207 C   0  0  0  0  0  0  0  0  0  0  0  0
    5.7821   -6.7540   28.2314 H   0  0  0  0  0  0  0  0  0  0  0  0
    4.7260   -5.3938   26.9040 C   0  0  0  0  0  0  0  0  0  0  0  0
    3.7539   -5.6272   27.3299 H   0  0  0  0  0  0  0  0  0  0  0  0
    4.8250   -4.4834   25.8805 C   0  0  0  0  0  0  0  0  0  0  0  0
    3.9472   -3.9815   25.4738 H   0  0  0  0  0  0  0  0  0  0  0  0
    6.1038   -4.1752   25.3290 C   0  0  0  0  0  0  0  0  0  0  0  0
    6.2830   -3.2480   24.2791 C   0  0  0  0  0  0  0  0  0  0  0  0
    5.4151   -2.7286   23.8780 H   0  0  0  0  0  0  0  0  0  0  0  0
    8.8493   -1.4285   22.3014 N   0  0  0  0  0  0  0  0  0  0  0  0
    9.7471   -1.4143   22.7543 H   0  0  0  0  0  0  0  0  0  0  0  0
    8.6593   -0.5252   21.3080 C   0  0  0  0  0  0  0  0  0  0  0  0
    9.8192    0.5342   20.7878 S   0  0  0  0  0  0  0  0  0  0  0  0
    5.4442    0.6457   20.1575 C   0  0  0  0  0  0  0  0  0  0  0  0
    5.0400    0.6326   21.1723 H   0  0  0  0  0  0  0  0  0  0  0  0
    4.8085    1.3098   19.1052 C   0  0  0  0  0  0  0  0  0  0  0  0
    3.8784    1.8428   19.2572 H   0  0  0  0  0  0  0  0  0  0  0  0
  1  2  1  0
  2  3  2  0
  3  4  1  0
  4  5  1  0
  4  6  2  0
  6  7  1  0
  7  8  1  0
  8  9  1  0
  8 10  2  0
 10 11  1  0
 11 12  2  0
 12 13  1  0
 12 14  1  0
 14 15  2  0
 15 16  1  0
 16 17  1  0
 16 18  2  0
 18 19  1  0
 18 20  1  0
 20 21  1  0
 20 22  2  0
 22 23  1  0
 22 24  1  0
 24 25  2  0
 25 26  1  0
 10 27  1  0
 27 28  1  0
 27 29  1  0
 29 30  2  0
  6 31  1  0
 31 32  1  0
 31 33  2  0
 33 34  1  0
 33  2  1  0
 29  7  1  0
 25 11  1  0
 24 15  1  0
M  END
>  <cnnaffinity>  (1) 
-5.89331

>  <filename>  (1) 
S=c1[nH]c(-c2cnc3ccccc3c2)cn1-c1cccnc1

$$$$
