
     RDKit          3D

 22 23  0  0  0  0  0  0  0  0999 V2000
    4.9341    1.8272   16.9922 H   0  0  0  0  0  0  0  0  0  0  0  0
    5.4129    1.3116   17.8249 C   0  0  0  0  0  0  0  0  0  0  0  0
    6.5748    0.6944   17.5558 N   0  0  0  0  0  0  0  0  0  0  0  0
    7.1833    0.0396   18.5521 C   0  0  0  0  0  0  0  0  0  0  0  0
    8.1275   -0.4517   18.3198 H   0  0  0  0  0  0  0  0  0  0  0  0
    6.6708   -0.0492   19.8597 C   0  0  0  0  0  0  0  0  0  0  0  0
    7.4082   -0.7528   20.8722 N   0  0  0  0  0  0  0  0  0  0  0  0
    8.7281   -0.4700   21.2371 C   0  0  0  0  0  0  0  0  0  0  0  0
    9.2921    0.2721   20.6868 H   0  0  0  0  0  0  0  0  0  0  0  0
    9.0466   -1.2419   22.3021 C   0  0  0  0  0  0  0  0  0  0  0  0
   10.2951   -1.3081   23.1133 C   0  0  0  0  0  0  0  0  0  0  0  0
   10.0776   -1.4929   24.1696 H   0  0  0  0  0  0  0  0  0  0  0  0
   10.8435   -0.3673   23.0250 H   0  0  0  0  0  0  0  0  0  0  0  0
   11.4004   -2.6153   22.5672 Cl  0  0  0  0  0  0  0  0  0  0  0  0
    7.9220   -2.0224   22.5497 N   0  0  0  0  0  0  0  0  0  0  0  0
    7.7620   -2.7483   23.2359 H   0  0  0  0  0  0  0  0  0  0  0  0
    6.9319   -1.7980   21.6407 C   0  0  0  0  0  0  0  0  0  0  0  0
    5.5589   -2.7196   21.4695 S   0  0  0  0  0  0  0  0  0  0  0  0
    5.4536    0.5958   20.1323 C   0  0  0  0  0  0  0  0  0  0  0  0
    5.0303    0.5732   21.1362 H   0  0  0  0  0  0  0  0  0  0  0  0
    4.8225    1.2922   19.0926 C   0  0  0  0  0  0  0  0  0  0  0  0
    3.8919    1.8277   19.2453 H   0  0  0  0  0  0  0  0  0  0  0  0
  1  2  1  0
  2  3  2  0
  3  4  1  0
  4  5  1  0
  4  6  2  0
  6  7  1  0
  7  8  1  0
  8  9  1  0
  8 10  2  0
 10 11  1  0
 11 12  1  0
 11 13  1  0
 11 14  1  0
 10 15  1  0
 15 16  1  0
 15 17  1  0
 17 18  2  0
  6 19  1  0
 19 20  1  0
 19 21  2  0
 21 22  1  0
 21  2  1  0
 17  7  1  0
M  END
>  <cnnaffinity>  (1) 
-4.83888

>  <filename>  (1) 
S=c1[nH]c(CCl)cn1-c1cccnc1

$$$$
