
     RDKit          3D

 29 31  0  0  0  0  0  0  0  0999 V2000
    4.9961    1.9883   16.7409 H   0  0  0  0  0  0  0  0  0  0  0  0
    5.4664    1.4448   17.5619 C   0  0  0  0  0  0  0  0  0  0  0  0
    6.6036    0.7876   17.2788 N   0  0  0  0  0  0  0  0  0  0  0  0
    7.1979    0.1125   18.2710 C   0  0  0  0  0  0  0  0  0  0  0  0
    8.1298   -0.3825   17.9959 H   0  0  0  0  0  0  0  0  0  0  0  0
    6.6837    0.0190   19.5790 C   0  0  0  0  0  0  0  0  0  0  0  0
    7.2913   -0.8105   20.6240 C   0  0  0  0  0  0  0  0  0  0  0  0
    6.7538   -1.4506   21.6922 C   0  0  0  0  0  0  0  0  0  0  0  0
    5.7349   -1.5937   22.0130 H   0  0  0  0  0  0  0  0  0  0  0  0
    7.7943   -2.0348   22.4143 N   0  0  0  0  0  0  0  0  0  0  0  0
    7.6631   -2.5544   23.7428 C   0  0  0  0  0  0  0  0  0  0  0  0
    6.7090   -3.5358   24.0345 C   0  0  0  0  0  0  0  0  0  0  0  0
    6.0954   -3.9437   23.2330 H   0  0  0  0  0  0  0  0  0  0  0  0
    6.5763   -3.9809   25.3557 C   0  0  0  0  0  0  0  0  0  0  0  0
    5.8543   -4.7551   25.5944 H   0  0  0  0  0  0  0  0  0  0  0  0
    7.3575   -3.4377   26.3811 C   0  0  0  0  0  0  0  0  0  0  0  0
    7.2526   -3.7657   27.4096 H   0  0  0  0  0  0  0  0  0  0  0  0
    8.2929   -2.4541   26.0637 C   0  0  0  0  0  0  0  0  0  0  0  0
    9.2304   -1.7079   27.3163 Cl  0  0  0  0  0  0  0  0  0  0  0  0
    8.4800   -2.0349   24.7532 C   0  0  0  0  0  0  0  0  0  0  0  0
    9.2669   -1.3284   24.5165 H   0  0  0  0  0  0  0  0  0  0  0  0
    8.9886   -1.7950   21.7776 C   0  0  0  0  0  0  0  0  0  0  0  0
   10.5495   -2.2499   22.1278 S   0  0  0  0  0  0  0  0  0  0  0  0
    8.6507   -1.0574   20.6903 N   0  0  0  0  0  0  0  0  0  0  0  0
    9.4023   -0.6493   20.1620 H   0  0  0  0  0  0  0  0  0  0  0  0
    5.5167    0.7397   19.8609 C   0  0  0  0  0  0  0  0  0  0  0  0
    5.1277    0.7403   20.8795 H   0  0  0  0  0  0  0  0  0  0  0  0
    4.9007    1.4579   18.8392 C   0  0  0  0  0  0  0  0  0  0  0  0
    4.0049    2.0333   19.0193 H   0  0  0  0  0  0  0  0  0  0  0  0
  1  2  1  0
  2  3  2  0
  3  4  1  0
  4  5  1  0
  4  6  2  0
  6  7  1  0
  7  8  2  0
  8  9  1  0
  8 10  1  0
 10 11  1  0
 11 12  2  0
 12 13  1  0
 12 14  1  0
 14 15  1  0
 14 16  2  0
 16 17  1  0
 16 18  1  0
 18 19  1  0
 18 20  2  0
 20 21  1  0
 10 22  1  0
 22 23  2  0
 22 24  1  0
 24 25  1  0
  6 26  1  0
 26 27  1  0
 26 28  2  0
 28 29  1  0
 28  2  1  0
 24  7  1  0
 20 11  1  0
M  END
>  <cnnaffinity>  (1) 
-5.6906

>  <filename>  (1) 
S=c1[nH]c(-c2cccnc2)cn1-c1cccc(Cl)c1

$$$$
