
     RDKit          3D

 35 38  0  0  0  0  0  0  0  0999 V2000
    4.9302    1.7950   16.9974 H   0  0  0  0  0  0  0  0  0  0  0  0
    5.3961    1.2900   17.8380 C   0  0  0  0  0  0  0  0  0  0  0  0
    6.5515    0.6621   17.5709 N   0  0  0  0  0  0  0  0  0  0  0  0
    7.1713    0.0430   18.5807 C   0  0  0  0  0  0  0  0  0  0  0  0
    8.1256   -0.4307   18.3574 H   0  0  0  0  0  0  0  0  0  0  0  0
    6.6514   -0.0026   19.8894 C   0  0  0  0  0  0  0  0  0  0  0  0
    7.3355   -0.6770   20.9384 N   0  0  0  0  0  0  0  0  0  0  0  0
    6.7378   -1.5749   21.8078 C   0  0  0  0  0  0  0  0  0  0  0  0
    5.6886   -1.8129   21.7549 H   0  0  0  0  0  0  0  0  0  0  0  0
    7.6753   -2.0168   22.6827 C   0  0  0  0  0  0  0  0  0  0  0  0
    7.5653   -2.8875   23.8519 C   0  0  0  0  0  0  0  0  0  0  0  0
    8.0581   -2.4747   25.0837 C   0  0  0  0  0  0  0  0  0  0  0  0
    8.5860   -1.5257   25.1469 H   0  0  0  0  0  0  0  0  0  0  0  0
    7.8478   -3.2322   26.2621 C   0  0  0  0  0  0  0  0  0  0  0  0
    8.2374   -2.8652   27.2127 H   0  0  0  0  0  0  0  0  0  0  0  0
    7.1420   -4.4164   26.1951 C   0  0  0  0  0  0  0  0  0  0  0  0
    6.9633   -5.0111   27.0896 H   0  0  0  0  0  0  0  0  0  0  0  0
    6.6355   -4.8957   24.9462 C   0  0  0  0  0  0  0  0  0  0  0  0
    5.8998   -6.1190   24.8644 C   0  0  0  0  0  0  0  0  0  0  0  0
    5.7434   -6.6795   25.7843 H   0  0  0  0  0  0  0  0  0  0  0  0
    5.4492   -6.6041   23.6559 C   0  0  0  0  0  0  0  0  0  0  0  0
    4.9222   -7.5543   23.6061 H   0  0  0  0  0  0  0  0  0  0  0  0
    5.7063   -5.8894   22.4566 C   0  0  0  0  0  0  0  0  0  0  0  0
    5.3575   -6.2936   21.5082 H   0  0  0  0  0  0  0  0  0  0  0  0
    6.4006   -4.6972   22.4985 C   0  0  0  0  0  0  0  0  0  0  0  0
    6.6074   -4.1502   21.5831 H   0  0  0  0  0  0  0  0  0  0  0  0
    6.8693   -4.1480   23.7448 C   0  0  0  0  0  0  0  0  0  0  0  0
    8.8380   -1.3516   22.3374 N   0  0  0  0  0  0  0  0  0  0  0  0
    9.7596   -1.4218   22.7331 H   0  0  0  0  0  0  0  0  0  0  0  0
    8.6560   -0.5001   21.3021 C   0  0  0  0  0  0  0  0  0  0  0  0
    9.8215    0.5358   20.7525 S   0  0  0  0  0  0  0  0  0  0  0  0
    5.4421    0.6421   20.1590 C   0  0  0  0  0  0  0  0  0  0  0  0
    5.0442    0.6276   21.1757 H   0  0  0  0  0  0  0  0  0  0  0  0
    4.8083    1.3084   19.1074 C   0  0  0  0  0  0  0  0  0  0  0  0
    3.8799    1.8413   19.2598 H   0  0  0  0  0  0  0  0  0  0  0  0
  1  2  1  0
  2  3  2  0
  3  4  1  0
  4  5  1  0
  4  6  2  0
  6  7  1  0
  7  8  1  0
  8  9  1  0
  8 10  2  0
 10 11  1  0
 11 12  2  0
 12 13  1  0
 12 14  1  0
 14 15  1  0
 14 16  2  0
 16 17  1  0
 16 18  1  0
 18 19  2  0
 19 20  1  0
 19 21  1  0
 21 22  1  0
 21 23  2  0
 23 24  1  0
 23 25  1  0
 25 26  1  0
 25 27  2  0
 10 28  1  0
 28 29  1  0
 28 30  1  0
 30 31  2  0
  6 32  1  0
 32 33  1  0
 32 34  2  0
 34 35  1  0
 34  2  1  0
 30  7  1  0
 27 11  1  0
 27 18  1  0
M  END
>  <cnnaffinity>  (1) 
-5.78715

>  <filename>  (1) 
S=c1[nH]c(-c2cccc3ccccc23)cn1-c1cccnc1

$$$$
