
     RDKit          3D

 29 31  0  0  0  0  0  0  0  0999 V2000
    4.9310    1.8185   16.9842 H   0  0  0  0  0  0  0  0  0  0  0  0
    5.3911    1.2938   17.8169 C   0  0  0  0  0  0  0  0  0  0  0  0
    6.5461    0.6572   17.5538 N   0  0  0  0  0  0  0  0  0  0  0  0
    7.1703    0.0401   18.5677 C   0  0  0  0  0  0  0  0  0  0  0  0
    8.1228   -0.4443   18.3498 H   0  0  0  0  0  0  0  0  0  0  0  0
    6.6480    0.0024   19.8777 C   0  0  0  0  0  0  0  0  0  0  0  0
    7.3114   -0.6724   20.9503 N   0  0  0  0  0  0  0  0  0  0  0  0
    6.6969   -1.5754   21.8094 C   0  0  0  0  0  0  0  0  0  0  0  0
    5.6543   -1.8290   21.6795 H   0  0  0  0  0  0  0  0  0  0  0  0
    7.6175   -2.0077   22.7099 C   0  0  0  0  0  0  0  0  0  0  0  0
    7.4649   -2.8952   23.8821 C   0  0  0  0  0  0  0  0  0  0  0  0
    6.3148   -2.7733   24.6882 C   0  0  0  0  0  0  0  0  0  0  0  0
    5.6018   -1.9887   24.4658 H   0  0  0  0  0  0  0  0  0  0  0  0
    6.0977   -3.6030   25.7860 C   0  0  0  0  0  0  0  0  0  0  0  0
    5.2257   -3.4680   26.4165 H   0  0  0  0  0  0  0  0  0  0  0  0
    7.0160   -4.6066   26.0784 C   0  0  0  0  0  0  0  0  0  0  0  0
    6.8763   -5.2709   26.9240 H   0  0  0  0  0  0  0  0  0  0  0  0
    8.1640   -4.7508   25.3008 C   0  0  0  0  0  0  0  0  0  0  0  0
    9.2522   -6.0412   25.6880 Cl  0  0  0  0  0  0  0  0  0  0  0  0
    8.4267   -3.8636   24.2472 C   0  0  0  0  0  0  0  0  0  0  0  0
    9.9759   -3.9164   23.4772 Cl  0  0  0  0  0  0  0  0  0  0  0  0
    8.7920   -1.3501   22.3692 N   0  0  0  0  0  0  0  0  0  0  0  0
    9.7164   -1.3916   22.7700 H   0  0  0  0  0  0  0  0  0  0  0  0
    8.6186   -0.4757   21.3507 C   0  0  0  0  0  0  0  0  0  0  0  0
    9.7738    0.5947   20.8337 S   0  0  0  0  0  0  0  0  0  0  0  0
    5.4372    0.6545   20.1311 C   0  0  0  0  0  0  0  0  0  0  0  0
    5.0409    0.6471   21.1466 H   0  0  0  0  0  0  0  0  0  0  0  0
    4.7929    1.3175   19.0840 C   0  0  0  0  0  0  0  0  0  0  0  0
    3.8615    1.8584   19.2471 H   0  0  0  0  0  0  0  0  0  0  0  0
  1  2  1  0
  2  3  2  0
  3  4  1  0
  4  5  1  0
  4  6  2  0
  6  7  1  0
  7  8  1  0
  8  9  1  0
  8 10  2  0
 10 11  1  0
 11 12  2  0
 12 13  1  0
 12 14  1  0
 14 15  1  0
 14 16  2  0
 16 17  1  0
 16 18  1  0
 18 19  1  0
 18 20  2  0
 20 21  1  0
 10 22  1  0
 22 23  1  0
 22 24  1  0
 24 25  2  0
  6 26  1  0
 26 27  1  0
 26 28  2  0
 28 29  1  0
 28  2  1  0
 24  7  1  0
 20 11  1  0
M  END
>  <cnnaffinity>  (1) 
-5.96128

>  <filename>  (1) 
S=c1[nH]c(-c2cccc(Cl)c2Cl)cn1-c1cccnc1

$$$$
