
     RDKit          3D

 33 35  0  0  0  0  0  0  0  0999 V2000
    5.1786    1.8476   16.7819 H   0  0  0  0  0  0  0  0  0  0  0  0
    5.4965    1.3163   17.6765 C   0  0  0  0  0  0  0  0  0  0  0  0
    6.6406    0.6178   17.5846 N   0  0  0  0  0  0  0  0  0  0  0  0
    7.0624   -0.0238   18.6824 C   0  0  0  0  0  0  0  0  0  0  0  0
    7.9825   -0.5988   18.6032 H   0  0  0  0  0  0  0  0  0  0  0  0
    6.3761    0.0040   19.9086 C   0  0  0  0  0  0  0  0  0  0  0  0
    6.8926   -0.6568   21.0712 N   0  0  0  0  0  0  0  0  0  0  0  0
    7.3915    0.0388   22.1810 C   0  0  0  0  0  0  0  0  0  0  0  0
    7.6260    1.0890   22.1470 H   0  0  0  0  0  0  0  0  0  0  0  0
    7.4753   -0.8466   23.1929 C   0  0  0  0  0  0  0  0  0  0  0  0
    7.8385   -0.7289   24.5263 N   0  0  0  0  0  0  0  0  0  0  0  0
    7.9600    0.2621   24.6922 H   0  0  0  0  0  0  0  0  0  0  0  0
    9.0572   -1.4476   24.9436 C   0  0  0  0  0  0  0  0  0  0  0  0
    8.8638   -2.5241   24.9166 H   0  0  0  0  0  0  0  0  0  0  0  0
    9.2491   -1.2067   25.9946 H   0  0  0  0  0  0  0  0  0  0  0  0
   10.2803   -1.1311   24.1002 C   0  0  0  0  0  0  0  0  0  0  0  0
   10.6965   -2.0171   23.0947 C   0  0  0  0  0  0  0  0  0  0  0  0
   10.1894   -2.9668   22.9615 H   0  0  0  0  0  0  0  0  0  0  0  0
   11.7564   -1.6542   22.2572 C   0  0  0  0  0  0  0  0  0  0  0  0
   12.0929   -2.3308   21.4751 H   0  0  0  0  0  0  0  0  0  0  0  0
   12.4064   -0.4893   22.3587 N   0  0  0  0  0  0  0  0  0  0  0  0
   12.0001    0.3648   23.3071 C   0  0  0  0  0  0  0  0  0  0  0  0
   12.5169    1.3214   23.3246 H   0  0  0  0  0  0  0  0  0  0  0  0
   10.9702    0.0874   24.2126 C   0  0  0  0  0  0  0  0  0  0  0  0
   10.7023    0.8215   24.9687 H   0  0  0  0  0  0  0  0  0  0  0  0
    7.0840   -2.0600   22.7084 N   0  0  0  0  0  0  0  0  0  0  0  0
    6.8172   -2.8322   23.2821 H   0  0  0  0  0  0  0  0  0  0  0  0
    6.6681   -1.9780   21.4130 C   0  0  0  0  0  0  0  0  0  0  0  0
    6.0108   -3.2310   20.5418 S   0  0  0  0  0  0  0  0  0  0  0  0
    5.1735    0.7167   19.9887 C   0  0  0  0  0  0  0  0  0  0  0  0
    4.6169    0.7307   20.9270 H   0  0  0  0  0  0  0  0  0  0  0  0
    4.7284    1.3881   18.8453 C   0  0  0  0  0  0  0  0  0  0  0  0
    3.8083    1.9658   18.8562 H   0  0  0  0  0  0  0  0  0  0  0  0
  1  2  1  0
  2  3  2  0
  3  4  1  0
  4  5  1  0
  4  6  2  0
  6  7  1  0
  7  8  1  0
  8  9  1  0
  8 10  2  0
 10 11  1  0
 11 12  1  0
 11 13  1  0
 13 14  1  0
 13 15  1  0
 13 16  1  0
 16 17  2  0
 17 18  1  0
 17 19  1  0
 19 20  1  0
 19 21  2  0
 21 22  1  0
 22 23  1  0
 22 24  2  0
 24 25  1  0
 10 26  1  0
 26 27  1  0
 26 28  1  0
 28 29  2  0
  6 30  1  0
 30 31  1  0
 30 32  2  0
 32 33  1  0
 32  2  1  0
 28  7  1  0
 24 16  1  0
M  END
>  <cnnaffinity>  (1) 
-5.46282

>  <filename>  (1) 
S=c1[nH]c(NCc2ccncc2)cn1-c1cccnc1

$$$$
