
     RDKit          3D

 34 36  0  0  0  0  0  0  0  0999 V2000
    9.2210   -0.1065   20.2888 H   0  0  0  0  0  0  0  0  0  0  0  0
    8.5472   -0.4540   21.0532 C   0  0  0  0  0  0  0  0  0  0  0  0
    7.2157   -0.4995   20.9051 C   0  0  0  0  0  0  0  0  0  0  0  0
    6.4373    0.0654   19.7881 C   0  0  0  0  0  0  0  0  0  0  0  0
    6.9740    0.0228   18.4913 C   0  0  0  0  0  0  0  0  0  0  0  0
    7.8849   -0.5451   18.2988 H   0  0  0  0  0  0  0  0  0  0  0  0
    6.4347    0.6401   17.4335 N   0  0  0  0  0  0  0  0  0  0  0  0
    5.3023    1.3318   17.6317 C   0  0  0  0  0  0  0  0  0  0  0  0
    4.9049    1.8531   16.7631 H   0  0  0  0  0  0  0  0  0  0  0  0
    4.6408    1.3825   18.8645 C   0  0  0  0  0  0  0  0  0  0  0  0
    3.7174    1.9426   18.9500 H   0  0  0  0  0  0  0  0  0  0  0  0
    5.2032    0.7242   19.9559 C   0  0  0  0  0  0  0  0  0  0  0  0
    4.7140    0.7418   20.9313 H   0  0  0  0  0  0  0  0  0  0  0  0
    6.4651   -1.1337   21.8992 N   0  0  0  0  0  0  0  0  0  0  0  0
    5.5471   -1.4916   21.7055 H   0  0  0  0  0  0  0  0  0  0  0  0
    7.0079   -1.6910   23.0057 C   0  0  0  0  0  0  0  0  0  0  0  0
    6.1828   -2.8344   23.8693 S   0  0  0  0  0  0  0  0  0  0  0  0
    8.2582   -1.2822   23.3322 N   0  0  0  0  0  0  0  0  0  0  0  0
    8.6385   -1.9032   24.0336 H   0  0  0  0  0  0  0  0  0  0  0  0
    9.2149   -1.0011   22.2680 C   0  0  1  0  0  0  0  0  0  0  0  0
    9.9906   -0.3070   22.6372 H   0  0  0  0  0  0  0  0  0  0  0  0
    9.8698   -2.2493   21.9514 N   0  0  0  0  0  0  0  0  0  0  0  0
    9.1498   -2.8988   21.6620 H   0  0  0  0  0  0  0  0  0  0  0  0
   10.7076   -2.8120   22.9972 C   0  0  0  0  0  0  0  0  0  0  0  0
   11.6339   -3.2158   22.5618 H   0  0  0  0  0  0  0  0  0  0  0  0
   11.0297   -1.9928   23.6521 H   0  0  0  0  0  0  0  0  0  0  0  0
   10.0631   -3.8867   23.8567 C   0  0  0  0  0  0  0  0  0  0  0  0
   10.7963   -4.2560   25.3780 S   0  0  0  0  0  0  0  0  0  0  0  0
    9.6953   -5.5296   25.6920 C   0  0  0  0  0  0  0  0  0  0  0  0
    9.8170   -6.1452   26.5750 H   0  0  0  0  0  0  0  0  0  0  0  0
    8.7935   -5.6657   24.6818 C   0  0  0  0  0  0  0  0  0  0  0  0
    7.9566   -6.3541   24.7147 H   0  0  0  0  0  0  0  0  0  0  0  0
    9.0224   -4.7372   23.6168 C   0  0  0  0  0  0  0  0  0  0  0  0
    8.4254   -4.7364   22.7100 H   0  0  0  0  0  0  0  0  0  0  0  0
  1  2  1  0
  2  3  2  0
  3  4  1  0
  4  5  2  0
  5  6  1  0
  5  7  1  0
  7  8  2  0
  8  9  1  0
  8 10  1  0
 10 11  1  0
 10 12  2  0
 12 13  1  0
  3 14  1  0
 14 15  1  0
 14 16  1  0
 16 17  2  0
 16 18  1  0
 18 19  1  0
 18 20  1  0
 20 21  1  1
 20 22  1  0
 22 23  1  0
 22 24  1  0
 24 25  1  0
 24 26  1  0
 24 27  1  0
 27 28  1  0
 28 29  1  0
 29 30  1  0
 29 31  2  0
 31 32  1  0
 31 33  1  0
 33 34  1  0
 20  2  1  0
 33 27  2  0
 12  4  1  0
M  END
>  <cnnaffinity>  (1) 
-5.2612

>  <filename>  (1) 
S=C1NC(c2cccnc2)=C[C@H](NCc2cccs2)N1

$$$$
