
     RDKit          3D

 37 39  0  0  0  0  0  0  0  0999 V2000
    8.6241    1.0945   21.6673 H   0  0  0  0  0  0  0  0  0  0  0  0
    7.9353    0.3278   21.9982 C   0  0  0  0  0  0  0  0  0  0  0  0
    7.4204    0.3165   23.2391 C   0  0  0  0  0  0  0  0  0  0  0  0
    7.6338    1.4068   24.2797 C   0  0  0  0  0  0  0  0  0  0  0  0
    8.7073    1.6478   24.2788 H   0  0  0  0  0  0  0  0  0  0  0  0
    7.3987    0.9999   25.2763 H   0  0  0  0  0  0  0  0  0  0  0  0
    6.8727    2.6212   24.0292 N   0  0  0  0  0  0  0  0  0  0  0  0
    6.2625    2.6770   23.2285 H   0  0  0  0  0  0  0  0  0  0  0  0
    7.0568    3.7996   24.7255 C   0  0  0  0  0  0  0  0  0  0  0  0
    7.9893    3.9247   25.7773 C   0  0  0  0  0  0  0  0  0  0  0  0
    8.6065    3.0772   26.0570 H   0  0  0  0  0  0  0  0  0  0  0  0
    8.1202    5.1359   26.4630 C   0  0  0  0  0  0  0  0  0  0  0  0
    8.8481    5.2184   27.2666 H   0  0  0  0  0  0  0  0  0  0  0  0
    7.3296    6.2356   26.1222 C   0  0  0  0  0  0  0  0  0  0  0  0
    7.4287    7.1719   26.6631 H   0  0  0  0  0  0  0  0  0  0  0  0
    6.4081    6.1189   25.0753 C   0  0  0  0  0  0  0  0  0  0  0  0
    5.7925    6.9700   24.7952 H   0  0  0  0  0  0  0  0  0  0  0  0
    6.2723    4.9179   24.3779 C   0  0  0  0  0  0  0  0  0  0  0  0
    5.5625    4.8287   23.5595 H   0  0  0  0  0  0  0  0  0  0  0  0
    6.6650   -0.8101   23.6015 N   0  0  0  0  0  0  0  0  0  0  0  0
    6.2370   -0.9391   24.5079 H   0  0  0  0  0  0  0  0  0  0  0  0
    6.4634   -1.8999   22.8121 C   0  0  0  0  0  0  0  0  0  0  0  0
    5.7078   -3.2575   23.3948 S   0  0  0  0  0  0  0  0  0  0  0  0
    6.9022   -1.8277   21.5458 N   0  0  0  0  0  0  0  0  0  0  0  0
    6.5207   -2.5540   20.9641 H   0  0  0  0  0  0  0  0  0  0  0  0
    7.5316   -0.6609   20.9466 C   0  0  1  0  0  0  0  0  0  0  0  0
    8.4420   -1.0232   20.4427 H   0  0  0  0  0  0  0  0  0  0  0  0
    6.6550   -0.0392   19.8501 C   0  0  0  0  0  0  0  0  0  0  0  0
    7.1566    0.0152   18.5437 C   0  0  0  0  0  0  0  0  0  0  0  0
    8.1005   -0.4771   18.3132 H   0  0  0  0  0  0  0  0  0  0  0  0
    6.5710    0.6537   17.5224 N   0  0  0  0  0  0  0  0  0  0  0  0
    5.4174    1.2817   17.7903 C   0  0  0  0  0  0  0  0  0  0  0  0
    4.9661    1.8270   16.9626 H   0  0  0  0  0  0  0  0  0  0  0  0
    4.7978    1.2543   19.0471 C   0  0  0  0  0  0  0  0  0  0  0  0
    3.8673    1.7915   19.1917 H   0  0  0  0  0  0  0  0  0  0  0  0
    5.4167    0.5707   20.0984 C   0  0  0  0  0  0  0  0  0  0  0  0
    4.9550    0.5367   21.0899 H   0  0  0  0  0  0  0  0  0  0  0  0
  1  2  1  0
  2  3  2  0
  3  4  1  0
  4  5  1  0
  4  6  1  0
  4  7  1  0
  7  8  1  0
  7  9  1  0
  9 10  2  0
 10 11  1  0
 10 12  1  0
 12 13  1  0
 12 14  2  0
 14 15  1  0
 14 16  1  0
 16 17  1  0
 16 18  2  0
 18 19  1  0
  3 20  1  0
 20 21  1  0
 20 22  1  0
 22 23  2  0
 22 24  1  0
 24 25  1  0
 24 26  1  0
 26 27  1  6
 26 28  1  0
 28 29  2  0
 29 30  1  0
 29 31  1  0
 31 32  2  0
 32 33  1  0
 32 34  1  0
 34 35  1  0
 34 36  2  0
 36 37  1  0
 26  2  1  0
 36 28  1  0
 18  9  1  0
M  END
>  <cnnaffinity>  (1) 
-4.47695

>  <filename>  (1) 
S=C1NC(CNc2ccccc2)=C[C@H](c2cccnc2)N1

$$$$
