
     RDKit          3D

 43 46  0  0  0  0  0  0  0  0999 V2000
    4.9582    1.7949   16.9812 H   0  0  0  0  0  0  0  0  0  0  0  0
    5.4285    1.2921   17.8221 C   0  0  0  0  0  0  0  0  0  0  0  0
    6.5804    0.6517   17.5622 N   0  0  0  0  0  0  0  0  0  0  0  0
    7.1849    0.0236   18.5792 C   0  0  0  0  0  0  0  0  0  0  0  0
    8.1216   -0.4860   18.3584 H   0  0  0  0  0  0  0  0  0  0  0  0
    6.6642   -0.0128   19.8901 C   0  0  0  0  0  0  0  0  0  0  0  0
    7.3313   -0.7221   20.9387 N   0  0  0  0  0  0  0  0  0  0  0  0
    6.7108   -1.6984   21.7265 C   0  0  0  0  0  0  0  0  0  0  0  0
    5.6716   -1.9576   21.6173 H   0  0  0  0  0  0  0  0  0  0  0  0
    7.6276   -2.1437   22.6132 C   0  0  0  0  0  0  0  0  0  0  0  0
    7.5414   -3.0277   23.6418 N   0  0  0  0  0  0  0  0  0  0  0  0
    6.2200   -3.3559   24.1925 C   0  0  0  0  0  0  0  0  0  0  0  0
    5.5249   -2.5318   23.9939 H   0  0  0  0  0  0  0  0  0  0  0  0
    5.8109   -4.2617   23.7168 H   0  0  0  0  0  0  0  0  0  0  0  0
    6.2880   -3.5734   25.7097 C   0  0  0  0  0  0  0  0  0  0  0  0
    6.4924   -2.6110   26.2068 H   0  0  0  0  0  0  0  0  0  0  0  0
    5.2975   -3.9015   26.0475 H   0  0  0  0  0  0  0  0  0  0  0  0
    7.2880   -4.5771   26.0828 N   0  0  0  0  0  0  0  0  0  0  0  0
    7.2295   -5.1848   27.3285 C   0  0  0  0  0  0  0  0  0  0  0  0
    6.4706   -4.6147   28.3733 C   0  0  0  0  0  0  0  0  0  0  0  0
    5.9398   -3.6913   28.1807 H   0  0  0  0  0  0  0  0  0  0  0  0
    6.4263   -5.1960   29.6411 C   0  0  0  0  0  0  0  0  0  0  0  0
    5.8723   -4.6908   30.4346 H   0  0  0  0  0  0  0  0  0  0  0  0
    7.0935   -6.4024   29.8772 C   0  0  0  0  0  0  0  0  0  0  0  0
    7.0618   -6.8605   30.8608 H   0  0  0  0  0  0  0  0  0  0  0  0
    7.8227   -7.0033   28.8450 C   0  0  0  0  0  0  0  0  0  0  0  0
    8.3388   -7.9500   29.0211 H   0  0  0  0  0  0  0  0  0  0  0  0
    7.9179   -6.3853   27.5945 C   0  0  0  0  0  0  0  0  0  0  0  0
    8.5270   -6.8137   26.8096 H   0  0  0  0  0  0  0  0  0  0  0  0
    8.3218   -4.8814   25.0890 C   0  0  0  0  0  0  0  0  0  0  0  0
    7.9828   -5.6649   24.3925 H   0  0  0  0  0  0  0  0  0  0  0  0
    9.2210   -5.2539   25.5848 H   0  0  0  0  0  0  0  0  0  0  0  0
    8.7176   -3.6325   24.2757 C   0  0  0  0  0  0  0  0  0  0  0  0
    9.2196   -2.9179   24.9491 H   0  0  0  0  0  0  0  0  0  0  0  0
    9.4448   -3.9305   23.5067 H   0  0  0  0  0  0  0  0  0  0  0  0
    8.7994   -1.4605   22.3522 N   0  0  0  0  0  0  0  0  0  0  0  0
    9.6028   -1.4583   22.9473 H   0  0  0  0  0  0  0  0  0  0  0  0
    8.6223   -0.5162   21.3842 C   0  0  0  0  0  0  0  0  0  0  0  0
    9.7234    0.6388   20.9263 S   0  0  0  0  0  0  0  0  0  0  0  0
    5.4576    0.6509   20.1456 C   0  0  0  0  0  0  0  0  0  0  0  0
    5.0310    0.6499   21.1514 H   0  0  0  0  0  0  0  0  0  0  0  0
    4.8329    1.3196   19.0886 C   0  0  0  0  0  0  0  0  0  0  0  0
    3.9001    1.8553   19.2363 H   0  0  0  0  0  0  0  0  0  0  0  0
  1  2  1  0
  2  3  2  0
  3  4  1  0
  4  5  1  0
  4  6  2  0
  6  7  1  0
  7  8  1  0
  8  9  1  0
  8 10  2  0
 10 11  1  0
 11 12  1  0
 12 13  1  0
 12 14  1  0
 12 15  1  0
 15 16  1  0
 15 17  1  0
 15 18  1  0
 18 19  1  0
 19 20  2  0
 20 21  1  0
 20 22  1  0
 22 23  1  0
 22 24  2  0
 24 25  1  0
 24 26  1  0
 26 27  1  0
 26 28  2  0
 28 29  1  0
 18 30  1  0
 30 31  1  0
 30 32  1  0
 30 33  1  0
 33 34  1  0
 33 35  1  0
 10 36  1  0
 36 37  1  0
 36 38  1  0
 38 39  2  0
  6 40  1  0
 40 41  1  0
 40 42  2  0
 42 43  1  0
 42  2  1  0
 38  7  1  0
 33 11  1  0
 28 19  1  0
M  END
>  <cnnaffinity>  (1) 
-5.55362

>  <filename>  (1) 
S=c1[nH]c(N2CCN(c3ccccc3)CC2)cn1-c1cccnc1

$$$$
