
     RDKit          3D

 28 30  0  0  0  0  0  0  0  0999 V2000
    4.9320    1.8290   16.9840 H   0  0  0  0  0  0  0  0  0  0  0  0
    5.4102    1.3122   17.8135 C   0  0  0  0  0  0  0  0  0  0  0  0
    6.5706    0.6945   17.5425 N   0  0  0  0  0  0  0  0  0  0  0  0
    7.1807    0.0533   18.5436 C   0  0  0  0  0  0  0  0  0  0  0  0
    8.1201   -0.4484   18.3188 H   0  0  0  0  0  0  0  0  0  0  0  0
    6.6633   -0.0222   19.8484 C   0  0  0  0  0  0  0  0  0  0  0  0
    7.3853   -0.7142   20.8585 N   0  0  0  0  0  0  0  0  0  0  0  0
    8.7188   -0.4323   21.2119 C   0  0  0  0  0  0  0  0  0  0  0  0
    9.3262    0.2703   20.6623 H   0  0  0  0  0  0  0  0  0  0  0  0
    9.0046   -1.2216   22.2690 C   0  0  0  0  0  0  0  0  0  0  0  0
   10.1352   -1.4811   22.9905 N   0  0  0  0  0  0  0  0  0  0  0  0
   10.9875   -1.0753   22.6445 H   0  0  0  0  0  0  0  0  0  0  0  0
   10.2401   -2.5053   23.9862 C   0  0  0  0  0  0  0  0  0  0  0  0
   10.0467   -2.1882   25.0136 H   0  0  0  0  0  0  0  0  0  0  0  0
   11.2907   -3.5415   23.7283 C   0  0  0  0  0  0  0  0  0  0  0  0
   11.8372   -3.9992   24.5481 H   0  0  0  0  0  0  0  0  0  0  0  0
   11.8869   -3.3535   22.8435 H   0  0  0  0  0  0  0  0  0  0  0  0
    9.8500   -3.9037   23.5896 C   0  0  0  0  0  0  0  0  0  0  0  0
    9.4198   -4.5170   24.3691 H   0  0  0  0  0  0  0  0  0  0  0  0
    9.4202   -4.0186   22.5987 H   0  0  0  0  0  0  0  0  0  0  0  0
    7.8603   -1.9206   22.5762 N   0  0  0  0  0  0  0  0  0  0  0  0
    7.8055   -2.6767   23.2300 H   0  0  0  0  0  0  0  0  0  0  0  0
    6.8931   -1.7352   21.6414 C   0  0  0  0  0  0  0  0  0  0  0  0
    5.5418   -2.6888   21.4871 S   0  0  0  0  0  0  0  0  0  0  0  0
    5.4453    0.6054   20.1251 C   0  0  0  0  0  0  0  0  0  0  0  0
    5.0272    0.5722   21.1325 H   0  0  0  0  0  0  0  0  0  0  0  0
    4.8198    1.2936   19.0827 C   0  0  0  0  0  0  0  0  0  0  0  0
    3.8936    1.8260   19.2434 H   0  0  0  0  0  0  0  0  0  0  0  0
  1  2  1  0
  2  3  2  0
  3  4  1  0
  4  5  1  0
  4  6  2  0
  6  7  1  0
  7  8  1  0
  8  9  1  0
  8 10  2  0
 10 11  1  0
 11 12  1  0
 11 13  1  0
 13 14  1  0
 13 15  1  0
 15 16  1  0
 15 17  1  0
 15 18  1  0
 18 19  1  0
 18 20  1  0
 10 21  1  0
 21 22  1  0
 21 23  1  0
 23 24  2  0
  6 25  1  0
 25 26  1  0
 25 27  2  0
 27 28  1  0
 27  2  1  0
 23  7  1  0
 18 13  1  0
M  END
>  <cnnaffinity>  (1) 
-5.05984

>  <filename>  (1) 
S=c1[nH]c(NC2CC2)cn1-c1cccnc1

$$$$
