
     RDKit          3D

 31 33  0  0  0  0  0  0  0  0999 V2000
    4.9203    1.7793   16.9952 H   0  0  0  0  0  0  0  0  0  0  0  0
    5.4040    1.2954   17.8373 C   0  0  0  0  0  0  0  0  0  0  0  0
    6.5656    0.6727   17.5770 N   0  0  0  0  0  0  0  0  0  0  0  0
    7.1674    0.0610   18.6014 C   0  0  0  0  0  0  0  0  0  0  0  0
    8.1147   -0.4352   18.3819 H   0  0  0  0  0  0  0  0  0  0  0  0
    6.6381    0.0215   19.8973 C   0  0  0  0  0  0  0  0  0  0  0  0
    7.2879   -0.7355   20.9501 C   0  0  0  0  0  0  0  0  0  0  0  0
    6.6744   -1.6196   21.6803 N   0  0  0  0  0  0  0  0  0  0  0  0
    7.6535   -2.0985   22.4891 N   0  0  0  0  0  0  0  0  0  0  0  0
    7.4894   -2.8252   23.1620 H   0  0  0  0  0  0  0  0  0  0  0  0
    8.8668   -1.5513   22.2950 C   0  0  0  0  0  0  0  0  0  0  0  0
   10.2723   -1.9681   23.0801 S   0  0  0  0  0  0  0  0  0  0  0  0
    8.6188   -0.6383   21.2898 N   0  0  0  0  0  0  0  0  0  0  0  0
    9.6268    0.2891   20.7837 C   0  0  0  0  0  0  0  0  0  0  0  0
    9.1821    0.9389   20.0270 H   0  0  0  0  0  0  0  0  0  0  0  0
   10.3960   -0.3266   20.3192 H   0  0  0  0  0  0  0  0  0  0  0  0
   10.2621    1.1761   21.8402 C   0  0  0  0  0  0  0  0  0  0  0  0
   11.6211    1.0330   22.1703 C   0  0  0  0  0  0  0  0  0  0  0  0
   12.2124    0.2727   21.6649 H   0  0  0  0  0  0  0  0  0  0  0  0
   12.2149    1.7957   23.1775 C   0  0  0  0  0  0  0  0  0  0  0  0
   13.2610    1.6429   23.4332 H   0  0  0  0  0  0  0  0  0  0  0  0
   11.4543    2.7495   23.8556 C   0  0  0  0  0  0  0  0  0  0  0  0
   11.9034    3.3562   24.6339 H   0  0  0  0  0  0  0  0  0  0  0  0
   10.1113    2.9409   23.5285 C   0  0  0  0  0  0  0  0  0  0  0  0
    9.5100    3.6880   24.0372 H   0  0  0  0  0  0  0  0  0  0  0  0
    9.5328    2.1633   22.5213 C   0  0  0  0  0  0  0  0  0  0  0  0
    7.8642    2.4672   22.1301 Cl  0  0  0  0  0  0  0  0  0  0  0  0
    5.4207    0.6633   20.1551 C   0  0  0  0  0  0  0  0  0  0  0  0
    4.9943    0.6281   21.1613 H   0  0  0  0  0  0  0  0  0  0  0  0
    4.8035    1.3242   19.1003 C   0  0  0  0  0  0  0  0  0  0  0  0
    3.8706    1.8496   19.2541 H   0  0  0  0  0  0  0  0  0  0  0  0
  1  2  1  0
  2  3  2  0
  3  4  1  0
  4  5  1  0
  4  6  2  0
  6  7  1  0
  7  8  2  0
  8  9  1  0
  9 10  1  0
  9 11  1  0
 11 12  2  0
 11 13  1  0
 13 14  1  0
 14 15  1  0
 14 16  1  0
 14 17  1  0
 17 18  2  0
 18 19  1  0
 18 20  1  0
 20 21  1  0
 20 22  2  0
 22 23  1  0
 22 24  1  0
 24 25  1  0
 24 26  2  0
 26 27  1  0
  6 28  1  0
 28 29  1  0
 28 30  2  0
 30 31  1  0
 30  2  1  0
 13  7  1  0
 26 17  1  0
M  END
>  <cnnaffinity>  (1) 
-5.7265

>  <filename>  (1) 
S=c1[nH]nc(-c2cccnc2)n1Cc1ccccc1Cl

$$$$
