
     RDKit          3D

 31 34  0  0  0  0  0  0  0  0999 V2000
    4.9239    1.8020   16.9682 H   0  0  0  0  0  0  0  0  0  0  0  0
    5.3953    1.3031   17.8160 C   0  0  0  0  0  0  0  0  0  0  0  0
    6.5601    0.6827   17.5665 N   0  0  0  0  0  0  0  0  0  0  0  0
    7.1728    0.0688   18.5878 C   0  0  0  0  0  0  0  0  0  0  0  0
    8.1083   -0.4239   18.3277 H   0  0  0  0  0  0  0  0  0  0  0  0
    6.6664    0.0180   19.9009 C   0  0  0  0  0  0  0  0  0  0  0  0
    7.3300   -0.7060   20.9941 C   0  0  0  0  0  0  0  0  0  0  0  0
    6.8021   -1.2358   22.1113 C   0  0  0  0  0  0  0  0  0  0  0  0
    5.7745   -1.2967   22.3876 H   0  0  0  0  0  0  0  0  0  0  0  0
    7.8312   -1.8161   22.8581 N   0  0  0  0  0  0  0  0  0  0  0  0
    7.7217   -2.4649   24.0766 C   0  0  0  0  0  0  0  0  0  0  0  0
    8.6615   -3.0028   24.7602 N   0  0  0  0  0  0  0  0  0  0  0  0
    8.0038   -3.5069   25.8775 C   0  0  0  0  0  0  0  0  0  0  0  0
    8.4974   -4.2099   26.9782 C   0  0  0  0  0  0  0  0  0  0  0  0
    9.5583   -4.4222   27.0412 H   0  0  0  0  0  0  0  0  0  0  0  0
    7.5871   -4.6151   27.9516 C   0  0  0  0  0  0  0  0  0  0  0  0
    7.9397   -5.1862   28.7995 H   0  0  0  0  0  0  0  0  0  0  0  0
    6.2203   -4.3048   27.8407 C   0  0  0  0  0  0  0  0  0  0  0  0
    5.5527   -4.6215   28.6342 H   0  0  0  0  0  0  0  0  0  0  0  0
    5.7141   -3.5978   26.7431 C   0  0  0  0  0  0  0  0  0  0  0  0
    4.6582   -3.3677   26.6617 H   0  0  0  0  0  0  0  0  0  0  0  0
    6.6382   -3.2203   25.7771 C   0  0  0  0  0  0  0  0  0  0  0  0
    6.4604   -2.5401   24.5950 O   0  0  0  0  0  0  0  0  0  0  0  0
    9.0349   -1.6504   22.1895 C   0  0  0  0  0  0  0  0  0  0  0  0
   10.5874   -2.0658   22.5220 S   0  0  0  0  0  0  0  0  0  0  0  0
    8.6813   -0.9925   21.0516 N   0  0  0  0  0  0  0  0  0  0  0  0
    9.4185   -0.7007   20.4332 H   0  0  0  0  0  0  0  0  0  0  0  0
    5.4407    0.6683   20.1330 C   0  0  0  0  0  0  0  0  0  0  0  0
    5.0074    0.6687   21.1326 H   0  0  0  0  0  0  0  0  0  0  0  0
    4.7999    1.3219   19.0814 C   0  0  0  0  0  0  0  0  0  0  0  0
    3.8647    1.8517   19.2281 H   0  0  0  0  0  0  0  0  0  0  0  0
  1  2  1  0
  2  3  2  0
  3  4  1  0
  4  5  1  0
  4  6  2  0
  6  7  1  0
  7  8  2  0
  8  9  1  0
  8 10  1  0
 10 11  1  0
 11 12  2  0
 12 13  1  0
 13 14  2  0
 14 15  1  0
 14 16  1  0
 16 17  1  0
 16 18  2  0
 18 19  1  0
 18 20  1  0
 20 21  1  0
 20 22  2  0
 22 23  1  0
 10 24  1  0
 24 25  2  0
 24 26  1  0
 26 27  1  0
  6 28  1  0
 28 29  1  0
 28 30  2  0
 30 31  1  0
 30  2  1  0
 26  7  1  0
 23 11  1  0
 22 13  1  0
M  END
>  <cnnaffinity>  (1) 
-5.31688

>  <filename>  (1) 
S=c1[nH]c(-c2cccnc2)cn1-c1nc2ccccc2o1

$$$$
