
     RDKit          3D

 33 35  0  0  0  0  0  0  0  0999 V2000
    5.1614    1.8815   16.7785 H   0  0  0  0  0  0  0  0  0  0  0  0
    5.4743    1.3564   17.6782 C   0  0  0  0  0  0  0  0  0  0  0  0
    6.6144    0.6518   17.5887 N   0  0  0  0  0  0  0  0  0  0  0  0
    7.0265   -0.0037   18.6828 C   0  0  0  0  0  0  0  0  0  0  0  0
    7.9575   -0.5653   18.6196 H   0  0  0  0  0  0  0  0  0  0  0  0
    6.3200    0.0060   19.8987 C   0  0  0  0  0  0  0  0  0  0  0  0
    6.8000   -0.6794   21.0567 N   0  0  0  0  0  0  0  0  0  0  0  0
    7.3620    0.0004   22.1417 C   0  0  0  0  0  0  0  0  0  0  0  0
    7.6560    1.0326   22.0716 H   0  0  0  0  0  0  0  0  0  0  0  0
    7.4707   -0.8937   23.1457 C   0  0  0  0  0  0  0  0  0  0  0  0
    7.9371   -0.8271   24.4496 N   0  0  0  0  0  0  0  0  0  0  0  0
    8.0587    0.1463   24.6884 H   0  0  0  0  0  0  0  0  0  0  0  0
    9.1738   -1.5701   24.7203 C   0  0  0  0  0  0  0  0  0  0  0  0
    8.9545   -2.6409   24.6615 H   0  0  0  0  0  0  0  0  0  0  0  0
    9.4513   -1.3832   25.7678 H   0  0  0  0  0  0  0  0  0  0  0  0
   10.3040   -1.2159   23.7839 C   0  0  0  0  0  0  0  0  0  0  0  0
   10.6940    0.1297   23.6637 C   0  0  0  0  0  0  0  0  0  0  0  0
   10.1637    0.9109   24.2091 H   0  0  0  0  0  0  0  0  0  0  0  0
   11.7230    0.5472   22.9181 N   0  0  0  0  0  0  0  0  0  0  0  0
   12.3778   -0.3770   22.2064 C   0  0  0  0  0  0  0  0  0  0  0  0
   13.2510   -0.0377   21.6591 H   0  0  0  0  0  0  0  0  0  0  0  0
   11.9926   -1.7182   22.1503 C   0  0  0  0  0  0  0  0  0  0  0  0
   12.5010   -2.3737   21.4545 H   0  0  0  0  0  0  0  0  0  0  0  0
   10.9530   -2.1616   22.9718 C   0  0  0  0  0  0  0  0  0  0  0  0
   10.6678   -3.2183   23.0122 H   0  0  0  0  0  0  0  0  0  0  0  0
    7.0141   -2.0891   22.6765 N   0  0  0  0  0  0  0  0  0  0  0  0
    6.7593   -2.8520   23.2676 H   0  0  0  0  0  0  0  0  0  0  0  0
    6.5449   -1.9919   21.4035 C   0  0  0  0  0  0  0  0  0  0  0  0
    5.8352   -3.2302   20.5534 S   0  0  0  0  0  0  0  0  0  0  0  0
    5.1319    0.7379   19.9842 C   0  0  0  0  0  0  0  0  0  0  0  0
    4.5752    0.7639   20.9220 H   0  0  0  0  0  0  0  0  0  0  0  0
    4.7018    1.4193   18.8436 C   0  0  0  0  0  0  0  0  0  0  0  0
    3.7953    2.0099   18.8511 H   0  0  0  0  0  0  0  0  0  0  0  0
  1  2  1  0
  2  3  2  0
  3  4  1  0
  4  5  1  0
  4  6  2  0
  6  7  1  0
  7  8  1  0
  8  9  1  0
  8 10  2  0
 10 11  1  0
 11 12  1  0
 11 13  1  0
 13 14  1  0
 13 15  1  0
 13 16  1  0
 16 17  2  0
 17 18  1  0
 17 19  1  0
 19 20  2  0
 20 21  1  0
 20 22  1  0
 22 23  1  0
 22 24  2  0
 24 25  1  0
 10 26  1  0
 26 27  1  0
 26 28  1  0
 28 29  2  0
  6 30  1  0
 30 31  1  0
 30 32  2  0
 32 33  1  0
 32  2  1  0
 28  7  1  0
 24 16  1  0
M  END
>  <cnnaffinity>  (1) 
-5.54967

>  <filename>  (1) 
S=c1[nH]c(NCc2cccnc2)cn1-c1cccnc1

$$$$
