
     RDKit          3D

 31 33  0  0  0  0  0  0  0  0999 V2000
    4.9772    1.8906   17.0011 H   0  0  0  0  0  0  0  0  0  0  0  0
    5.4244    1.3129   17.8074 C   0  0  0  0  0  0  0  0  0  0  0  0
    6.5783    0.6915   17.5104 N   0  0  0  0  0  0  0  0  0  0  0  0
    7.1906    0.0062   18.4815 C   0  0  0  0  0  0  0  0  0  0  0  0
    8.1305   -0.4911   18.2226 H   0  0  0  0  0  0  0  0  0  0  0  0
    6.6741   -0.1002   19.7890 C   0  0  0  0  0  0  0  0  0  0  0  0
    7.4074   -0.7843   20.8057 N   0  0  0  0  0  0  0  0  0  0  0  0
    8.7336   -0.4555   21.1298 C   0  0  0  0  0  0  0  0  0  0  0  0
    9.2110    0.4040   20.6930 H   0  0  0  0  0  0  0  0  0  0  0  0
    9.1308   -1.3307   22.0769 C   0  0  0  0  0  0  0  0  0  0  0  0
   10.3087   -1.6494   22.7293 N   0  0  0  0  0  0  0  0  0  0  0  0
   10.1309   -1.6789   23.7285 H   0  0  0  0  0  0  0  0  0  0  0  0
   11.4834   -0.8470   22.4131 C   0  0  0  0  0  0  0  0  0  0  0  0
   11.5475   -0.7686   21.3201 H   0  0  0  0  0  0  0  0  0  0  0  0
   12.3794   -1.3990   22.7277 H   0  0  0  0  0  0  0  0  0  0  0  0
   11.4356    0.5383   23.0252 C   0  0  0  0  0  0  0  0  0  0  0  0
   10.5499    1.0820   22.6976 H   0  0  0  0  0  0  0  0  0  0  0  0
   12.6777    1.3626   23.2129 C   0  0  0  0  0  0  0  0  0  0  0  0
   12.6567    2.4107   22.9235 H   0  0  0  0  0  0  0  0  0  0  0  0
   13.6417    0.8868   23.0375 H   0  0  0  0  0  0  0  0  0  0  0  0
   11.8941    0.9048   24.4165 C   0  0  0  0  0  0  0  0  0  0  0  0
   12.3444    0.1549   25.0681 H   0  0  0  0  0  0  0  0  0  0  0  0
   11.3063    1.6472   24.9545 H   0  0  0  0  0  0  0  0  0  0  0  0
    8.0504   -2.1146   22.3793 N   0  0  0  0  0  0  0  0  0  0  0  0
    8.0691   -2.9173   22.9799 H   0  0  0  0  0  0  0  0  0  0  0  0
    6.9909   -1.8606   21.5613 C   0  0  0  0  0  0  0  0  0  0  0  0
    5.6026   -2.7680   21.4700 S   0  0  0  0  0  0  0  0  0  0  0  0
    5.4499    0.5133   20.0828 C   0  0  0  0  0  0  0  0  0  0  0  0
    5.0207    0.4146   21.0817 H   0  0  0  0  0  0  0  0  0  0  0  0
    4.8231    1.2490   19.0699 C   0  0  0  0  0  0  0  0  0  0  0  0
    3.8989    1.7900   19.2483 H   0  0  0  0  0  0  0  0  0  0  0  0
  1  2  1  0
  2  3  2  0
  3  4  1  0
  4  5  1  0
  4  6  2  0
  6  7  1  0
  7  8  1  0
  8  9  1  0
  8 10  2  0
 10 11  1  0
 11 12  1  0
 11 13  1  0
 13 14  1  0
 13 15  1  0
 13 16  1  0
 16 17  1  0
 16 18  1  0
 18 19  1  0
 18 20  1  0
 18 21  1  0
 21 22  1  0
 21 23  1  0
 10 24  1  0
 24 25  1  0
 24 26  1  0
 26 27  2  0
  6 28  1  0
 28 29  1  0
 28 30  2  0
 30 31  1  0
 30  2  1  0
 26  7  1  0
 21 16  1  0
M  END
>  <cnnaffinity>  (1) 
-5.14577

>  <filename>  (1) 
S=c1[nH]c(NCC2CC2)cn1-c1cccnc1

$$$$
