
     RDKit          3D

 30 32  0  0  0  0  0  0  0  0999 V2000
    5.0169   -4.3617   28.5148 H   0  0  0  0  0  0  0  0  0  0  0  0
    6.0175   -4.3577   28.0939 C   0  0  0  0  0  0  0  0  0  0  0  0
    6.1354   -3.7108   26.9321 N   0  0  0  0  0  0  0  0  0  0  0  0
    7.3572   -3.6626   26.3786 C   0  0  0  0  0  0  0  0  0  0  0  0
    7.4626   -2.9784   25.1194 C   0  0  0  0  0  0  0  0  0  0  0  0
    7.6423   -2.4371   24.0585 C   0  0  0  0  0  0  0  0  0  0  0  0
    7.8414   -1.8172   22.8590 N   0  0  0  0  0  0  0  0  0  0  0  0
    6.8260   -1.2361   22.1221 C   0  0  0  0  0  0  0  0  0  0  0  0
    5.8140   -1.3170   22.4430 H   0  0  0  0  0  0  0  0  0  0  0  0
    7.3437   -0.7086   20.9984 C   0  0  0  0  0  0  0  0  0  0  0  0
    6.6703    0.0131   19.9072 C   0  0  0  0  0  0  0  0  0  0  0  0
    7.1711    0.0668   18.5912 C   0  0  0  0  0  0  0  0  0  0  0  0
    8.1068   -0.4232   18.3270 H   0  0  0  0  0  0  0  0  0  0  0  0
    6.5593    0.6818   17.5692 N   0  0  0  0  0  0  0  0  0  0  0  0
    5.3940    1.3029   17.8172 C   0  0  0  0  0  0  0  0  0  0  0  0
    4.9238    1.8038   16.9666 H   0  0  0  0  0  0  0  0  0  0  0  0
    4.8008    1.3191   19.0845 C   0  0  0  0  0  0  0  0  0  0  0  0
    3.8650    1.8514   19.2272 H   0  0  0  0  0  0  0  0  0  0  0  0
    5.4446    0.6635   20.1361 C   0  0  0  0  0  0  0  0  0  0  0  0
    5.0113    0.6638   21.1342 H   0  0  0  0  0  0  0  0  0  0  0  0
    8.6972   -0.9993   21.0480 N   0  0  0  0  0  0  0  0  0  0  0  0
    9.4297   -0.7066   20.4242 H   0  0  0  0  0  0  0  0  0  0  0  0
    9.0473   -1.6581   22.1878 C   0  0  0  0  0  0  0  0  0  0  0  0
   10.5939   -2.1020   22.5613 S   0  0  0  0  0  0  0  0  0  0  0  0
    8.4920   -4.2585   26.9591 C   0  0  0  0  0  0  0  0  0  0  0  0
    9.4593   -4.1549   26.4846 H   0  0  0  0  0  0  0  0  0  0  0  0
    8.3404   -4.9682   28.1443 C   0  0  0  0  0  0  0  0  0  0  0  0
    9.2003   -5.4735   28.5799 H   0  0  0  0  0  0  0  0  0  0  0  0
    7.0781   -4.9928   28.7480 C   0  0  0  0  0  0  0  0  0  0  0  0
    6.8958   -5.4524   29.7132 H   0  0  0  0  0  0  0  0  0  0  0  0
  1  2  1  0
  2  3  2  0
  3  4  1  0
  4  5  1  0
  5  6  3  0
  6  7  1  0
  7  8  1  0
  8  9  1  0
  8 10  2  0
 10 11  1  0
 11 12  2  0
 12 13  1  0
 12 14  1  0
 14 15  2  0
 15 16  1  0
 15 17  1  0
 17 18  1  0
 17 19  2  0
 19 20  1  0
 10 21  1  0
 21 22  1  0
 21 23  1  0
 23 24  2  0
  4 25  2  0
 25 26  1  0
 25 27  1  0
 27 28  1  0
 27 29  2  0
 29 30  1  0
 29  2  1  0
 23  7  1  0
 19 11  1  0
M  END
>  <cnnaffinity>  (1) 
-5.44339

>  <filename>  (1) 
S=c1[nH]c(-c2cccnc2)cn1C#Cc1ccccn1

$$$$
