
     RDKit          3D

 31 33  0  0  0  0  0  0  0  0999 V2000
    4.9771    1.8716   17.0151 H   0  0  0  0  0  0  0  0  0  0  0  0
    5.4362    1.3052   17.8186 C   0  0  0  0  0  0  0  0  0  0  0  0
    6.5928    0.6905   17.5142 N   0  0  0  0  0  0  0  0  0  0  0  0
    7.1917    0.0058   18.4945 C   0  0  0  0  0  0  0  0  0  0  0  0
    8.1386   -0.4814   18.2550 H   0  0  0  0  0  0  0  0  0  0  0  0
    6.6601   -0.1222   19.7931 C   0  0  0  0  0  0  0  0  0  0  0  0
    7.3849   -0.8358   20.7910 N   0  0  0  0  0  0  0  0  0  0  0  0
    8.6889   -0.4865   21.1401 C   0  0  0  0  0  0  0  0  0  0  0  0
    9.2161    0.3218   20.6710 H   0  0  0  0  0  0  0  0  0  0  0  0
    9.0784   -1.3284   22.1104 C   0  0  0  0  0  0  0  0  0  0  0  0
   10.2244   -1.4792   22.8520 N   0  0  0  0  0  0  0  0  0  0  0  0
   10.4461   -2.4555   22.9840 H   0  0  0  0  0  0  0  0  0  0  0  0
   11.3493   -0.6576   22.6363 C   0  0  0  0  0  0  0  0  0  0  0  0
   12.5912   -1.2588   22.4019 C   0  0  0  0  0  0  0  0  0  0  0  0
   12.6396   -2.3353   22.2561 H   0  0  0  0  0  0  0  0  0  0  0  0
   13.7515   -0.4834   22.3813 C   0  0  0  0  0  0  0  0  0  0  0  0
   14.7116   -0.9705   22.2563 H   0  0  0  0  0  0  0  0  0  0  0  0
   13.6743    0.9026   22.5383 C   0  0  0  0  0  0  0  0  0  0  0  0
   14.5783    1.5066   22.5650 H   0  0  0  0  0  0  0  0  0  0  0  0
   12.4220    1.5132   22.6669 C   0  0  0  0  0  0  0  0  0  0  0  0
   12.3423    2.5937   22.7208 H   0  0  0  0  0  0  0  0  0  0  0  0
   11.2554    0.7394   22.7098 C   0  0  0  0  0  0  0  0  0  0  0  0
   10.2690    1.1885   22.7950 H   0  0  0  0  0  0  0  0  0  0  0  0
    8.0404   -2.1998   22.3347 N   0  0  0  0  0  0  0  0  0  0  0  0
    7.9395   -2.7531   23.1637 H   0  0  0  0  0  0  0  0  0  0  0  0
    6.9559   -1.9025   21.5552 C   0  0  0  0  0  0  0  0  0  0  0  0
    5.5204   -2.7394   21.5179 S   0  0  0  0  0  0  0  0  0  0  0  0
    5.4497    0.5112   20.0999 C   0  0  0  0  0  0  0  0  0  0  0  0
    5.0326    0.4497   21.1074 H   0  0  0  0  0  0  0  0  0  0  0  0
    4.8321    1.2486   19.0826 C   0  0  0  0  0  0  0  0  0  0  0  0
    3.9148    1.8002   19.2700 H   0  0  0  0  0  0  0  0  0  0  0  0
  1  2  1  0
  2  3  2  0
  3  4  1  0
  4  5  1  0
  4  6  2  0
  6  7  1  0
  7  8  1  0
  8  9  1  0
  8 10  2  0
 10 11  1  0
 11 12  1  0
 11 13  1  0
 13 14  2  0
 14 15  1  0
 14 16  1  0
 16 17  1  0
 16 18  2  0
 18 19  1  0
 18 20  1  0
 20 21  1  0
 20 22  2  0
 22 23  1  0
 10 24  1  0
 24 25  1  0
 24 26  1  0
 26 27  2  0
  6 28  1  0
 28 29  1  0
 28 30  2  0
 30 31  1  0
 30  2  1  0
 26  7  1  0
 22 13  1  0
M  END
>  <cnnaffinity>  (1) 
-4.97163

>  <filename>  (1) 
S=c1[nH]c(Nc2ccccc2)cn1-c1cccnc1

$$$$
