
     RDKit          3D

 33 35  0  0  0  0  0  0  0  0999 V2000
    4.9361    1.8033   16.9811 H   0  0  0  0  0  0  0  0  0  0  0  0
    5.3960    1.3031   17.8325 C   0  0  0  0  0  0  0  0  0  0  0  0
    6.5575    0.6779   17.5848 N   0  0  0  0  0  0  0  0  0  0  0  0
    7.1543    0.0556   18.6050 C   0  0  0  0  0  0  0  0  0  0  0  0
    8.0960   -0.4387   18.3710 H   0  0  0  0  0  0  0  0  0  0  0  0
    6.6360    0.0369   19.9096 C   0  0  0  0  0  0  0  0  0  0  0  0
    7.3439   -0.7073   20.9408 C   0  0  0  0  0  0  0  0  0  0  0  0
    7.8987   -1.8659   20.7380 N   0  0  0  0  0  0  0  0  0  0  0  0
    8.4155   -2.1918   21.9526 N   0  0  0  0  0  0  0  0  0  0  0  0
    8.9111   -3.0531   22.1305 H   0  0  0  0  0  0  0  0  0  0  0  0
    8.2446   -1.2545   22.8995 C   0  0  0  0  0  0  0  0  0  0  0  0
    8.8477   -1.2765   24.4439 S   0  0  0  0  0  0  0  0  0  0  0  0
    7.5170   -0.2962   22.2413 N   0  0  0  0  0  0  0  0  0  0  0  0
    7.2589    1.0085   22.7918 C   0  0  0  0  0  0  0  0  0  0  0  0
    7.1725    1.7374   21.9716 H   0  0  0  0  0  0  0  0  0  0  0  0
    8.1343    1.2778   23.4049 H   0  0  0  0  0  0  0  0  0  0  0  0
    6.0525    0.9402   23.5512 N   0  0  0  0  0  0  0  0  0  0  0  0
    5.6648    0.0213   23.7064 H   0  0  0  0  0  0  0  0  0  0  0  0
    5.4934    1.9991   24.2470 C   0  0  0  0  0  0  0  0  0  0  0  0
    4.3119    1.7902   24.9784 C   0  0  0  0  0  0  0  0  0  0  0  0
    3.8911    0.7913   25.0074 H   0  0  0  0  0  0  0  0  0  0  0  0
    3.6989    2.8487   25.6545 C   0  0  0  0  0  0  0  0  0  0  0  0
    2.7821    2.6732   26.2118 H   0  0  0  0  0  0  0  0  0  0  0  0
    4.2529    4.1335   25.6226 C   0  0  0  0  0  0  0  0  0  0  0  0
    3.7726    4.9578   26.1472 H   0  0  0  0  0  0  0  0  0  0  0  0
    5.4349    4.3446   24.9067 C   0  0  0  0  0  0  0  0  0  0  0  0
    5.8793    5.3373   24.8681 H   0  0  0  0  0  0  0  0  0  0  0  0
    6.0537    3.2918   24.2275 C   0  0  0  0  0  0  0  0  0  0  0  0
    6.9710    3.4593   23.6741 H   0  0  0  0  0  0  0  0  0  0  0  0
    5.4200    0.6838   20.1542 C   0  0  0  0  0  0  0  0  0  0  0  0
    4.9992    0.6722   21.1608 H   0  0  0  0  0  0  0  0  0  0  0  0
    4.7864    1.3260   19.0916 C   0  0  0  0  0  0  0  0  0  0  0  0
    3.8534    1.8547   19.2326 H   0  0  0  0  0  0  0  0  0  0  0  0
  1  2  1  0
  2  3  2  0
  3  4  1  0
  4  5  1  0
  4  6  2  0
  6  7  1  0
  7  8  2  0
  8  9  1  0
  9 10  1  0
  9 11  1  0
 11 12  2  0
 11 13  1  0
 13 14  1  0
 14 15  1  0
 14 16  1  0
 14 17  1  0
 17 18  1  0
 17 19  1  0
 19 20  2  0
 20 21  1  0
 20 22  1  0
 22 23  1  0
 22 24  2  0
 24 25  1  0
 24 26  1  0
 26 27  1  0
 26 28  2  0
 28 29  1  0
  6 30  1  0
 30 31  1  0
 30 32  2  0
 32 33  1  0
 32  2  1  0
 13  7  1  0
 28 19  1  0
M  END
>  <cnnaffinity>  (1) 
-4.925

>  <filename>  (1) 
S=c1[nH]nc(-c2cccnc2)n1CNc1ccccc1

$$$$
