
     RDKit          3D

 34 36  0  0  0  0  0  0  0  0999 V2000
    5.0031    1.8691   16.9966 H   0  0  0  0  0  0  0  0  0  0  0  0
    5.4424    1.3038   17.8162 C   0  0  0  0  0  0  0  0  0  0  0  0
    6.6038    0.6888   17.5406 N   0  0  0  0  0  0  0  0  0  0  0  0
    7.2039    0.0197   18.5292 C   0  0  0  0  0  0  0  0  0  0  0  0
    8.1548   -0.4640   18.2951 H   0  0  0  0  0  0  0  0  0  0  0  0
    6.6619   -0.0950   19.8242 C   0  0  0  0  0  0  0  0  0  0  0  0
    7.3840   -0.7979   20.8282 N   0  0  0  0  0  0  0  0  0  0  0  0
    8.7255   -0.5143   21.1025 C   0  0  0  0  0  0  0  0  0  0  0  0
    9.2078    0.3570   20.6955 H   0  0  0  0  0  0  0  0  0  0  0  0
    9.1331   -1.4052   22.0217 C   0  0  0  0  0  0  0  0  0  0  0  0
   10.3387   -1.7296   22.6223 N   0  0  0  0  0  0  0  0  0  0  0  0
   10.1973   -1.7315   23.6212 H   0  0  0  0  0  0  0  0  0  0  0  0
   11.4713   -0.8609   22.2813 C   0  0  0  0  0  0  0  0  0  0  0  0
   12.3886   -1.3530   22.6307 H   0  0  0  0  0  0  0  0  0  0  0  0
   11.5626   -0.8108   21.1909 H   0  0  0  0  0  0  0  0  0  0  0  0
   11.3445    0.5374   22.8603 C   0  0  0  0  0  0  0  0  0  0  0  0
   11.4945    1.6779   22.0578 C   0  0  0  0  0  0  0  0  0  0  0  0
   11.7511    1.5575   21.0066 H   0  0  0  0  0  0  0  0  0  0  0  0
   11.2980    2.9568   22.5892 C   0  0  0  0  0  0  0  0  0  0  0  0
   11.4337    3.8185   21.9452 H   0  0  0  0  0  0  0  0  0  0  0  0
   10.9257    3.1187   23.9256 C   0  0  0  0  0  0  0  0  0  0  0  0
   10.7472    4.1172   24.3180 H   0  0  0  0  0  0  0  0  0  0  0  0
   10.7826    1.9868   24.7342 C   0  0  0  0  0  0  0  0  0  0  0  0
   10.4694    2.0788   25.7695 H   0  0  0  0  0  0  0  0  0  0  0  0
   11.0150    0.7140   24.2157 C   0  0  0  0  0  0  0  0  0  0  0  0
   10.9408   -0.1418   24.8873 H   0  0  0  0  0  0  0  0  0  0  0  0
    8.0500   -2.1760   22.3439 N   0  0  0  0  0  0  0  0  0  0  0  0
    8.0657   -2.9749   22.9478 H   0  0  0  0  0  0  0  0  0  0  0  0
    6.9661   -1.8786   21.5792 C   0  0  0  0  0  0  0  0  0  0  0  0
    5.5461   -2.7395   21.5326 S   0  0  0  0  0  0  0  0  0  0  0  0
    5.4368    0.5221   20.1028 C   0  0  0  0  0  0  0  0  0  0  0  0
    4.9959    0.4344   21.0976 H   0  0  0  0  0  0  0  0  0  0  0  0
    4.8263    1.2494   19.0728 C   0  0  0  0  0  0  0  0  0  0  0  0
    3.9012    1.7923   19.2320 H   0  0  0  0  0  0  0  0  0  0  0  0
  1  2  1  0
  2  3  2  0
  3  4  1  0
  4  5  1  0
  4  6  2  0
  6  7  1  0
  7  8  1  0
  8  9  1  0
  8 10  2  0
 10 11  1  0
 11 12  1  0
 11 13  1  0
 13 14  1  0
 13 15  1  0
 13 16  1  0
 16 17  2  0
 17 18  1  0
 17 19  1  0
 19 20  1  0
 19 21  2  0
 21 22  1  0
 21 23  1  0
 23 24  1  0
 23 25  2  0
 25 26  1  0
 10 27  1  0
 27 28  1  0
 27 29  1  0
 29 30  2  0
  6 31  1  0
 31 32  1  0
 31 33  2  0
 33 34  1  0
 33  2  1  0
 29  7  1  0
 25 16  1  0
M  END
>  <cnnaffinity>  (1) 
-5.40006

>  <filename>  (1) 
S=c1[nH]c(NCc2ccccc2)cn1-c1cccnc1

$$$$
