
     RDKit          3D

 33 36  0  0  0  0  0  0  0  0999 V2000
    5.0761    1.7562   16.9993 H   0  0  0  0  0  0  0  0  0  0  0  0
    5.4691    1.2810   17.8958 C   0  0  0  0  0  0  0  0  0  0  0  0
    6.6046    0.5880   17.7288 N   0  0  0  0  0  0  0  0  0  0  0  0
    7.1052   -0.0291   18.8003 C   0  0  0  0  0  0  0  0  0  0  0  0
    8.0168   -0.6009   18.6460 H   0  0  0  0  0  0  0  0  0  0  0  0
    6.5253    0.0126   20.0816 C   0  0  0  0  0  0  0  0  0  0  0  0
    7.2168   -0.7631   21.1296 C   0  0  0  0  0  0  0  0  0  0  0  0
    8.0823   -1.6865   20.8370 N   0  0  0  0  0  0  0  0  0  0  0  0
    8.5336   -2.1309   22.0406 N   0  0  0  0  0  0  0  0  0  0  0  0
    9.3341   -2.7390   22.1345 H   0  0  0  0  0  0  0  0  0  0  0  0
    8.0297   -1.4657   23.0973 C   0  0  0  0  0  0  0  0  0  0  0  0
    8.4659   -1.6518   24.6856 S   0  0  0  0  0  0  0  0  0  0  0  0
    7.1169   -0.5924   22.5119 N   0  0  0  0  0  0  0  0  0  0  0  0
    6.6883    0.6053   23.2087 C   0  0  0  0  0  0  0  0  0  0  0  0
    5.8290    0.5025   24.2780 C   0  0  0  0  0  0  0  0  0  0  0  0
    5.5735   -0.4905   24.6372 H   0  0  0  0  0  0  0  0  0  0  0  0
    5.3356    1.6752   24.9104 C   0  0  0  0  0  0  0  0  0  0  0  0
    4.6702    1.5731   25.7655 H   0  0  0  0  0  0  0  0  0  0  0  0
    5.6974    2.9308   24.4602 C   0  0  0  0  0  0  0  0  0  0  0  0
    5.3016    3.8475   24.8938 H   0  0  0  0  0  0  0  0  0  0  0  0
    6.6498    3.0644   23.4085 C   0  0  0  0  0  0  0  0  0  0  0  0
    7.1034    4.3105   22.8724 C   0  0  0  0  0  0  0  0  0  0  0  0
    6.6018    5.2372   23.1439 H   0  0  0  0  0  0  0  0  0  0  0  0
    8.1574    4.3127   21.9913 C   0  0  0  0  0  0  0  0  0  0  0  0
    8.5495    5.2181   21.5452 H   0  0  0  0  0  0  0  0  0  0  0  0
    8.7541    3.0755   21.6219 C   0  0  0  0  0  0  0  0  0  0  0  0
    9.6031    3.0261   20.9512 H   0  0  0  0  0  0  0  0  0  0  0  0
    8.3312    1.9087   22.0240 N   0  0  0  0  0  0  0  0  0  0  0  0
    7.2417    1.8839   22.8590 C   0  0  0  0  0  0  0  0  0  0  0  0
    5.3511    0.7656   20.2484 C   0  0  0  0  0  0  0  0  0  0  0  0
    4.8804    0.8524   21.2319 H   0  0  0  0  0  0  0  0  0  0  0  0
    4.8075    1.3941   19.1258 C   0  0  0  0  0  0  0  0  0  0  0  0
    3.8874    1.9691   19.1752 H   0  0  0  0  0  0  0  0  0  0  0  0
  1  2  1  0
  2  3  2  0
  3  4  1  0
  4  5  1  0
  4  6  2  0
  6  7  1  0
  7  8  2  0
  8  9  1  0
  9 10  1  0
  9 11  1  0
 11 12  2  0
 11 13  1  0
 13 14  1  0
 14 15  2  0
 15 16  1  0
 15 17  1  0
 17 18  1  0
 17 19  2  0
 19 20  1  0
 19 21  1  0
 21 22  2  0
 22 23  1  0
 22 24  1  0
 24 25  1  0
 24 26  2  0
 26 27  1  0
 26 28  1  0
 28 29  2  0
  6 30  1  0
 30 31  1  0
 30 32  2  0
 32 33  1  0
 32  2  1  0
 13  7  1  0
 29 14  1  0
 29 21  1  0
M  END
>  <cnnaffinity>  (1) 
-5.22711

>  <filename>  (1) 
S=c1[nH]nc(-c2cccnc2)n1-c1cccc2cccnc12

$$$$
