
     RDKit          3D

 37 40  0  0  0  0  0  0  0  0999 V2000
    5.6404   -1.6832   21.6513 H   0  0  0  0  0  0  0  0  0  0  0  0
    6.7098   -1.5699   21.6992 C   0  0  0  0  0  0  0  0  0  0  0  0
    7.3781   -0.7620   20.8580 C   0  0  0  0  0  0  0  0  0  0  0  0
    6.7073    0.0470   19.8382 C   0  0  0  0  0  0  0  0  0  0  0  0
    7.2258    0.1228   18.5364 C   0  0  0  0  0  0  0  0  0  0  0  0
    8.1648   -0.3735   18.3009 H   0  0  0  0  0  0  0  0  0  0  0  0
    6.6164    0.7344   17.5170 N   0  0  0  0  0  0  0  0  0  0  0  0
    5.4430    1.3339   17.7773 C   0  0  0  0  0  0  0  0  0  0  0  0
    4.9626    1.8284   16.9361 H   0  0  0  0  0  0  0  0  0  0  0  0
    4.8427    1.3444   19.0426 C   0  0  0  0  0  0  0  0  0  0  0  0
    3.8990    1.8610   19.1846 H   0  0  0  0  0  0  0  0  0  0  0  0
    5.4804    0.6894   20.0941 C   0  0  0  0  0  0  0  0  0  0  0  0
    5.0459    0.6966   21.0985 H   0  0  0  0  0  0  0  0  0  0  0  0
    8.7639   -0.6914   20.9526 N   0  0  0  0  0  0  0  0  0  0  0  0
    9.2798    0.0552   20.5215 H   0  0  0  0  0  0  0  0  0  0  0  0
    9.5017   -1.3478   21.8841 C   0  0  0  0  0  0  0  0  0  0  0  0
   11.1224   -1.0631   22.0648 S   0  0  0  0  0  0  0  0  0  0  0  0
    8.8409   -2.2463   22.6440 N   0  0  0  0  0  0  0  0  0  0  0  0
    9.3923   -2.4748   23.4542 H   0  0  0  0  0  0  0  0  0  0  0  0
    7.3856   -2.2052   22.8426 C   0  0  1  0  0  0  0  0  0  0  0  0
    7.0188   -3.2440   22.8935 H   0  0  0  0  0  0  0  0  0  0  0  0
    7.0920   -1.5317   24.1762 C   0  0  0  0  0  0  0  0  0  0  0  0
    6.9440   -0.1698   24.2843 C   0  0  0  0  0  0  0  0  0  0  0  0
    7.0889    0.4606   23.4113 H   0  0  0  0  0  0  0  0  0  0  0  0
    6.6029    0.4800   25.4323 N   0  0  0  0  0  0  0  0  0  0  0  0
    6.3521   -0.2460   26.5003 C   0  0  0  0  0  0  0  0  0  0  0  0
    6.0745    0.2923   27.4100 H   0  0  0  0  0  0  0  0  0  0  0  0
    6.4541   -1.6816   26.5306 C   0  0  0  0  0  0  0  0  0  0  0  0
    6.0594   -2.5068   27.6305 C   0  0  0  0  0  0  0  0  0  0  0  0
    5.5546   -2.0570   28.4857 H   0  0  0  0  0  0  0  0  0  0  0  0
    6.3439   -3.8544   27.6224 C   0  0  0  0  0  0  0  0  0  0  0  0
    6.0850   -4.4650   28.4868 H   0  0  0  0  0  0  0  0  0  0  0  0
    7.0283   -4.4500   26.5280 C   0  0  0  0  0  0  0  0  0  0  0  0
    7.2869   -5.5072   26.5506 H   0  0  0  0  0  0  0  0  0  0  0  0
    7.3309   -3.6896   25.4196 C   0  0  0  0  0  0  0  0  0  0  0  0
    7.8181   -4.1460   24.5641 H   0  0  0  0  0  0  0  0  0  0  0  0
    6.9760   -2.3100   25.3660 C   0  0  0  0  0  0  0  0  0  0  0  0
  1  2  1  0
  2  3  2  0
  3  4  1  0
  4  5  2  0
  5  6  1  0
  5  7  1  0
  7  8  2  0
  8  9  1  0
  8 10  1  0
 10 11  1  0
 10 12  2  0
 12 13  1  0
  3 14  1  0
 14 15  1  0
 14 16  1  0
 16 17  2  0
 16 18  1  0
 18 19  1  0
 18 20  1  0
 20 21  1  1
 20 22  1  0
 22 23  2  0
 23 24  1  0
 23 25  1  0
 25 26  2  0
 26 27  1  0
 26 28  1  0
 28 29  2  0
 29 30  1  0
 29 31  1  0
 31 32  1  0
 31 33  2  0
 33 34  1  0
 33 35  1  0
 35 36  1  0
 35 37  2  0
 20  2  1  0
 37 22  1  0
 12  4  1  0
 37 28  1  0
M  END
>  <cnnaffinity>  (1) 
-5.40227

>  <filename>  (1) 
S=C1NC(c2cccnc2)=C[C@H](c2cncc3ccccc23)N1

$$$$
