
     RDKit          3D

 33 35  0  0  0  0  0  0  0  0999 V2000
    5.2609    1.7092   16.8310 H   0  0  0  0  0  0  0  0  0  0  0  0
    5.6689    1.2076   17.7049 C   0  0  0  0  0  0  0  0  0  0  0  0
    6.7747    0.4738   17.5103 N   0  0  0  0  0  0  0  0  0  0  0  0
    7.2870   -0.1665   18.5714 C   0  0  0  0  0  0  0  0  0  0  0  0
    8.1818   -0.7470   18.3596 H   0  0  0  0  0  0  0  0  0  0  0  0
    6.7376   -0.1393   19.8665 C   0  0  0  0  0  0  0  0  0  0  0  0
    7.3348   -0.9135   20.9703 C   0  0  0  0  0  0  0  0  0  0  0  0
    8.5812   -1.3906   21.2312 C   0  0  0  0  0  0  0  0  0  0  0  0
    9.5068   -1.4168   20.6780 H   0  0  0  0  0  0  0  0  0  0  0  0
    8.5666   -1.9369   22.5228 N   0  0  0  0  0  0  0  0  0  0  0  0
    9.9556   -2.3396   23.4441 S   0  0  0  0  0  0  0  0  0  0  0  0
   10.0539   -0.7822   24.4266 C   0  0  0  0  0  0  0  0  0  0  0  0
    9.0932   -0.6981   24.9439 H   0  0  0  0  0  0  0  0  0  0  0  0
   10.8143   -0.9357   25.1971 H   0  0  0  0  0  0  0  0  0  0  0  0
   10.3417    0.4057   23.5365 C   0  0  0  0  0  0  0  0  0  0  0  0
    9.3223    1.3038   23.1851 C   0  0  0  0  0  0  0  0  0  0  0  0
    8.3792    1.2730   23.7333 H   0  0  0  0  0  0  0  0  0  0  0  0
    9.5033    2.2091   22.1350 C   0  0  0  0  0  0  0  0  0  0  0  0
    8.6926    2.8769   21.8572 H   0  0  0  0  0  0  0  0  0  0  0  0
   10.7294    2.2574   21.4623 C   0  0  0  0  0  0  0  0  0  0  0  0
   10.8943    2.9351   20.6314 H   0  0  0  0  0  0  0  0  0  0  0  0
   11.7778    1.4311   21.8741 C   0  0  0  0  0  0  0  0  0  0  0  0
   12.7389    1.5124   21.3847 H   0  0  0  0  0  0  0  0  0  0  0  0
   11.5913    0.5113   22.9052 C   0  0  0  0  0  0  0  0  0  0  0  0
   12.4138   -0.1311   23.2191 H   0  0  0  0  0  0  0  0  0  0  0  0
    7.3035   -1.8412   23.0634 C   0  0  0  0  0  0  0  0  0  0  0  0
    6.7311   -2.2868   24.5583 S   0  0  0  0  0  0  0  0  0  0  0  0
    6.5835   -1.2365   22.0883 N   0  0  0  0  0  0  0  0  0  0  0  0
    5.6024   -1.0819   22.2479 H   0  0  0  0  0  0  0  0  0  0  0  0
    5.5880    0.6634   20.0419 C   0  0  0  0  0  0  0  0  0  0  0  0
    5.1326    0.7707   21.0266 H   0  0  0  0  0  0  0  0  0  0  0  0
    5.0482    1.3393   18.9527 C   0  0  0  0  0  0  0  0  0  0  0  0
    4.1681    1.9665   19.0606 H   0  0  0  0  0  0  0  0  0  0  0  0
  1  2  1  0
  2  3  2  0
  3  4  1  0
  4  5  1  0
  4  6  2  0
  6  7  1  0
  7  8  2  0
  8  9  1  0
  8 10  1  0
 10 11  1  0
 11 12  1  0
 12 13  1  0
 12 14  1  0
 12 15  1  0
 15 16  2  0
 16 17  1  0
 16 18  1  0
 18 19  1  0
 18 20  2  0
 20 21  1  0
 20 22  1  0
 22 23  1  0
 22 24  2  0
 24 25  1  0
 10 26  1  0
 26 27  2  0
 26 28  1  0
 28 29  1  0
  6 30  1  0
 30 31  1  0
 30 32  2  0
 32 33  1  0
 32  2  1  0
 28  7  1  0
 24 15  1  0
M  END
>  <cnnaffinity>  (1) 
-5.34794

>  <filename>  (1) 
S=c1[nH]c(-c2cccnc2)cn1SCc1ccccc1

$$$$
